MODEL 1
REMARK VINA RESULT:      -7.7      0.000      0.000
REMARK  Name = 
REMARK  6 active torsions:
REMARK  status: ('A' for Active; 'I' for Inactive)
REMARK    1  A    between atoms: C_2  and  O_3
REMARK    2  A    between atoms: O_3  and  C_4
REMARK    3  A    between atoms: C_7  and  N_8
REMARK    4  A    between atoms: C_9  and  C_11
REMARK    5  A    between atoms: C_12  and  N_13
REMARK    6  A    between atoms: C_14  and  C_16
REMARK                            x       y       z     vdW  Elec       q    Type
REMARK                         _______ _______ _______ _____ _____    ______ ____
ROOT
ATOM      1  C   UNL     1      12.946   0.206  27.717  0.00  0.00    +0.000 A 
ATOM      2  C   UNL     1      12.283  -0.865  28.214  0.00  0.00    +0.000 A 
ATOM      3  S   UNL     1      10.727  -0.145  28.646  0.00  0.00    +0.000 S 
ATOM      4  C   UNL     1      11.021   1.448  28.162  0.00  0.00    +0.000 A 
ATOM      5  C   UNL     1      12.288   1.412  27.686  0.00  0.00    +0.000 A 
ATOM      6  C   UNL     1      12.896   2.717  27.138  0.00  0.00    +0.000 C 
ATOM      7  C   UNL     1      11.731   3.496  26.569  0.00  0.00    +0.000 C 
ATOM      8  C   UNL     1      10.905   3.890  27.804  0.00  0.00    +0.000 C 
ATOM      9  C   UNL     1      10.150   2.689  28.203  0.00  0.00    +0.000 C 
ENDROOT
BRANCH   1  11
ATOM     10  N   UNL     1      14.907  -0.174  26.121  0.00  0.00    +0.000 NA
ATOM     11  C   UNL     1      14.418   0.119  27.423  0.00  0.00    +0.000 C 
ATOM     12  O   UNL     1      15.249   0.299  28.309  0.00  0.00    +0.000 OA
BRANCH  10  16
ATOM     13  C   UNL     1      19.032  -0.300  25.241  0.00  0.00    +0.000 A 
ATOM     14  C   UNL     1      18.358  -1.461  25.499  0.00  0.00    +0.000 A 
ATOM     15  C   UNL     1      16.990  -1.441  25.793  0.00  0.00    +0.000 A 
ATOM     16  C   UNL     1      16.290  -0.262  25.830  0.00  0.00    +0.000 A 
ATOM     17  C   UNL     1      16.982   0.898  25.569  0.00  0.00    +0.000 A 
ATOM     18  C   UNL     1      18.337   0.888  25.277  0.00  0.00    +0.000 A 
BRANCH  13  19
ATOM     19  O   UNL     1      20.404  -0.289  24.943  0.00  0.00    +0.000 OA
BRANCH  19  21
ATOM     20  C   UNL     1      21.233   0.465  22.801  0.00  0.00    +0.000 C 
ATOM     21  C   UNL     1      20.965   0.806  24.265  0.00  0.00    +0.000 C 
ENDBRANCH  19  21
ENDBRANCH  13  19
ENDBRANCH  10  16
ENDBRANCH   1  11
BRANCH   2  22
ATOM     22  N   UNL     1      12.436  -2.256  28.273  0.00  0.00    +0.000 NA
ATOM     23  C   UNL     1      12.425  -3.278  27.382  0.00  0.00    +0.000 C 
ATOM     24  O   UNL     1      12.207  -3.101  26.175  0.00  0.00    +0.000 OA
BRANCH  23  25
ATOM     25  C   UNL     1      12.676  -4.699  27.798  0.00  0.00    +0.000 A 
ATOM     26  C   UNL     1      12.885  -4.952  29.128  0.00  0.00    +0.000 A 
ATOM     27  C   UNL     1      13.119  -6.249  29.538  0.00  0.00    +0.000 A 
ATOM     28  C   UNL     1      13.147  -7.289  28.632  0.00  0.00    +0.000 A 
ATOM     29  C   UNL     1      12.937  -7.024  27.307  0.00  0.00    +0.000 A 
ATOM     30  C   UNL     1      12.702  -5.717  26.900  0.00  0.00    +0.000 A 
ENDBRANCH  23  25
ENDBRANCH   2  22
TORSDOF 6
ENDMDL
MODEL 2
REMARK VINA RESULT:      -7.4     24.132     26.787
REMARK  Name = 
REMARK  6 active torsions:
REMARK  status: ('A' for Active; 'I' for Inactive)
REMARK    1  A    between atoms: C_2  and  O_3
REMARK    2  A    between atoms: O_3  and  C_4
REMARK    3  A    between atoms: C_7  and  N_8
REMARK    4  A    between atoms: C_9  and  C_11
REMARK    5  A    between atoms: C_12  and  N_13
REMARK    6  A    between atoms: C_14  and  C_16
REMARK                            x       y       z     vdW  Elec       q    Type
REMARK                         _______ _______ _______ _____ _____    ______ ____
ROOT
ATOM      1  C   UNL     1      37.955   5.367  16.331  0.00  0.00    +0.000 A 
ATOM      2  C   UNL     1      37.462   6.216  15.399  0.00  0.00    +0.000 A 
ATOM      3  S   UNL     1      37.719   7.782  16.181  0.00  0.00    +0.000 S 
ATOM      4  C   UNL     1      38.436   7.254  17.618  0.00  0.00    +0.000 A 
ATOM      5  C   UNL     1      38.467   5.906  17.487  0.00  0.00    +0.000 A 
ATOM      6  C   UNL     1      39.078   5.078  18.634  0.00  0.00    +0.000 C 
ATOM      7  C   UNL     1      40.147   5.959  19.241  0.00  0.00    +0.000 C 
ATOM      8  C   UNL     1      39.360   7.100  19.905  0.00  0.00    +0.000 C 
ATOM      9  C   UNL     1      38.956   8.015  18.823  0.00  0.00    +0.000 C 
ENDROOT
BRANCH   1  11
ATOM     10  N   UNL     1      36.471   3.287  16.413  0.00  0.00    +0.000 NA
ATOM     11  C   UNL     1      37.742   3.885  16.196  0.00  0.00    +0.000 C 
ATOM     12  O   UNL     1      38.670   3.140  15.893  0.00  0.00    +0.000 OA
BRANCH  10  16
ATOM     13  C   UNL     1      35.813  -0.876  16.185  0.00  0.00    +0.000 A 
ATOM     14  C   UNL     1      36.055  -0.164  15.043  0.00  0.00    +0.000 A 
ATOM     15  C   UNL     1      36.275   1.217  15.097  0.00  0.00    +0.000 A 
ATOM     16  C   UNL     1      36.256   1.892  16.291  0.00  0.00    +0.000 A 
ATOM     17  C   UNL     1      36.011   1.162  17.431  0.00  0.00    +0.000 A 
ATOM     18  C   UNL     1      35.792  -0.206  17.387  0.00  0.00    +0.000 A 
BRANCH  13  19
ATOM     19  O   UNL     1      35.590  -2.261  16.162  0.00  0.00    +0.000 OA
BRANCH  19  21
ATOM     20  C   UNL     1      37.558  -3.617  16.522  0.00  0.00    +0.000 C 
ATOM     21  C   UNL     1      36.241  -3.092  17.088  0.00  0.00    +0.000 C 
ENDBRANCH  19  21
ENDBRANCH  13  19
ENDBRANCH  10  16
ENDBRANCH   1  11
BRANCH   2  22
ATOM     22  N   UNL     1      37.042   6.177  14.064  0.00  0.00    +0.000 NA
ATOM     23  C   UNL     1      35.953   5.718  13.397  0.00  0.00    +0.000 C 
ATOM     24  O   UNL     1      35.023   5.135  13.970  0.00  0.00    +0.000 OA
BRANCH  23  25
ATOM     25  C   UNL     1      35.802   5.887  11.912  0.00  0.00    +0.000 A 
ATOM     26  C   UNL     1      34.918   6.831  11.459  0.00  0.00    +0.000 A 
ATOM     27  C   UNL     1      34.759   7.006  10.099  0.00  0.00    +0.000 A 
ATOM     28  C   UNL     1      35.473   6.249   9.194  0.00  0.00    +0.000 A 
ATOM     29  C   UNL     1      36.352   5.310   9.659  0.00  0.00    +0.000 A 
ATOM     30  C   UNL     1      36.508   5.137  11.028  0.00  0.00    +0.000 A 
ENDBRANCH  23  25
ENDBRANCH   2  22
TORSDOF 6
ENDMDL
MODEL 3
REMARK VINA RESULT:      -7.3     25.530     27.970
REMARK  Name = 
REMARK  6 active torsions:
REMARK  status: ('A' for Active; 'I' for Inactive)
REMARK    1  A    between atoms: C_2  and  O_3
REMARK    2  A    between atoms: O_3  and  C_4
REMARK    3  A    between atoms: C_7  and  N_8
REMARK    4  A    between atoms: C_9  and  C_11
REMARK    5  A    between atoms: C_12  and  N_13
REMARK    6  A    between atoms: C_14  and  C_16
REMARK                            x       y       z     vdW  Elec       q    Type
REMARK                         _______ _______ _______ _____ _____    ______ ____
ROOT
ATOM      1  C   UNL     1      37.662   5.508  15.358  0.00  0.00    +0.000 A 
ATOM      2  C   UNL     1      38.541   6.420  15.836  0.00  0.00    +0.000 A 
ATOM      3  S   UNL     1      37.865   7.924  15.198  0.00  0.00    +0.000 S 
ATOM      4  C   UNL     1      36.522   7.296  14.385  0.00  0.00    +0.000 A 
ATOM      5  C   UNL     1      36.608   5.962  14.605  0.00  0.00    +0.000 A 
ATOM      6  C   UNL     1      35.516   5.056  14.004  0.00  0.00    +0.000 C 
ATOM      7  C   UNL     1      34.259   5.898  13.985  0.00  0.00    +0.000 C 
ATOM      8  C   UNL     1      34.550   6.979  12.931  0.00  0.00    +0.000 C 
ATOM      9  C   UNL     1      35.428   7.970  13.579  0.00  0.00    +0.000 C 
ENDROOT
BRANCH   1  11
ATOM     10  N   UNL     1      38.294   3.256  14.323  0.00  0.00    +0.000 NA
ATOM     11  C   UNL     1      37.962   4.038  15.463  0.00  0.00    +0.000 C 
ATOM     12  O   UNL     1      37.926   3.464  16.548  0.00  0.00    +0.000 OA
BRANCH  10  16
ATOM     13  C   UNL     1      39.001  -0.897  14.573  0.00  0.00    +0.000 A 
ATOM     14  C   UNL     1      40.058  -0.030  14.524  0.00  0.00    +0.000 A 
ATOM     15  C   UNL     1      39.844   1.350  14.441  0.00  0.00    +0.000 A 
ATOM     16  C   UNL     1      38.576   1.871  14.407  0.00  0.00    +0.000 A 
ATOM     17  C   UNL     1      37.523   0.987  14.457  0.00  0.00    +0.000 A 
ATOM     18  C   UNL     1      37.725  -0.382  14.539  0.00  0.00    +0.000 A 
BRANCH  13  19
ATOM     19  O   UNL     1      39.184  -2.286  14.657  0.00  0.00    +0.000 OA
BRANCH  19  21
ATOM     20  C   UNL     1      39.013  -2.893  16.991  0.00  0.00    +0.000 C 
ATOM     21  C   UNL     1      39.888  -2.836  15.741  0.00  0.00    +0.000 C 
ENDBRANCH  19  21
ENDBRANCH  13  19
ENDBRANCH  10  16
ENDBRANCH   1  11
BRANCH   2  22
ATOM     22  N   UNL     1      39.595   6.477  16.756  0.00  0.00    +0.000 NA
ATOM     23  C   UNL     1      39.736   6.290  18.092  0.00  0.00    +0.000 C 
ATOM     24  O   UNL     1      38.776   6.026  18.828  0.00  0.00    +0.000 OA
BRANCH  23  25
ATOM     25  C   UNL     1      41.072   6.391  18.772  0.00  0.00    +0.000 A 
ATOM     26  C   UNL     1      42.165   6.684  18.002  0.00  0.00    +0.000 A 
ATOM     27  C   UNL     1      43.405   6.782  18.601  0.00  0.00    +0.000 A 
ATOM     28  C   UNL     1      43.558   6.588  19.958  0.00  0.00    +0.000 A 
ATOM     29  C   UNL     1      42.458   6.295  20.717  0.00  0.00    +0.000 A 
ATOM     30  C   UNL     1      41.214   6.198  20.109  0.00  0.00    +0.000 A 
ENDBRANCH  23  25
ENDBRANCH   2  22
TORSDOF 6
ENDMDL
MODEL 4
REMARK VINA RESULT:      -7.3     22.850     27.494
REMARK  Name = 
REMARK  6 active torsions:
REMARK  status: ('A' for Active; 'I' for Inactive)
REMARK    1  A    between atoms: C_2  and  O_3
REMARK    2  A    between atoms: O_3  and  C_4
REMARK    3  A    between atoms: C_7  and  N_8
REMARK    4  A    between atoms: C_9  and  C_11
REMARK    5  A    between atoms: C_12  and  N_13
REMARK    6  A    between atoms: C_14  and  C_16
REMARK                            x       y       z     vdW  Elec       q    Type
REMARK                         _______ _______ _______ _____ _____    ______ ____
ROOT
ATOM      1  C   UNL     1      36.764   0.114  16.029  0.00  0.00    +0.000 A 
ATOM      2  C   UNL     1      36.478   1.279  16.655  0.00  0.00    +0.000 A 
ATOM      3  S   UNL     1      34.947   0.884  17.447  0.00  0.00    +0.000 S 
ATOM      4  C   UNL     1      34.784  -0.721  16.940  0.00  0.00    +0.000 A 
ATOM      5  C   UNL     1      35.885  -0.931  16.179  0.00  0.00    +0.000 A 
ATOM      6  C   UNL     1      36.076  -2.323  15.547  0.00  0.00    +0.000 C 
ATOM      7  C   UNL     1      35.437  -3.295  16.513  0.00  0.00    +0.000 C 
ATOM      8  C   UNL     1      33.935  -2.982  16.421  0.00  0.00    +0.000 C 
ATOM      9  C   UNL     1      33.712  -1.759  17.212  0.00  0.00    +0.000 C 
ENDROOT
BRANCH   1  11
ATOM     10  N   UNL     1      39.165  -0.469  15.372  0.00  0.00    +0.000 NA
ATOM     11  C   UNL     1      37.885   0.045  15.030  0.00  0.00    +0.000 C 
ATOM     12  O   UNL     1      37.726   0.437  13.876  0.00  0.00    +0.000 OA
BRANCH  10  16
ATOM     13  C   UNL     1      42.314  -0.806  12.581  0.00  0.00    +0.000 A 
ATOM     14  C   UNL     1      42.051   0.402  13.165  0.00  0.00    +0.000 A 
ATOM     15  C   UNL     1      41.012   0.534  14.092  0.00  0.00    +0.000 A 
ATOM     16  C   UNL     1      40.231  -0.538  14.441  0.00  0.00    +0.000 A 
ATOM     17  C   UNL     1      40.507  -1.747  13.845  0.00  0.00    +0.000 A 
ATOM     18  C   UNL     1      41.535  -1.888  12.925  0.00  0.00    +0.000 A 
BRANCH  13  19
ATOM     19  O   UNL     1      43.350  -0.970  11.649  0.00  0.00    +0.000 OA
BRANCH  19  21
ATOM     20  C   UNL     1      45.228  -1.540  13.059  0.00  0.00    +0.000 C 
ATOM     21  C   UNL     1      44.349  -1.930  11.873  0.00  0.00    +0.000 C 
ENDBRANCH  19  21
ENDBRANCH  13  19
ENDBRANCH  10  16
ENDBRANCH   1  11
BRANCH   2  22
ATOM     22  N   UNL     1      37.112   2.492  16.955  0.00  0.00    +0.000 NA
ATOM     23  C   UNL     1      37.464   3.605  16.265  0.00  0.00    +0.000 C 
ATOM     24  O   UNL     1      37.270   3.718  15.047  0.00  0.00    +0.000 OA
BRANCH  23  25
ATOM     25  C   UNL     1      38.115   4.782  16.934  0.00  0.00    +0.000 A 
ATOM     26  C   UNL     1      38.624   4.605  18.193  0.00  0.00    +0.000 A 
ATOM     27  C   UNL     1      39.228   5.670  18.831  0.00  0.00    +0.000 A 
ATOM     28  C   UNL     1      39.325   6.904  18.223  0.00  0.00    +0.000 A 
ATOM     29  C   UNL     1      38.812   7.068  16.966  0.00  0.00    +0.000 A 
ATOM     30  C   UNL     1      38.206   5.994  16.328  0.00  0.00    +0.000 A 
ENDBRANCH  23  25
ENDBRANCH   2  22
TORSDOF 6
ENDMDL
MODEL 5
REMARK VINA RESULT:      -7.1      3.389      4.340
REMARK  Name = 
REMARK  6 active torsions:
REMARK  status: ('A' for Active; 'I' for Inactive)
REMARK    1  A    between atoms: C_2  and  O_3
REMARK    2  A    between atoms: O_3  and  C_4
REMARK    3  A    between atoms: C_7  and  N_8
REMARK    4  A    between atoms: C_9  and  C_11
REMARK    5  A    between atoms: C_12  and  N_13
REMARK    6  A    between atoms: C_14  and  C_16
REMARK                            x       y       z     vdW  Elec       q    Type
REMARK                         _______ _______ _______ _____ _____    ______ ____
ROOT
ATOM      1  C   UNL     1      12.466   0.722  28.645  0.00  0.00    +0.000 A 
ATOM      2  C   UNL     1      12.417   0.885  29.987  0.00  0.00    +0.000 A 
ATOM      3  S   UNL     1      10.915   1.800  30.174  0.00  0.00    +0.000 S 
ATOM      4  C   UNL     1      10.454   1.901  28.551  0.00  0.00    +0.000 A 
ATOM      5  C   UNL     1      11.442   1.247  27.894  0.00  0.00    +0.000 A 
ATOM      6  C   UNL     1      11.343   1.133  26.361  0.00  0.00    +0.000 C 
ATOM      7  C   UNL     1       9.862   1.090  26.055  0.00  0.00    +0.000 C 
ATOM      8  C   UNL     1       9.365   2.499  26.415  0.00  0.00    +0.000 C 
ATOM      9  C   UNL     1       9.251   2.541  27.884  0.00  0.00    +0.000 C 
ENDROOT
BRANCH   1  11
ATOM     10  N   UNL     1      14.727   1.039  27.494  0.00  0.00    +0.000 NA
ATOM     11  C   UNL     1      13.707   0.182  27.990  0.00  0.00    +0.000 C 
ATOM     12  O   UNL     1      13.878  -1.027  27.863  0.00  0.00    +0.000 OA
BRANCH  10  16
ATOM     13  C   UNL     1      18.298  -0.368  25.739  0.00  0.00    +0.000 A 
ATOM     14  C   UNL     1      17.092  -0.720  25.199  0.00  0.00    +0.000 A 
ATOM     15  C   UNL     1      15.897  -0.264  25.766  0.00  0.00    +0.000 A 
ATOM     16  C   UNL     1      15.901   0.546  26.874  0.00  0.00    +0.000 A 
ATOM     17  C   UNL     1      17.121   0.891  27.405  0.00  0.00    +0.000 A 
ATOM     18  C   UNL     1      18.311   0.444  26.850  0.00  0.00    +0.000 A 
BRANCH  13  19
ATOM     19  O   UNL     1      19.513  -0.809  25.191  0.00  0.00    +0.000 OA
BRANCH  19  21
ATOM     20  C   UNL     1      20.048   0.861  23.528  0.00  0.00    +0.000 C 
ATOM     21  C   UNL     1      20.482   0.125  24.793  0.00  0.00    +0.000 C 
ENDBRANCH  19  21
ENDBRANCH  13  19
ENDBRANCH  10  16
ENDBRANCH   1  11
BRANCH   2  22
ATOM     22  N   UNL     1      13.070   0.399  31.127  0.00  0.00    +0.000 NA
ATOM     23  C   UNL     1      14.358   0.198  31.502  0.00  0.00    +0.000 C 
ATOM     24  O   UNL     1      15.312   0.427  30.745  0.00  0.00    +0.000 OA
BRANCH  23  25
ATOM     25  C   UNL     1      14.717  -0.316  32.867  0.00  0.00    +0.000 A 
ATOM     26  C   UNL     1      14.768   0.582  33.899  0.00  0.00    +0.000 A 
ATOM     27  C   UNL     1      15.096   0.136  35.164  0.00  0.00    +0.000 A 
ATOM     28  C   UNL     1      15.373  -1.195  35.402  0.00  0.00    +0.000 A 
ATOM     29  C   UNL     1      15.320  -2.081  34.362  0.00  0.00    +0.000 A 
ATOM     30  C   UNL     1      14.989  -1.628  33.091  0.00  0.00    +0.000 A 
ENDBRANCH  23  25
ENDBRANCH   2  22
TORSDOF 6
ENDMDL
MODEL 6
REMARK VINA RESULT:      -7.1     25.996     27.576
REMARK  Name = 
REMARK  6 active torsions:
REMARK  status: ('A' for Active; 'I' for Inactive)
REMARK    1  A    between atoms: C_2  and  O_3
REMARK    2  A    between atoms: O_3  and  C_4
REMARK    3  A    between atoms: C_7  and  N_8
REMARK    4  A    between atoms: C_9  and  C_11
REMARK    5  A    between atoms: C_12  and  N_13
REMARK    6  A    between atoms: C_14  and  C_16
REMARK                            x       y       z     vdW  Elec       q    Type
REMARK                         _______ _______ _______ _____ _____    ______ ____
ROOT
ATOM      1  C   UNL     1      37.712   4.416  15.404  0.00  0.00    +0.000 A 
ATOM      2  C   UNL     1      37.517   3.140  14.997  0.00  0.00    +0.000 A 
ATOM      3  S   UNL     1      36.201   3.342  13.832  0.00  0.00    +0.000 S 
ATOM      4  C   UNL     1      36.000   5.017  13.936  0.00  0.00    +0.000 A 
ATOM      5  C   UNL     1      36.926   5.396  14.850  0.00  0.00    +0.000 A 
ATOM      6  C   UNL     1      37.035   6.894  15.194  0.00  0.00    +0.000 C 
ATOM      7  C   UNL     1      36.651   7.628  13.928  0.00  0.00    +0.000 C 
ATOM      8  C   UNL     1      35.151   7.331  13.765  0.00  0.00    +0.000 C 
ATOM      9  C   UNL     1      35.051   5.963  13.226  0.00  0.00    +0.000 C 
ENDROOT
BRANCH   1  11
ATOM     10  N   UNL     1      39.532   5.784  16.567  0.00  0.00    +0.000 NA
ATOM     11  C   UNL     1      38.602   4.709  16.580  0.00  0.00    +0.000 C 
ATOM     12  O   UNL     1      38.552   4.021  17.596  0.00  0.00    +0.000 OA
BRANCH  10  16
ATOM     13  C   UNL     1      42.156   6.653  19.757  0.00  0.00    +0.000 A 
ATOM     14  C   UNL     1      40.836   6.403  20.013  0.00  0.00    +0.000 A 
ATOM     15  C   UNL     1      39.950   6.113  18.969  0.00  0.00    +0.000 A 
ATOM     16  C   UNL     1      40.378   6.071  17.666  0.00  0.00    +0.000 A 
ATOM     17  C   UNL     1      41.708   6.324  17.425  0.00  0.00    +0.000 A 
ATOM     18  C   UNL     1      42.593   6.613  18.452  0.00  0.00    +0.000 A 
BRANCH  13  19
ATOM     19  O   UNL     1      43.068   6.946  20.783  0.00  0.00    +0.000 OA
BRANCH  19  21
ATOM     20  C   UNL     1      44.016   6.542  22.969  0.00  0.00    +0.000 C 
ATOM     21  C   UNL     1      43.458   5.940  21.682  0.00  0.00    +0.000 C 
ENDBRANCH  19  21
ENDBRANCH  13  19
ENDBRANCH  10  16
ENDBRANCH   1  11
BRANCH   2  22
ATOM     22  N   UNL     1      38.151   1.896  15.106  0.00  0.00    +0.000 NA
ATOM     23  C   UNL     1      37.761   0.621  15.355  0.00  0.00    +0.000 C 
ATOM     24  O   UNL     1      36.583   0.324  15.596  0.00  0.00    +0.000 OA
BRANCH  23  25
ATOM     25  C   UNL     1      38.736  -0.523  15.355  0.00  0.00    +0.000 A 
ATOM     26  C   UNL     1      39.873  -0.398  14.602  0.00  0.00    +0.000 A 
ATOM     27  C   UNL     1      40.785  -1.434  14.583  0.00  0.00    +0.000 A 
ATOM     28  C   UNL     1      40.569  -2.587  15.308  0.00  0.00    +0.000 A 
ATOM     29  C   UNL     1      39.429  -2.700  16.055  0.00  0.00    +0.000 A 
ATOM     30  C   UNL     1      38.514  -1.655  16.071  0.00  0.00    +0.000 A 
ENDBRANCH  23  25
ENDBRANCH   2  22
TORSDOF 6
ENDMDL
MODEL 7
REMARK VINA RESULT:      -7.1     21.229     23.125
REMARK  Name = 
REMARK  6 active torsions:
REMARK  status: ('A' for Active; 'I' for Inactive)
REMARK    1  A    between atoms: C_2  and  O_3
REMARK    2  A    between atoms: O_3  and  C_4
REMARK    3  A    between atoms: C_7  and  N_8
REMARK    4  A    between atoms: C_9  and  C_11
REMARK    5  A    between atoms: C_12  and  N_13
REMARK    6  A    between atoms: C_14  and  C_16
REMARK                            x       y       z     vdW  Elec       q    Type
REMARK                         _______ _______ _______ _____ _____    ______ ____
ROOT
ATOM      1  C   UNL     1      24.480  15.017  41.109  0.00  0.00    +0.000 A 
ATOM      2  C   UNL     1      25.315  14.249  41.848  0.00  0.00    +0.000 A 
ATOM      3  S   UNL     1      24.884  14.743  43.490  0.00  0.00    +0.000 S 
ATOM      4  C   UNL     1      23.679  15.872  43.127  0.00  0.00    +0.000 A 
ATOM      5  C   UNL     1      23.624  15.861  41.773  0.00  0.00    +0.000 A 
ATOM      6  C   UNL     1      22.604  16.785  41.080  0.00  0.00    +0.000 C 
ATOM      7  C   UNL     1      21.438  16.889  42.038  0.00  0.00    +0.000 C 
ATOM      8  C   UNL     1      22.001  17.683  43.228  0.00  0.00    +0.000 C 
ATOM      9  C   UNL     1      22.809  16.738  44.018  0.00  0.00    +0.000 C 
ENDROOT
BRANCH   1  11
ATOM     10  N   UNL     1      25.614  15.954  39.017  0.00  0.00    +0.000 NA
ATOM     11  C   UNL     1      24.648  15.102  39.617  0.00  0.00    +0.000 C 
ATOM     12  O   UNL     1      23.946  14.430  38.865  0.00  0.00    +0.000 OA
BRANCH  10  16
ATOM     13  C   UNL     1      26.021  16.327  34.833  0.00  0.00    +0.000 A 
ATOM     14  C   UNL     1      26.759  15.393  35.506  0.00  0.00    +0.000 A 
ATOM     15  C   UNL     1      26.639  15.254  36.893  0.00  0.00    +0.000 A 
ATOM     16  C   UNL     1      25.781  16.046  37.614  0.00  0.00    +0.000 A 
ATOM     17  C   UNL     1      25.045  16.980  36.923  0.00  0.00    +0.000 A 
ATOM     18  C   UNL     1      25.158  17.125  35.549  0.00  0.00    +0.000 A 
BRANCH  13  19
ATOM     19  O   UNL     1      26.120  16.489  33.442  0.00  0.00    +0.000 OA
BRANCH  19  21
ATOM     20  C   UNL     1      24.878  14.566  32.666  0.00  0.00    +0.000 C 
ATOM     21  C   UNL     1      25.064  16.081  32.612  0.00  0.00    +0.000 C 
ENDBRANCH  19  21
ENDBRANCH  13  19
ENDBRANCH  10  16
ENDBRANCH   1  11
BRANCH   2  22
ATOM     22  N   UNL     1      26.177  13.161  41.663  0.00  0.00    +0.000 NA
ATOM     23  C   UNL     1      26.117  11.822  41.873  0.00  0.00    +0.000 C 
ATOM     24  O   UNL     1      25.127  11.275  42.380  0.00  0.00    +0.000 OA
BRANCH  23  25
ATOM     25  C   UNL     1      27.250  10.908  41.505  0.00  0.00    +0.000 A 
ATOM     26  C   UNL     1      27.184   9.604  41.917  0.00  0.00    +0.000 A 
ATOM     27  C   UNL     1      28.213   8.742  41.593  0.00  0.00    +0.000 A 
ATOM     28  C   UNL     1      29.302   9.174  40.864  0.00  0.00    +0.000 A 
ATOM     29  C   UNL     1      29.356  10.478  40.458  0.00  0.00    +0.000 A 
ATOM     30  C   UNL     1      28.319  11.341  40.787  0.00  0.00    +0.000 A 
ENDBRANCH  23  25
ENDBRANCH   2  22
TORSDOF 6
ENDMDL
MODEL 8
REMARK VINA RESULT:      -7.0     23.225     26.910
REMARK  Name = 
REMARK  6 active torsions:
REMARK  status: ('A' for Active; 'I' for Inactive)
REMARK    1  A    between atoms: C_2  and  O_3
REMARK    2  A    between atoms: O_3  and  C_4
REMARK    3  A    between atoms: C_7  and  N_8
REMARK    4  A    between atoms: C_9  and  C_11
REMARK    5  A    between atoms: C_12  and  N_13
REMARK    6  A    between atoms: C_14  and  C_16
REMARK                            x       y       z     vdW  Elec       q    Type
REMARK                         _______ _______ _______ _____ _____    ______ ____
ROOT
ATOM      1  C   UNL     1      37.718   4.493  15.573  0.00  0.00    +0.000 A 
ATOM      2  C   UNL     1      37.388   5.160  14.443  0.00  0.00    +0.000 A 
ATOM      3  S   UNL     1      37.645   6.838  14.938  0.00  0.00    +0.000 S 
ATOM      4  C   UNL     1      38.158   6.577  16.528  0.00  0.00    +0.000 A 
ATOM      5  C   UNL     1      38.123   5.229  16.660  0.00  0.00    +0.000 A 
ATOM      6  C   UNL     1      38.547   4.621  18.011  0.00  0.00    +0.000 C 
ATOM      7  C   UNL     1      39.589   5.564  18.568  0.00  0.00    +0.000 C 
ATOM      8  C   UNL     1      38.800   6.841  18.899  0.00  0.00    +0.000 C 
ATOM      9  C   UNL     1      38.579   7.541  17.621  0.00  0.00    +0.000 C 
ENDROOT
BRANCH   1  11
ATOM     10  N   UNL     1      36.113   2.525  15.872  0.00  0.00    +0.000 NA
ATOM     11  C   UNL     1      37.433   3.022  15.697  0.00  0.00    +0.000 C 
ATOM     12  O   UNL     1      38.343   2.198  15.651  0.00  0.00    +0.000 OA
BRANCH  10  16
ATOM     13  C   UNL     1      35.196  -1.568  16.338  0.00  0.00    +0.000 A 
ATOM     14  C   UNL     1      35.998  -1.166  15.307  0.00  0.00    +0.000 A 
ATOM     15  C   UNL     1      36.314   0.186  15.135  0.00  0.00    +0.000 A 
ATOM     16  C   UNL     1      35.831   1.142  15.992  0.00  0.00    +0.000 A 
ATOM     17  C   UNL     1      35.026   0.722  17.025  0.00  0.00    +0.000 A 
ATOM     18  C   UNL     1      34.707  -0.615  17.203  0.00  0.00    +0.000 A 
BRANCH  13  19
ATOM     19  O   UNL     1      34.863  -2.917  16.537  0.00  0.00    +0.000 OA
BRANCH  19  21
ATOM     20  C   UNL     1      33.466  -4.280  15.111  0.00  0.00    +0.000 C 
ATOM     21  C   UNL     1      34.878  -3.810  15.453  0.00  0.00    +0.000 C 
ENDBRANCH  19  21
ENDBRANCH  13  19
ENDBRANCH  10  16
ENDBRANCH   1  11
BRANCH   2  22
ATOM     22  N   UNL     1      37.123   4.875  13.097  0.00  0.00    +0.000 NA
ATOM     23  C   UNL     1      37.680   4.095  12.137  0.00  0.00    +0.000 C 
ATOM     24  O   UNL     1      38.704   3.428  12.338  0.00  0.00    +0.000 OA
BRANCH  23  25
ATOM     25  C   UNL     1      37.089   3.987  10.760  0.00  0.00    +0.000 A 
ATOM     26  C   UNL     1      37.212   2.793  10.101  0.00  0.00    +0.000 A 
ATOM     27  C   UNL     1      36.679   2.666   8.833  0.00  0.00    +0.000 A 
ATOM     28  C   UNL     1      36.029   3.719   8.224  0.00  0.00    +0.000 A 
ATOM     29  C   UNL     1      35.914   4.906   8.893  0.00  0.00    +0.000 A 
ATOM     30  C   UNL     1      36.452   5.029  10.168  0.00  0.00    +0.000 A 
ENDBRANCH  23  25
ENDBRANCH   2  22
TORSDOF 6
ENDMDL
MODEL 9
REMARK VINA RESULT:      -7.0     24.358     27.605
REMARK  Name = 
REMARK  6 active torsions:
REMARK  status: ('A' for Active; 'I' for Inactive)
REMARK    1  A    between atoms: C_2  and  O_3
REMARK    2  A    between atoms: O_3  and  C_4
REMARK    3  A    between atoms: C_7  and  N_8
REMARK    4  A    between atoms: C_9  and  C_11
REMARK    5  A    between atoms: C_12  and  N_13
REMARK    6  A    between atoms: C_14  and  C_16
REMARK                            x       y       z     vdW  Elec       q    Type
REMARK                         _______ _______ _______ _____ _____    ______ ____
ROOT
ATOM      1  C   UNL     1      37.882  -0.972  15.429  0.00  0.00    +0.000 A 
ATOM      2  C   UNL     1      38.827  -1.602  14.692  0.00  0.00    +0.000 A 
ATOM      3  S   UNL     1      39.515  -2.714  15.882  0.00  0.00    +0.000 S 
ATOM      4  C   UNL     1      38.557  -2.312  17.217  0.00  0.00    +0.000 A 
ATOM      5  C   UNL     1      37.737  -1.343  16.744  0.00  0.00    +0.000 A 
ATOM      6  C   UNL     1      36.700  -0.735  17.707  0.00  0.00    +0.000 C 
ATOM      7  C   UNL     1      36.337  -1.849  18.663  0.00  0.00    +0.000 C 
ATOM      8  C   UNL     1      37.616  -2.067  19.488  0.00  0.00    +0.000 C 
ATOM      9  C   UNL     1      38.536  -2.843  18.637  0.00  0.00    +0.000 C 
ENDROOT
BRANCH   1  11
ATOM     10  N   UNL     1      37.419   1.543  15.399  0.00  0.00    +0.000 NA
ATOM     11  C   UNL     1      37.178   0.240  14.884  0.00  0.00    +0.000 C 
ATOM     12  O   UNL     1      36.364   0.138  13.970  0.00  0.00    +0.000 OA
BRANCH  10  16
ATOM     13  C   UNL     1      35.571   4.999  13.835  0.00  0.00    +0.000 A 
ATOM     14  C   UNL     1      34.877   4.186  14.686  0.00  0.00    +0.000 A 
ATOM     15  C   UNL     1      35.472   3.035  15.216  0.00  0.00    +0.000 A 
ATOM     16  C   UNL     1      36.761   2.692  14.898  0.00  0.00    +0.000 A 
ATOM     17  C   UNL     1      37.447   3.521  14.040  0.00  0.00    +0.000 A 
ATOM     18  C   UNL     1      36.866   4.663  13.510  0.00  0.00    +0.000 A 
BRANCH  13  19
ATOM     19  O   UNL     1      35.002   6.160  13.289  0.00  0.00    +0.000 OA
BRANCH  19  21
ATOM     20  C   UNL     1      33.962   7.966  14.514  0.00  0.00    +0.000 C 
ATOM     21  C   UNL     1      33.777   6.639  13.782  0.00  0.00    +0.000 C 
ENDBRANCH  19  21
ENDBRANCH  13  19
ENDBRANCH  10  16
ENDBRANCH   1  11
BRANCH   2  22
ATOM     22  N   UNL     1      39.204  -1.716  13.348  0.00  0.00    +0.000 NA
ATOM     23  C   UNL     1      39.620  -0.866  12.376  0.00  0.00    +0.000 C 
ATOM     24  O   UNL     1      39.712   0.356  12.560  0.00  0.00    +0.000 OA
BRANCH  23  25
ATOM     25  C   UNL     1      40.000  -1.351  11.006  0.00  0.00    +0.000 A 
ATOM     26  C   UNL     1      40.068  -0.430   9.995  0.00  0.00    +0.000 A 
ATOM     27  C   UNL     1      40.414  -0.848   8.725  0.00  0.00    +0.000 A 
ATOM     28  C   UNL     1      40.690  -2.174   8.462  0.00  0.00    +0.000 A 
ATOM     29  C   UNL     1      40.618  -3.083   9.480  0.00  0.00    +0.000 A 
ATOM     30  C   UNL     1      40.269  -2.658  10.755  0.00  0.00    +0.000 A 
ENDBRANCH  23  25
ENDBRANCH   2  22
TORSDOF 6
ENDMDL
MODEL 10
REMARK VINA RESULT:      -6.9     24.620     27.473
REMARK  Name = 
REMARK  6 active torsions:
REMARK  status: ('A' for Active; 'I' for Inactive)
REMARK    1  A    between atoms: C_2  and  O_3
REMARK    2  A    between atoms: O_3  and  C_4
REMARK    3  A    between atoms: C_7  and  N_8
REMARK    4  A    between atoms: C_9  and  C_11
REMARK    5  A    between atoms: C_12  and  N_13
REMARK    6  A    between atoms: C_14  and  C_16
REMARK                            x       y       z     vdW  Elec       q    Type
REMARK                         _______ _______ _______ _____ _____    ______ ____
ROOT
ATOM      1  C   UNL     1      38.674  -0.364  12.358  0.00  0.00    +0.000 A 
ATOM      2  C   UNL     1      38.826  -1.316  13.308  0.00  0.00    +0.000 A 
ATOM      3  S   UNL     1      39.852  -2.486  12.470  0.00  0.00    +0.000 S 
ATOM      4  C   UNL     1      40.021  -1.688  10.989  0.00  0.00    +0.000 A 
ATOM      5  C   UNL     1      39.298  -0.554  11.150  0.00  0.00    +0.000 A 
ATOM      6  C   UNL     1      39.236   0.441   9.975  0.00  0.00    +0.000 C 
ATOM      7  C   UNL     1      40.559   0.298   9.256  0.00  0.00    +0.000 C 
ATOM      8  C   UNL     1      40.498  -1.107   8.635  0.00  0.00    +0.000 C 
ATOM      9  C   UNL     1      40.774  -2.059   9.725  0.00  0.00    +0.000 C 
ENDROOT
BRANCH   1  11
ATOM     10  N   UNL     1      37.918   1.831  13.431  0.00  0.00    +0.000 NA
ATOM     11  C   UNL     1      37.675   0.744  12.547  0.00  0.00    +0.000 C 
ATOM     12  O   UNL     1      36.608   0.742  11.939  0.00  0.00    +0.000 OA
BRANCH  10  16
ATOM     13  C   UNL     1      35.082   4.885  14.094  0.00  0.00    +0.000 A 
ATOM     14  C   UNL     1      36.046   5.050  13.138  0.00  0.00    +0.000 A 
ATOM     15  C   UNL     1      36.995   4.050  12.903  0.00  0.00    +0.000 A 
ATOM     16  C   UNL     1      36.986   2.880  13.620  0.00  0.00    +0.000 A 
ATOM     17  C   UNL     1      36.011   2.729  14.578  0.00  0.00    +0.000 A 
ATOM     18  C   UNL     1      35.066   3.715  14.818  0.00  0.00    +0.000 A 
BRANCH  13  19
ATOM     19  O   UNL     1      34.116   5.871  14.351  0.00  0.00    +0.000 OA
BRANCH  19  21
ATOM     20  C   UNL     1      34.134   8.265  14.017  0.00  0.00    +0.000 C 
ATOM     21  C   UNL     1      33.883   6.886  13.410  0.00  0.00    +0.000 C 
ENDBRANCH  19  21
ENDBRANCH  13  19
ENDBRANCH  10  16
ENDBRANCH   1  11
BRANCH   2  22
ATOM     22  N   UNL     1      38.573  -1.481  14.676  0.00  0.00    +0.000 NA
ATOM     23  C   UNL     1      37.485  -1.405  15.483  0.00  0.00    +0.000 C 
ATOM     24  O   UNL     1      36.366  -1.089  15.057  0.00  0.00    +0.000 OA
BRANCH  23  25
ATOM     25  C   UNL     1      37.565  -1.699  16.954  0.00  0.00    +0.000 A 
ATOM     26  C   UNL     1      36.705  -1.037  17.789  0.00  0.00    +0.000 A 
ATOM     27  C   UNL     1      36.757  -1.288  19.146  0.00  0.00    +0.000 A 
ATOM     28  C   UNL     1      37.659  -2.191  19.670  0.00  0.00    +0.000 A 
ATOM     29  C   UNL     1      38.512  -2.845  18.825  0.00  0.00    +0.000 A 
ATOM     30  C   UNL     1      38.456  -2.589  17.461  0.00  0.00    +0.000 A 
ENDBRANCH  23  25
ENDBRANCH   2  22
TORSDOF 6
ENDMDL
