MODEL 1
REMARK VINA RESULT:      -6.4      0.000      0.000
REMARK  Name = 
REMARK  4 active torsions:
REMARK  status: ('A' for Active; 'I' for Inactive)
REMARK    1  A    between atoms: O_2  and  C_3
REMARK    2  A    between atoms: C_5  and  C_6
REMARK    3  A    between atoms: C_15  and  N_16
REMARK    4  A    between atoms: C_20  and  O_21
REMARK                            x       y       z     vdW  Elec       q    Type
REMARK                         _______ _______ _______ _____ _____    ______ ____
ROOT
ATOM      1  C   UNL     1      32.182  21.713   7.833  0.00  0.00    +0.000 A 
ATOM      2  C   UNL     1      31.261  22.127   8.742  0.00  0.00    +0.000 A 
ATOM      3  C   UNL     1      31.250  21.687  10.087  0.00  0.00    +0.000 A 
ATOM      4  C   UNL     1      32.210  20.809  10.478  0.00  0.00    +0.000 A 
ATOM      5  C   UNL     1      33.174  20.374   9.530  0.00  0.00    +0.000 A 
ATOM      6  C   UNL     1      33.156  20.821   8.235  0.00  0.00    +0.000 A 
ENDROOT
BRANCH   3   7
ATOM      7  C   UNL     1      30.222  22.221  10.973  0.00  0.00    +0.000 A 
ATOM      8  N   UNL     1      30.294  23.054  11.997  0.00  0.00    +0.000 NA
ATOM      9  C   UNL     1      29.112  23.329  12.559  0.00  0.00    +0.000 A 
ATOM     10  C   UNL     1      28.705  24.121  13.621  0.00  0.00    +0.000 A 
ATOM     11  C   UNL     1      27.368  24.182  13.947  0.00  0.00    +0.000 A 
ATOM     12  C   UNL     1      26.428  23.469  13.235  0.00  0.00    +0.000 A 
ATOM     13  C   UNL     1      26.866  22.686  12.179  0.00  0.00    +0.000 A 
ATOM     14  C   UNL     1      28.198  22.605  11.829  0.00  0.00    +0.000 A 
ATOM     15  N   UNL     1      28.879  21.944  10.881  0.00  0.00    +0.000 NA
ENDBRANCH   3   7
BRANCH   4  16
ATOM     16  N   UNL     1      32.280  20.315  11.791  0.00  0.00    +0.000 N 
ATOM     17  O   UNL     1      31.460  19.683  12.444  0.00  0.00    +0.000 OA
ATOM     18  O   UNL     1      33.494  20.545  12.456  0.00  0.00    +0.000 OA
ENDBRANCH   4  16
BRANCH   1  20
ATOM     19  C   UNL     1      31.179  21.712   5.622  0.00  0.00    +0.000 C 
ATOM     20  O   UNL     1      32.134  22.184   6.534  0.00  0.00    +0.000 OA
ENDBRANCH   1  20
BRANCH   6  21
ATOM     21  O   UNL     1      34.089  20.408   7.294  0.00  0.00    +0.000 OA
ATOM     22  C   UNL     1      34.092  19.112   6.743  0.00  0.00    +0.000 C 
ENDBRANCH   6  21
TORSDOF 4
ENDMDL
MODEL 2
REMARK VINA RESULT:      -6.2     29.761     32.703
REMARK  Name = 
REMARK  4 active torsions:
REMARK  status: ('A' for Active; 'I' for Inactive)
REMARK    1  A    between atoms: O_2  and  C_3
REMARK    2  A    between atoms: C_5  and  C_6
REMARK    3  A    between atoms: C_15  and  N_16
REMARK    4  A    between atoms: C_20  and  O_21
REMARK                            x       y       z     vdW  Elec       q    Type
REMARK                         _______ _______ _______ _____ _____    ______ ____
ROOT
ATOM      1  C   UNL     1      14.859  12.234  35.561  0.00  0.00    +0.000 A 
ATOM      2  C   UNL     1      15.351  11.745  36.730  0.00  0.00    +0.000 A 
ATOM      3  C   UNL     1      16.445  10.850  36.795  0.00  0.00    +0.000 A 
ATOM      4  C   UNL     1      17.025  10.467  35.628  0.00  0.00    +0.000 A 
ATOM      5  C   UNL     1      16.514  10.977  34.404  0.00  0.00    +0.000 A 
ATOM      6  C   UNL     1      15.453  11.843  34.377  0.00  0.00    +0.000 A 
ENDROOT
BRANCH   3   7
ATOM      7  C   UNL     1      16.893  10.412  38.111  0.00  0.00    +0.000 A 
ATOM      8  N   UNL     1      18.104  10.290  38.629  0.00  0.00    +0.000 NA
ATOM      9  C   UNL     1      18.113   9.868  39.899  0.00  0.00    +0.000 A 
ATOM     10  C   UNL     1      19.110   9.603  40.824  0.00  0.00    +0.000 A 
ATOM     11  C   UNL     1      18.766   9.169  42.085  0.00  0.00    +0.000 A 
ATOM     12  C   UNL     1      17.446   8.996  42.442  0.00  0.00    +0.000 A 
ATOM     13  C   UNL     1      16.473   9.270  41.495  0.00  0.00    +0.000 A 
ATOM     14  C   UNL     1      16.787   9.705  40.225  0.00  0.00    +0.000 A 
ATOM     15  N   UNL     1      16.066  10.034  39.142  0.00  0.00    +0.000 NA
ENDBRANCH   3   7
BRANCH   4  16
ATOM     16  N   UNL     1      18.115   9.583  35.590  0.00  0.00    +0.000 N 
ATOM     17  O   UNL     1      19.309   9.789  35.766  0.00  0.00    +0.000 OA
ATOM     18  O   UNL     1      17.792   8.238  35.353  0.00  0.00    +0.000 OA
ENDBRANCH   4  16
BRANCH   1  20
ATOM     19  C   UNL     1      12.711  12.928  36.451  0.00  0.00    +0.000 C 
ATOM     20  O   UNL     1      13.787  13.106  35.571  0.00  0.00    +0.000 OA
ENDBRANCH   1  20
BRANCH   6  21
ATOM     21  O   UNL     1      14.940  12.352  33.193  0.00  0.00    +0.000 OA
ATOM     22  C   UNL     1      14.929  11.618  31.991  0.00  0.00    +0.000 C 
ENDBRANCH   6  21
TORSDOF 4
ENDMDL
MODEL 3
REMARK VINA RESULT:      -6.0     33.268     35.054
REMARK  Name = 
REMARK  4 active torsions:
REMARK  status: ('A' for Active; 'I' for Inactive)
REMARK    1  A    between atoms: O_2  and  C_3
REMARK    2  A    between atoms: C_5  and  C_6
REMARK    3  A    between atoms: C_15  and  N_16
REMARK    4  A    between atoms: C_20  and  O_21
REMARK                            x       y       z     vdW  Elec       q    Type
REMARK                         _______ _______ _______ _____ _____    ______ ____
ROOT
ATOM      1  C   UNL     1      33.457  -1.630  34.084  0.00  0.00    +0.000 A 
ATOM      2  C   UNL     1      33.756  -2.588  33.167  0.00  0.00    +0.000 A 
ATOM      3  C   UNL     1      33.267  -3.914  33.245  0.00  0.00    +0.000 A 
ATOM      4  C   UNL     1      32.462  -4.235  34.291  0.00  0.00    +0.000 A 
ATOM      5  C   UNL     1      32.146  -3.236  35.250  0.00  0.00    +0.000 A 
ATOM      6  C   UNL     1      32.636  -1.961  35.144  0.00  0.00    +0.000 A 
ENDROOT
BRANCH   3   7
ATOM      7  C   UNL     1      33.644  -4.845  32.188  0.00  0.00    +0.000 A 
ATOM      8  N   UNL     1      34.390  -5.936  32.207  0.00  0.00    +0.000 NA
ATOM      9  C   UNL     1      34.492  -6.547  31.021  0.00  0.00    +0.000 A 
ATOM     10  C   UNL     1      35.144  -7.683  30.569  0.00  0.00    +0.000 A 
ATOM     11  C   UNL     1      35.038  -8.042  29.243  0.00  0.00    +0.000 A 
ATOM     12  C   UNL     1      34.295  -7.291  28.360  0.00  0.00    +0.000 A 
ATOM     13  C   UNL     1      33.654  -6.161  28.842  0.00  0.00    +0.000 A 
ATOM     14  C   UNL     1      33.741  -5.776  30.163  0.00  0.00    +0.000 A 
ATOM     15  N   UNL     1      33.239  -4.757  30.878  0.00  0.00    +0.000 NA
ENDBRANCH   3   7
BRANCH   4  16
ATOM     16  N   UNL     1      31.929  -5.524  34.454  0.00  0.00    +0.000 N 
ATOM     17  O   UNL     1      30.935  -6.038  33.958  0.00  0.00    +0.000 OA
ATOM     18  O   UNL     1      32.666  -6.380  35.287  0.00  0.00    +0.000 OA
ENDBRANCH   4  16
BRANCH   1  20
ATOM     19  C   UNL     1      34.292   0.169  32.687  0.00  0.00    +0.000 C 
ATOM     20  O   UNL     1      33.969  -0.354  33.946  0.00  0.00    +0.000 OA
ENDBRANCH   1  20
BRANCH   6  21
ATOM     21  O   UNL     1      32.339  -0.972  36.070  0.00  0.00    +0.000 OA
ATOM     22  C   UNL     1      33.070  -0.802  37.263  0.00  0.00    +0.000 C 
ENDBRANCH   6  21
TORSDOF 4
ENDMDL
MODEL 4
REMARK VINA RESULT:      -5.9     16.407     19.334
REMARK  Name = 
REMARK  4 active torsions:
REMARK  status: ('A' for Active; 'I' for Inactive)
REMARK    1  A    between atoms: O_2  and  C_3
REMARK    2  A    between atoms: C_5  and  C_6
REMARK    3  A    between atoms: C_15  and  N_16
REMARK    4  A    between atoms: C_20  and  O_21
REMARK                            x       y       z     vdW  Elec       q    Type
REMARK                         _______ _______ _______ _____ _____    ______ ____
ROOT
ATOM      1  C   UNL     1      30.815  22.560  30.149  0.00  0.00    +0.000 A 
ATOM      2  C   UNL     1      29.984  22.907  29.131  0.00  0.00    +0.000 A 
ATOM      3  C   UNL     1      28.574  22.924  29.254  0.00  0.00    +0.000 A 
ATOM      4  C   UNL     1      28.035  22.576  30.451  0.00  0.00    +0.000 A 
ATOM      5  C   UNL     1      28.900  22.214  31.518  0.00  0.00    +0.000 A 
ATOM      6  C   UNL     1      30.262  22.208  31.364  0.00  0.00    +0.000 A 
ENDROOT
BRANCH   3   7
ATOM      7  C   UNL     1      27.791  23.334  28.094  0.00  0.00    +0.000 A 
ATOM      8  N   UNL     1      27.279  24.505  27.753  0.00  0.00    +0.000 NA
ATOM      9  C   UNL     1      26.628  24.494  26.584  0.00  0.00    +0.000 A 
ATOM     10  C   UNL     1      25.952  25.449  25.843  0.00  0.00    +0.000 A 
ATOM     11  C   UNL     1      25.377  25.094  24.642  0.00  0.00    +0.000 A 
ATOM     12  C   UNL     1      25.464  23.804  24.166  0.00  0.00    +0.000 A 
ATOM     13  C   UNL     1      26.147  22.871  24.930  0.00  0.00    +0.000 A 
ATOM     14  C   UNL     1      26.733  23.197  26.135  0.00  0.00    +0.000 A 
ATOM     15  N   UNL     1      27.432  22.513  27.053  0.00  0.00    +0.000 NA
ENDBRANCH   3   7
BRANCH   4  16
ATOM     16  N   UNL     1      26.648  22.562  30.670  0.00  0.00    +0.000 N 
ATOM     17  O   UNL     1      25.860  21.626  30.696  0.00  0.00    +0.000 OA
ATOM     18  O   UNL     1      26.068  23.811  30.941  0.00  0.00    +0.000 OA
ENDBRANCH   4  16
BRANCH   1  20
ATOM     19  C   UNL     1      32.841  21.481  29.361  0.00  0.00    +0.000 C 
ATOM     20  O   UNL     1      32.184  22.565  29.959  0.00  0.00    +0.000 OA
ENDBRANCH   1  20
BRANCH   6  21
ATOM     21  O   UNL     1      31.124  21.858  32.394  0.00  0.00    +0.000 OA
ATOM     22  C   UNL     1      30.675  21.280  33.598  0.00  0.00    +0.000 C 
ENDBRANCH   6  21
TORSDOF 4
ENDMDL
MODEL 5
REMARK VINA RESULT:      -5.8     30.116     32.279
REMARK  Name = 
REMARK  4 active torsions:
REMARK  status: ('A' for Active; 'I' for Inactive)
REMARK    1  A    between atoms: O_2  and  C_3
REMARK    2  A    between atoms: C_5  and  C_6
REMARK    3  A    between atoms: C_15  and  N_16
REMARK    4  A    between atoms: C_20  and  O_21
REMARK                            x       y       z     vdW  Elec       q    Type
REMARK                         _______ _______ _______ _____ _____    ______ ____
ROOT
ATOM      1  C   UNL     1      16.476  11.191  36.699  0.00  0.00    +0.000 A 
ATOM      2  C   UNL     1      17.833  11.155  36.631  0.00  0.00    +0.000 A 
ATOM      3  C   UNL     1      18.645  10.634  37.667  0.00  0.00    +0.000 A 
ATOM      4  C   UNL     1      18.030  10.150  38.777  0.00  0.00    +0.000 A 
ATOM      5  C   UNL     1      16.612  10.184  38.850  0.00  0.00    +0.000 A 
ATOM      6  C   UNL     1      15.855  10.695  37.828  0.00  0.00    +0.000 A 
ENDROOT
BRANCH   3   7
ATOM      7  C   UNL     1      20.090  10.633  37.468  0.00  0.00    +0.000 A 
ATOM      8  N   UNL     1      21.038  11.431  37.928  0.00  0.00    +0.000 NA
ATOM      9  C   UNL     1      22.272  11.094  37.535  0.00  0.00    +0.000 A 
ATOM     10  C   UNL     1      23.536  11.616  37.758  0.00  0.00    +0.000 A 
ATOM     11  C   UNL     1      24.631  11.006  37.186  0.00  0.00    +0.000 A 
ATOM     12  C   UNL     1      24.489   9.886  36.396  0.00  0.00    +0.000 A 
ATOM     13  C   UNL     1      23.213   9.388  36.192  0.00  0.00    +0.000 A 
ATOM     14  C   UNL     1      22.098   9.976  36.751  0.00  0.00    +0.000 A 
ATOM     15  N   UNL     1      20.783   9.712  36.719  0.00  0.00    +0.000 NA
ENDBRANCH   3   7
BRANCH   4  16
ATOM     16  N   UNL     1      18.750   9.614  39.856  0.00  0.00    +0.000 N 
ATOM     17  O   UNL     1      19.196  10.158  40.858  0.00  0.00    +0.000 OA
ATOM     18  O   UNL     1      18.966   8.228  39.808  0.00  0.00    +0.000 OA
ENDBRANCH   4  16
BRANCH   1  20
ATOM     19  C   UNL     1      15.196  13.002  35.713  0.00  0.00    +0.000 C 
ATOM     20  O   UNL     1      15.744  11.714  35.649  0.00  0.00    +0.000 OA
ENDBRANCH   1  20
BRANCH   6  21
ATOM     21  O   UNL     1      14.469  10.738  37.880  0.00  0.00    +0.000 OA
ATOM     22  C   UNL     1      13.757  10.875  39.088  0.00  0.00    +0.000 C 
ENDBRANCH   6  21
TORSDOF 4
ENDMDL
MODEL 6
REMARK VINA RESULT:      -5.7     13.293     16.269
REMARK  Name = 
REMARK  4 active torsions:
REMARK  status: ('A' for Active; 'I' for Inactive)
REMARK    1  A    between atoms: O_2  and  C_3
REMARK    2  A    between atoms: C_5  and  C_6
REMARK    3  A    between atoms: C_15  and  N_16
REMARK    4  A    between atoms: C_20  and  O_21
REMARK                            x       y       z     vdW  Elec       q    Type
REMARK                         _______ _______ _______ _____ _____    ______ ____
ROOT
ATOM      1  C   UNL     1      27.989  23.336  23.728  0.00  0.00    +0.000 A 
ATOM      2  C   UNL     1      28.517  22.992  24.932  0.00  0.00    +0.000 A 
ATOM      3  C   UNL     1      29.798  23.411  25.363  0.00  0.00    +0.000 A 
ATOM      4  C   UNL     1      30.527  24.194  24.526  0.00  0.00    +0.000 A 
ATOM      5  C   UNL     1      29.978  24.556  23.267  0.00  0.00    +0.000 A 
ATOM      6  C   UNL     1      28.733  24.133  22.881  0.00  0.00    +0.000 A 
ENDROOT
BRANCH   3   7
ATOM      7  C   UNL     1      30.246  22.993  26.686  0.00  0.00    +0.000 A 
ATOM      8  N   UNL     1      31.307  22.307  27.075  0.00  0.00    +0.000 NA
ATOM      9  C   UNL     1      31.388  22.135  28.400  0.00  0.00    +0.000 A 
ATOM     10  C   UNL     1      32.291  21.505  29.241  0.00  0.00    +0.000 A 
ATOM     11  C   UNL     1      32.069  21.513  30.601  0.00  0.00    +0.000 A 
ATOM     12  C   UNL     1      30.964  22.137  31.138  0.00  0.00    +0.000 A 
ATOM     13  C   UNL     1      30.080  22.758  30.270  0.00  0.00    +0.000 A 
ATOM     14  C   UNL     1      30.276  22.767  28.905  0.00  0.00    +0.000 A 
ATOM     15  N   UNL     1      29.599  23.276  27.865  0.00  0.00    +0.000 NA
ENDBRANCH   3   7
BRANCH   4  16
ATOM     16  N   UNL     1      31.808  24.659  24.864  0.00  0.00    +0.000 N 
ATOM     17  O   UNL     1      32.150  25.653  25.492  0.00  0.00    +0.000 OA
ATOM     18  O   UNL     1      32.874  23.841  24.456  0.00  0.00    +0.000 OA
ENDBRANCH   4  16
BRANCH   1  20
ATOM     19  C   UNL     1      25.580  23.358  24.022  0.00  0.00    +0.000 C 
ATOM     20  O   UNL     1      26.730  22.891  23.371  0.00  0.00    +0.000 OA
ENDBRANCH   1  20
BRANCH   6  21
ATOM     21  O   UNL     1      28.179  24.476  21.656  0.00  0.00    +0.000 OA
ATOM     22  C   UNL     1      27.571  25.724  21.419  0.00  0.00    +0.000 C 
ENDBRANCH   6  21
TORSDOF 4
ENDMDL
MODEL 7
REMARK VINA RESULT:      -5.7     35.497     36.826
REMARK  Name = 
REMARK  4 active torsions:
REMARK  status: ('A' for Active; 'I' for Inactive)
REMARK    1  A    between atoms: O_2  and  C_3
REMARK    2  A    between atoms: C_5  and  C_6
REMARK    3  A    between atoms: C_15  and  N_16
REMARK    4  A    between atoms: C_20  and  O_21
REMARK                            x       y       z     vdW  Elec       q    Type
REMARK                         _______ _______ _______ _____ _____    ______ ____
ROOT
ATOM      1  C   UNL     1      21.730  -8.655  25.557  0.00  0.00    +0.000 A 
ATOM      2  C   UNL     1      20.798  -9.152  26.411  0.00  0.00    +0.000 A 
ATOM      3  C   UNL     1      19.628  -8.443  26.777  0.00  0.00    +0.000 A 
ATOM      4  C   UNL     1      19.438  -7.209  26.243  0.00  0.00    +0.000 A 
ATOM      5  C   UNL     1      20.410  -6.687  25.349  0.00  0.00    +0.000 A 
ATOM      6  C   UNL     1      21.532  -7.400  25.015  0.00  0.00    +0.000 A 
ENDROOT
BRANCH   3   7
ATOM      7  C   UNL     1      18.692  -9.092  27.687  0.00  0.00    +0.000 A 
ATOM      8  N   UNL     1      17.687  -9.922  27.465  0.00  0.00    +0.000 NA
ATOM      9  C   UNL     1      17.060 -10.328  28.575  0.00  0.00    +0.000 A 
ATOM     10  C   UNL     1      15.989 -11.169  28.831  0.00  0.00    +0.000 A 
ATOM     11  C   UNL     1      15.585 -11.376  30.132  0.00  0.00    +0.000 A 
ATOM     12  C   UNL     1      16.230 -10.761  31.183  0.00  0.00    +0.000 A 
ATOM     13  C   UNL     1      17.297  -9.926  30.895  0.00  0.00    +0.000 A 
ATOM     14  C   UNL     1      17.724  -9.699  29.603  0.00  0.00    +0.000 A 
ATOM     15  N   UNL     1      18.700  -8.960  29.055  0.00  0.00    +0.000 NA
ENDBRANCH   3   7
BRANCH   4  16
ATOM     16  N   UNL     1      18.310  -6.430  26.546  0.00  0.00    +0.000 N 
ATOM     17  O   UNL     1      18.217  -5.377  27.164  0.00  0.00    +0.000 OA
ATOM     18  O   UNL     1      17.094  -6.904  26.030  0.00  0.00    +0.000 OA
ENDBRANCH   4  16
BRANCH   1  20
ATOM     19  C   UNL     1      23.340 -10.383  26.115  0.00  0.00    +0.000 C 
ATOM     20  O   UNL     1      22.850  -9.402  25.243  0.00  0.00    +0.000 OA
ENDBRANCH   1  20
BRANCH   6  21
ATOM     21  O   UNL     1      22.493  -6.908  24.144  0.00  0.00    +0.000 OA
ATOM     22  C   UNL     1      23.648  -6.235  24.587  0.00  0.00    +0.000 C 
ENDBRANCH   6  21
TORSDOF 4
ENDMDL
MODEL 8
REMARK VINA RESULT:      -5.7     30.152     31.731
REMARK  Name = 
REMARK  4 active torsions:
REMARK  status: ('A' for Active; 'I' for Inactive)
REMARK    1  A    between atoms: O_2  and  C_3
REMARK    2  A    between atoms: C_5  and  C_6
REMARK    3  A    between atoms: C_15  and  N_16
REMARK    4  A    between atoms: C_20  and  O_21
REMARK                            x       y       z     vdW  Elec       q    Type
REMARK                         _______ _______ _______ _____ _____    ______ ____
ROOT
ATOM      1  C   UNL     1      33.926   0.653  36.686  0.00  0.00    +0.000 A 
ATOM      2  C   UNL     1      34.182   1.987  36.712  0.00  0.00    +0.000 A 
ATOM      3  C   UNL     1      34.049   2.823  35.578  0.00  0.00    +0.000 A 
ATOM      4  C   UNL     1      33.648   2.255  34.411  0.00  0.00    +0.000 A 
ATOM      5  C   UNL     1      33.379   0.861  34.380  0.00  0.00    +0.000 A 
ATOM      6  C   UNL     1      33.517   0.080  35.498  0.00  0.00    +0.000 A 
ENDROOT
BRANCH   3   7
ATOM      7  C   UNL     1      34.333   4.244  35.739  0.00  0.00    +0.000 A 
ATOM      8  N   UNL     1      33.725   5.185  36.441  0.00  0.00    +0.000 NA
ATOM      9  C   UNL     1      34.301   6.389  36.352  0.00  0.00    +0.000 A 
ATOM     10  C   UNL     1      34.029   7.635  36.894  0.00  0.00    +0.000 A 
ATOM     11  C   UNL     1      34.849   8.700  36.589  0.00  0.00    +0.000 A 
ATOM     12  C   UNL     1      35.935   8.546  35.754  0.00  0.00    +0.000 A 
ATOM     13  C   UNL     1      36.180   7.287  35.229  0.00  0.00    +0.000 A 
ATOM     14  C   UNL     1      35.378   6.203  35.516  0.00  0.00    +0.000 A 
ATOM     15  N   UNL     1      35.384   4.911  35.155  0.00  0.00    +0.000 NA
ENDBRANCH   3   7
BRANCH   4  16
ATOM     16  N   UNL     1      33.488   3.002  33.233  0.00  0.00    +0.000 N 
ATOM     17  O   UNL     1      33.930   2.809  32.108  0.00  0.00    +0.000 OA
ATOM     18  O   UNL     1      32.662   4.130  33.342  0.00  0.00    +0.000 OA
ENDBRANCH   4  16
BRANCH   1  20
ATOM     19  C   UNL     1      33.203   0.038  38.919  0.00  0.00    +0.000 C 
ATOM     20  O   UNL     1      34.076  -0.104  37.832  0.00  0.00    +0.000 OA
ENDBRANCH   1  20
BRANCH   6  21
ATOM     21  O   UNL     1      33.259  -1.283  35.488  0.00  0.00    +0.000 OA
ATOM     22  C   UNL     1      32.858  -1.973  34.327  0.00  0.00    +0.000 C 
ENDBRANCH   6  21
TORSDOF 4
ENDMDL
MODEL 9
REMARK VINA RESULT:      -5.6     34.703     36.062
REMARK  Name = 
REMARK  4 active torsions:
REMARK  status: ('A' for Active; 'I' for Inactive)
REMARK    1  A    between atoms: O_2  and  C_3
REMARK    2  A    between atoms: C_5  and  C_6
REMARK    3  A    between atoms: C_15  and  N_16
REMARK    4  A    between atoms: C_20  and  O_21
REMARK                            x       y       z     vdW  Elec       q    Type
REMARK                         _______ _______ _______ _____ _____    ______ ____
ROOT
ATOM      1  C   UNL     1      20.904  -8.638  24.856  0.00  0.00    +0.000 A 
ATOM      2  C   UNL     1      19.591  -8.954  25.003  0.00  0.00    +0.000 A 
ATOM      3  C   UNL     1      18.642  -8.072  25.575  0.00  0.00    +0.000 A 
ATOM      4  C   UNL     1      19.076  -6.855  25.993  0.00  0.00    +0.000 A 
ATOM      5  C   UNL     1      20.448  -6.521  25.840  0.00  0.00    +0.000 A 
ATOM      6  C   UNL     1      21.340  -7.399  25.281  0.00  0.00    +0.000 A 
ENDROOT
BRANCH   3   7
ATOM      7  C   UNL     1      17.257  -8.519  25.660  0.00  0.00    +0.000 A 
ATOM      8  N   UNL     1      16.190  -8.205  24.945  0.00  0.00    +0.000 NA
ATOM      9  C   UNL     1      15.077  -8.848  25.317  0.00  0.00    +0.000 A 
ATOM     10  C   UNL     1      13.763  -8.845  24.876  0.00  0.00    +0.000 A 
ATOM     11  C   UNL     1      12.837  -9.652  25.500  0.00  0.00    +0.000 A 
ATOM     12  C   UNL     1      13.196 -10.463  26.555  0.00  0.00    +0.000 A 
ATOM     13  C   UNL     1      14.518 -10.444  26.971  0.00  0.00    +0.000 A 
ATOM     14  C   UNL     1      15.467  -9.647  26.367  0.00  0.00    +0.000 A 
ATOM     15  N   UNL     1      16.777  -9.438  26.562  0.00  0.00    +0.000 NA
ENDBRANCH   3   7
BRANCH   4  16
ATOM     16  N   UNL     1      18.211  -5.913  26.573  0.00  0.00    +0.000 N 
ATOM     17  O   UNL     1      17.225  -6.074  27.282  0.00  0.00    +0.000 OA
ATOM     18  O   UNL     1      18.541  -4.569  26.343  0.00  0.00    +0.000 OA
ENDBRANCH   4  16
BRANCH   1  20
ATOM     19  C   UNL     1      21.873  -9.695  22.898  0.00  0.00    +0.000 C 
ATOM     20  O   UNL     1      21.776  -9.548  24.288  0.00  0.00    +0.000 OA
ENDBRANCH   1  20
BRANCH   6  21
ATOM     21  O   UNL     1      22.683  -7.091  25.123  0.00  0.00    +0.000 OA
ATOM     22  C   UNL     1      23.160  -6.283  24.072  0.00  0.00    +0.000 C 
ENDBRANCH   6  21
TORSDOF 4
ENDMDL
MODEL 10
REMARK VINA RESULT:      -5.5     14.758     18.850
REMARK  Name = 
REMARK  4 active torsions:
REMARK  status: ('A' for Active; 'I' for Inactive)
REMARK    1  A    between atoms: O_2  and  C_3
REMARK    2  A    between atoms: C_5  and  C_6
REMARK    3  A    between atoms: C_15  and  N_16
REMARK    4  A    between atoms: C_20  and  O_21
REMARK                            x       y       z     vdW  Elec       q    Type
REMARK                         _______ _______ _______ _____ _____    ______ ____
ROOT
ATOM      1  C   UNL     1      25.904  24.042  29.898  0.00  0.00    +0.000 A 
ATOM      2  C   UNL     1      26.321  23.903  28.612  0.00  0.00    +0.000 A 
ATOM      3  C   UNL     1      26.198  24.928  27.643  0.00  0.00    +0.000 A 
ATOM      4  C   UNL     1      25.635  26.103  28.028  0.00  0.00    +0.000 A 
ATOM      5  C   UNL     1      25.199  26.252  29.372  0.00  0.00    +0.000 A 
ATOM      6  C   UNL     1      25.334  25.239  30.284  0.00  0.00    +0.000 A 
ENDROOT
BRANCH   3   7
ATOM      7  C   UNL     1      26.701  24.665  26.301  0.00  0.00    +0.000 A 
ATOM      8  N   UNL     1      26.085  24.290  25.192  0.00  0.00    +0.000 NA
ATOM      9  C   UNL     1      26.895  24.167  24.135  0.00  0.00    +0.000 A 
ATOM     10  C   UNL     1      26.709  23.811  22.808  0.00  0.00    +0.000 A 
ATOM     11  C   UNL     1      27.791  23.785  21.956  0.00  0.00    +0.000 A 
ATOM     12  C   UNL     1      29.055  24.107  22.400  0.00  0.00    +0.000 A 
ATOM     13  C   UNL     1      29.209  24.459  23.731  0.00  0.00    +0.000 A 
ATOM     14  C   UNL     1      28.145  24.494  24.609  0.00  0.00    +0.000 A 
ATOM     15  N   UNL     1      28.013  24.790  25.910  0.00  0.00    +0.000 NA
ENDBRANCH   3   7
BRANCH   4  16
ATOM     16  N   UNL     1      25.469  27.178  27.140  0.00  0.00    +0.000 N 
ATOM     17  O   UNL     1      24.525  27.470  26.418  0.00  0.00    +0.000 OA
ATOM     18  O   UNL     1      26.534  28.091  27.093  0.00  0.00    +0.000 OA
ENDBRANCH   4  16
BRANCH   1  20
ATOM     19  C   UNL     1      26.431  21.719  30.361  0.00  0.00    +0.000 C 
ATOM     20  O   UNL     1      26.056  22.998  30.792  0.00  0.00    +0.000 OA
ENDBRANCH   1  20
BRANCH   6  21
ATOM     21  O   UNL     1      24.915  25.364  31.601  0.00  0.00    +0.000 OA
ATOM     22  C   UNL     1      24.112  26.433  32.045  0.00  0.00    +0.000 C 
ENDBRANCH   6  21
TORSDOF 4
ENDMDL
