MODEL 1
REMARK VINA RESULT:      -6.7      0.000      0.000
REMARK  Name = 
REMARK  1 active torsions:
REMARK  status: ('A' for Active; 'I' for Inactive)
REMARK    1  A    between atoms: C_7  and  C_8
REMARK                            x       y       z     vdW  Elec       q    Type
REMARK                         _______ _______ _______ _____ _____    ______ ____
ROOT
ATOM      1  C   UNL     1      21.372  -7.901  25.236  0.00  0.00    +0.000 C 
ATOM      2  N   UNL     1      22.526  -8.123  25.659  0.00  0.00    +0.000 NA
ATOM      3  N   UNL     1      23.446  -8.743  24.905  0.00  0.00    +0.000 NA
ATOM      4  C   UNL     1      23.161  -8.902  23.524  0.00  0.00    +0.000 C 
ATOM      5  C   UNL     1      23.764  -7.807  22.671  0.00  0.00    +0.000 C 
ATOM      6  C   UNL     1      24.632  -6.936  23.552  0.00  0.00    +0.000 C 
ATOM      7  C   UNL     1      26.076  -7.180  23.110  0.00  0.00    +0.000 C 
ATOM      8  C   UNL     1      26.276  -8.675  23.033  0.00  0.00    +0.000 C 
ATOM      9  C   UNL     1      25.454  -9.312  21.934  0.00  0.00    +0.000 C 
ATOM     10  C   UNL     1      24.784 -10.539  22.533  0.00  0.00    +0.000 C 
ATOM     11  C   UNL     1      23.386 -10.270  22.986  0.00  0.00    +0.000 C 
ATOM     12  S   UNL     1      21.352  -8.571  23.573  0.00  0.00    +0.000 S 
ENDROOT
BRANCH   1  19
ATOM     13  O   UNL     1      19.484  -9.363  26.652  0.00  0.00    +0.000 OA
ATOM     14  C   UNL     1      19.290  -7.987  26.561  0.00  0.00    +0.000 A 
ATOM     15  C   UNL     1      18.187  -7.428  27.168  0.00  0.00    +0.000 A 
ATOM     16  C   UNL     1      17.968  -6.073  27.095  0.00  0.00    +0.000 A 
ATOM     17  C   UNL     1      18.893  -5.329  26.396  0.00  0.00    +0.000 A 
ATOM     18  C   UNL     1      19.996  -5.895  25.791  0.00  0.00    +0.000 A 
ATOM     19  C   UNL     1      20.218  -7.253  25.862  0.00  0.00    +0.000 A 
ENDBRANCH   1  19
TORSDOF 1
ENDMDL
MODEL 2
REMARK VINA RESULT:      -6.3     32.971     34.403
REMARK  Name = 
REMARK  1 active torsions:
REMARK  status: ('A' for Active; 'I' for Inactive)
REMARK    1  A    between atoms: C_7  and  C_8
REMARK                            x       y       z     vdW  Elec       q    Type
REMARK                         _______ _______ _______ _____ _____    ______ ____
ROOT
ATOM      1  C   UNL     1      28.835  26.220  22.656  0.00  0.00    +0.000 C 
ATOM      2  N   UNL     1      29.373  26.175  23.783  0.00  0.00    +0.000 NA
ATOM      3  N   UNL     1      28.874  25.419  24.772  0.00  0.00    +0.000 NA
ATOM      4  C   UNL     1      27.878  24.467  24.430  0.00  0.00    +0.000 C 
ATOM      5  C   UNL     1      28.446  23.086  24.184  0.00  0.00    +0.000 C 
ATOM      6  C   UNL     1      29.917  23.104  24.531  0.00  0.00    +0.000 C 
ATOM      7  C   UNL     1      30.077  22.238  25.781  0.00  0.00    +0.000 C 
ATOM      8  C   UNL     1      29.026  22.680  26.771  0.00  0.00    +0.000 C 
ATOM      9  C   UNL     1      27.622  22.372  26.299  0.00  0.00    +0.000 C 
ATOM     10  C   UNL     1      26.790  23.625  26.527  0.00  0.00    +0.000 C 
ATOM     11  C   UNL     1      26.674  24.472  25.303  0.00  0.00    +0.000 C 
ATOM     12  S   UNL     1      27.417  25.130  22.776  0.00  0.00    +0.000 S 
ENDROOT
BRANCH   1  19
ATOM     13  O   UNL     1      29.760  24.915  20.387  0.00  0.00    +0.000 OA
ATOM     14  C   UNL     1      29.646  26.302  20.325  0.00  0.00    +0.000 A 
ATOM     15  C   UNL     1      29.992  26.947  19.159  0.00  0.00    +0.000 A 
ATOM     16  C   UNL     1      29.891  28.316  19.067  0.00  0.00    +0.000 A 
ATOM     17  C   UNL     1      29.434  28.982  20.183  0.00  0.00    +0.000 A 
ATOM     18  C   UNL     1      29.087  28.330  21.347  0.00  0.00    +0.000 A 
ATOM     19  C   UNL     1      29.189  26.958  21.443  0.00  0.00    +0.000 A 
ENDBRANCH   1  19
TORSDOF 1
ENDMDL
MODEL 3
REMARK VINA RESULT:      -6.1     16.083     17.452
REMARK  Name = 
REMARK  1 active torsions:
REMARK  status: ('A' for Active; 'I' for Inactive)
REMARK    1  A    between atoms: C_7  and  C_8
REMARK                            x       y       z     vdW  Elec       q    Type
REMARK                         _______ _______ _______ _____ _____    ______ ____
ROOT
ATOM      1  C   UNL     1      33.824  -0.151  34.988  0.00  0.00    +0.000 C 
ATOM      2  N   UNL     1      34.734  -0.992  34.822  0.00  0.00    +0.000 NA
ATOM      3  N   UNL     1      34.575  -2.277  35.169  0.00  0.00    +0.000 NA
ATOM      4  C   UNL     1      33.261  -2.715  35.481  0.00  0.00    +0.000 C 
ATOM      5  C   UNL     1      32.559  -3.350  34.301  0.00  0.00    +0.000 C 
ATOM      6  C   UNL     1      33.546  -3.464  33.160  0.00  0.00    +0.000 C 
ATOM      7  C   UNL     1      33.818  -4.958  32.972  0.00  0.00    +0.000 C 
ATOM      8  C   UNL     1      34.115  -5.535  34.335  0.00  0.00    +0.000 C 
ATOM      9  C   UNL     1      32.911  -5.504  35.251  0.00  0.00    +0.000 C 
ATOM     10  C   UNL     1      33.384  -4.961  36.591  0.00  0.00    +0.000 C 
ATOM     11  C   UNL     1      33.138  -3.496  36.741  0.00  0.00    +0.000 C 
ATOM     12  S   UNL     1      32.471  -1.071  35.719  0.00  0.00    +0.000 S 
ENDROOT
BRANCH   1  19
ATOM     13  O   UNL     1      34.315   1.751  36.950  0.00  0.00    +0.000 OA
ATOM     14  C   UNL     1      34.009   2.215  35.673  0.00  0.00    +0.000 A 
ATOM     15  C   UNL     1      33.966   3.573  35.450  0.00  0.00    +0.000 A 
ATOM     16  C   UNL     1      33.666   4.061  34.199  0.00  0.00    +0.000 A 
ATOM     17  C   UNL     1      33.419   3.133  33.211  0.00  0.00    +0.000 A 
ATOM     18  C   UNL     1      33.465   1.774  33.442  0.00  0.00    +0.000 A 
ATOM     19  C   UNL     1      33.764   1.282  34.694  0.00  0.00    +0.000 A 
ENDBRANCH   1  19
TORSDOF 1
ENDMDL
MODEL 4
REMARK VINA RESULT:      -6.0     32.673     34.100
REMARK  Name = 
REMARK  1 active torsions:
REMARK  status: ('A' for Active; 'I' for Inactive)
REMARK    1  A    between atoms: C_7  and  C_8
REMARK                            x       y       z     vdW  Elec       q    Type
REMARK                         _______ _______ _______ _____ _____    ______ ____
ROOT
ATOM      1  C   UNL     1      29.288  25.254  23.290  0.00  0.00    +0.000 C 
ATOM      2  N   UNL     1      28.422  24.418  23.625  0.00  0.00    +0.000 NA
ATOM      3  N   UNL     1      28.615  23.578  24.652  0.00  0.00    +0.000 NA
ATOM      4  C   UNL     1      29.711  23.839  25.516  0.00  0.00    +0.000 C 
ATOM      5  C   UNL     1      29.314  24.632  26.742  0.00  0.00    +0.000 C 
ATOM      6  C   UNL     1      27.810  24.779  26.752  0.00  0.00    +0.000 C 
ATOM      7  C   UNL     1      27.300  23.942  27.927  0.00  0.00    +0.000 C 
ATOM      8  C   UNL     1      27.961  22.587  27.832  0.00  0.00    +0.000 C 
ATOM      9  C   UNL     1      29.455  22.656  28.063  0.00  0.00    +0.000 C 
ATOM     10  C   UNL     1      30.113  21.832  26.966  0.00  0.00    +0.000 C 
ATOM     11  C   UNL     1      30.574  22.666  25.815  0.00  0.00    +0.000 C 
ATOM     12  S   UNL     1      30.642  25.003  24.438  0.00  0.00    +0.000 S 
ENDROOT
BRANCH   1  19
ATOM     13  O   UNL     1      29.736  24.545  20.643  0.00  0.00    +0.000 OA
ATOM     14  C   UNL     1      29.527  25.895  20.917  0.00  0.00    +0.000 A 
ATOM     15  C   UNL     1      29.553  26.797  19.877  0.00  0.00    +0.000 A 
ATOM     16  C   UNL     1      29.351  28.137  20.116  0.00  0.00    +0.000 A 
ATOM     17  C   UNL     1      29.127  28.509  21.423  0.00  0.00    +0.000 A 
ATOM     18  C   UNL     1      29.102  27.600  22.460  0.00  0.00    +0.000 A 
ATOM     19  C   UNL     1      29.305  26.257  22.224  0.00  0.00    +0.000 A 
ENDBRANCH   1  19
TORSDOF 1
ENDMDL
MODEL 5
REMARK VINA RESULT:      -6.0     31.873     33.118
REMARK  Name = 
REMARK  1 active torsions:
REMARK  status: ('A' for Active; 'I' for Inactive)
REMARK    1  A    between atoms: C_7  and  C_8
REMARK                            x       y       z     vdW  Elec       q    Type
REMARK                         _______ _______ _______ _____ _____    ______ ____
ROOT
ATOM      1  C   UNL     1      25.896  25.164  26.117  0.00  0.00    +0.000 C 
ATOM      2  N   UNL     1      27.036  25.676  26.128  0.00  0.00    +0.000 NA
ATOM      3  N   UNL     1      28.145  24.929  26.019  0.00  0.00    +0.000 NA
ATOM      4  C   UNL     1      27.986  23.575  25.624  0.00  0.00    +0.000 C 
ATOM      5  C   UNL     1      28.172  23.373  24.136  0.00  0.00    +0.000 C 
ATOM      6  C   UNL     1      28.627  24.680  23.528  0.00  0.00    +0.000 C 
ATOM      7  C   UNL     1      30.074  24.467  23.078  0.00  0.00    +0.000 C 
ATOM      8  C   UNL     1      30.813  23.831  24.232  0.00  0.00    +0.000 C 
ATOM      9  C   UNL     1      30.322  22.432  24.532  0.00  0.00    +0.000 C 
ATOM     10  C   UNL     1      30.131  22.341  26.038  0.00  0.00    +0.000 C 
ATOM     11  C   UNL     1      28.718  22.584  26.457  0.00  0.00    +0.000 C 
ATOM     12  S   UNL     1      26.182  23.403  25.940  0.00  0.00    +0.000 S 
ENDROOT
BRANCH   1  19
ATOM     13  O   UNL     1      24.615  25.433  28.565  0.00  0.00    +0.000 OA
ATOM     14  C   UNL     1      23.940  25.891  27.437  0.00  0.00    +0.000 A 
ATOM     15  C   UNL     1      22.688  26.445  27.588  0.00  0.00    +0.000 A 
ATOM     16  C   UNL     1      21.996  26.906  26.492  0.00  0.00    +0.000 A 
ATOM     17  C   UNL     1      22.615  26.781  25.268  0.00  0.00    +0.000 A 
ATOM     18  C   UNL     1      23.869  26.225  25.123  0.00  0.00    +0.000 A 
ATOM     19  C   UNL     1      24.565  25.762  26.219  0.00  0.00    +0.000 A 
ENDBRANCH   1  19
TORSDOF 1
ENDMDL
MODEL 6
REMARK VINA RESULT:      -5.9     31.924     32.956
REMARK  Name = 
REMARK  1 active torsions:
REMARK  status: ('A' for Active; 'I' for Inactive)
REMARK    1  A    between atoms: C_7  and  C_8
REMARK                            x       y       z     vdW  Elec       q    Type
REMARK                         _______ _______ _______ _____ _____    ______ ____
ROOT
ATOM      1  C   UNL     1      30.624  22.903  26.559  0.00  0.00    +0.000 C 
ATOM      2  N   UNL     1      30.532  22.355  25.440  0.00  0.00    +0.000 NA
ATOM      3  N   UNL     1      29.463  22.537  24.652  0.00  0.00    +0.000 NA
ATOM      4  C   UNL     1      28.560  23.575  25.002  0.00  0.00    +0.000 C 
ATOM      5  C   UNL     1      28.839  24.867  24.265  0.00  0.00    +0.000 C 
ATOM      6  C   UNL     1      29.926  24.613  23.245  0.00  0.00    +0.000 C 
ATOM      7  C   UNL     1      29.264  24.730  21.870  0.00  0.00    +0.000 C 
ATOM      8  C   UNL     1      28.004  23.899  21.907  0.00  0.00    +0.000 C 
ATOM      9  C   UNL     1      26.966  24.464  22.852  0.00  0.00    +0.000 C 
ATOM     10  C   UNL     1      26.443  23.303  23.684  0.00  0.00    +0.000 C 
ATOM     11  C   UNL     1      27.124  23.189  25.008  0.00  0.00    +0.000 C 
ATOM     12  S   UNL     1      29.111  23.849  26.735  0.00  0.00    +0.000 S 
ENDROOT
BRANCH   1  19
ATOM     13  O   UNL     1      32.571  24.874  26.723  0.00  0.00    +0.000 OA
ATOM     14  C   UNL     1      32.632  23.837  27.650  0.00  0.00    +0.000 A 
ATOM     15  C   UNL     1      33.641  23.840  28.588  0.00  0.00    +0.000 A 
ATOM     16  C   UNL     1      33.728  22.830  29.517  0.00  0.00    +0.000 A 
ATOM     17  C   UNL     1      32.770  21.841  29.452  0.00  0.00    +0.000 A 
ATOM     18  C   UNL     1      31.762  21.844  28.511  0.00  0.00    +0.000 A 
ATOM     19  C   UNL     1      31.673  22.855  27.578  0.00  0.00    +0.000 A 
ENDBRANCH   1  19
TORSDOF 1
ENDMDL
MODEL 7
REMARK VINA RESULT:      -5.9     19.307     20.967
REMARK  Name = 
REMARK  1 active torsions:
REMARK  status: ('A' for Active; 'I' for Inactive)
REMARK    1  A    between atoms: C_7  and  C_8
REMARK                            x       y       z     vdW  Elec       q    Type
REMARK                         _______ _______ _______ _____ _____    ______ ____
ROOT
ATOM      1  C   UNL     1      33.802   3.200  35.124  0.00  0.00    +0.000 C 
ATOM      2  N   UNL     1      33.446   4.320  34.698  0.00  0.00    +0.000 NA
ATOM      3  N   UNL     1      33.498   5.415  35.471  0.00  0.00    +0.000 NA
ATOM      4  C   UNL     1      34.215   5.322  36.692  0.00  0.00    +0.000 C 
ATOM      5  C   UNL     1      35.642   5.812  36.573  0.00  0.00    +0.000 C 
ATOM      6  C   UNL     1      35.832   6.405  35.196  0.00  0.00    +0.000 C 
ATOM      7  C   UNL     1      36.019   7.910  35.395  0.00  0.00    +0.000 C 
ATOM      8  C   UNL     1      34.916   8.381  36.313  0.00  0.00    +0.000 C 
ATOM      9  C   UNL     1      35.047   7.817  37.711  0.00  0.00    +0.000 C 
ATOM     10  C   UNL     1      33.671   7.313  38.118  0.00  0.00    +0.000 C 
ATOM     11  C   UNL     1      33.500   5.848  37.886  0.00  0.00    +0.000 C 
ATOM     12  S   UNL     1      34.315   3.489  36.817  0.00  0.00    +0.000 S 
ENDROOT
BRANCH   1  19
ATOM     13  O   UNL     1      33.967   2.943  32.364  0.00  0.00    +0.000 OA
ATOM     14  C   UNL     1      33.918   1.770  33.113  0.00  0.00    +0.000 A 
ATOM     15  C   UNL     1      33.952   0.559  32.459  0.00  0.00    +0.000 A 
ATOM     16  C   UNL     1      33.904  -0.616  33.171  0.00  0.00    +0.000 A 
ATOM     17  C   UNL     1      33.821  -0.510  34.542  0.00  0.00    +0.000 A 
ATOM     18  C   UNL     1      33.788   0.706  35.192  0.00  0.00    +0.000 A 
ATOM     19  C   UNL     1      33.835   1.885  34.481  0.00  0.00    +0.000 A 
ENDBRANCH   1  19
TORSDOF 1
ENDMDL
MODEL 8
REMARK VINA RESULT:      -5.9     31.677     33.099
REMARK  Name = 
REMARK  1 active torsions:
REMARK  status: ('A' for Active; 'I' for Inactive)
REMARK    1  A    between atoms: C_7  and  C_8
REMARK                            x       y       z     vdW  Elec       q    Type
REMARK                         _______ _______ _______ _____ _____    ______ ____
ROOT
ATOM      1  C   UNL     1      27.896  24.656  25.273  0.00  0.00    +0.000 C 
ATOM      2  N   UNL     1      28.340  25.191  26.313  0.00  0.00    +0.000 NA
ATOM      3  N   UNL     1      27.978  24.765  27.532  0.00  0.00    +0.000 NA
ATOM      4  C   UNL     1      27.291  23.526  27.617  0.00  0.00    +0.000 C 
ATOM      5  C   UNL     1      28.213  22.363  27.909  0.00  0.00    +0.000 C 
ATOM      6  C   UNL     1      29.599  22.905  28.177  0.00  0.00    +0.000 C 
ATOM      7  C   UNL     1      29.880  22.659  29.661  0.00  0.00    +0.000 C 
ATOM      8  C   UNL     1      28.677  23.147  30.432  0.00  0.00    +0.000 C 
ATOM      9  C   UNL     1      27.441  22.318  30.160  0.00  0.00    +0.000 C 
ATOM     10  C   UNL     1      26.299  23.291  29.909  0.00  0.00    +0.000 C 
ATOM     11  C   UNL     1      26.063  23.541  28.455  0.00  0.00    +0.000 C 
ATOM     12  S   UNL     1      26.804  23.358  25.851  0.00  0.00    +0.000 S 
ENDROOT
BRANCH   1  19
ATOM     13  O   UNL     1      29.863  23.314  23.846  0.00  0.00    +0.000 OA
ATOM     14  C   UNL     1      29.117  24.269  23.161  0.00  0.00    +0.000 A 
ATOM     15  C   UNL     1      29.387  24.498  21.831  0.00  0.00    +0.000 A 
ATOM     16  C   UNL     1      28.667  25.436  21.128  0.00  0.00    +0.000 A 
ATOM     17  C   UNL     1      27.686  26.114  21.818  0.00  0.00    +0.000 A 
ATOM     18  C   UNL     1      27.420  25.879  23.151  0.00  0.00    +0.000 A 
ATOM     19  C   UNL     1      28.140  24.940  23.858  0.00  0.00    +0.000 A 
ENDBRANCH   1  19
TORSDOF 1
ENDMDL
MODEL 9
REMARK VINA RESULT:      -5.9     19.350     22.157
REMARK  Name = 
REMARK  1 active torsions:
REMARK  status: ('A' for Active; 'I' for Inactive)
REMARK    1  A    between atoms: C_7  and  C_8
REMARK                            x       y       z     vdW  Elec       q    Type
REMARK                         _______ _______ _______ _____ _____    ______ ____
ROOT
ATOM      1  C   UNL     1      19.860   4.642  40.888  0.00  0.00    +0.000 C 
ATOM      2  N   UNL     1      19.352   5.231  39.910  0.00  0.00    +0.000 NA
ATOM      3  N   UNL     1      18.387   6.149  40.064  0.00  0.00    +0.000 NA
ATOM      4  C   UNL     1      18.144   6.629  41.378  0.00  0.00    +0.000 C 
ATOM      5  C   UNL     1      18.880   7.917  41.677  0.00  0.00    +0.000 C 
ATOM      6  C   UNL     1      19.549   8.392  40.407  0.00  0.00    +0.000 C 
ATOM      7  C   UNL     1      18.819   9.669  39.986  0.00  0.00    +0.000 C 
ATOM      8  C   UNL     1      17.338   9.377  40.037  0.00  0.00    +0.000 C 
ATOM      9  C   UNL     1      16.846   9.132  41.447  0.00  0.00    +0.000 C 
ATOM     10  C   UNL     1      15.973   7.887  41.404  0.00  0.00    +0.000 C 
ATOM     11  C   UNL     1      16.715   6.649  41.789  0.00  0.00    +0.000 C 
ATOM     12  S   UNL     1      19.017   5.313  42.321  0.00  0.00    +0.000 S 
ENDROOT
BRANCH   1  19
ATOM     13  O   UNL     1      19.330   1.978  40.316  0.00  0.00    +0.000 OA
ATOM     14  C   UNL     1      20.632   2.305  40.682  0.00  0.00    +0.000 A 
ATOM     15  C   UNL     1      21.579   1.307  40.742  0.00  0.00    +0.000 A 
ATOM     16  C   UNL     1      22.874   1.599  41.102  0.00  0.00    +0.000 A 
ATOM     17  C   UNL     1      23.157   2.916  41.390  0.00  0.00    +0.000 A 
ATOM     18  C   UNL     1      22.205   3.911  41.327  0.00  0.00    +0.000 A 
ATOM     19  C   UNL     1      20.906   3.621  40.968  0.00  0.00    +0.000 A 
ENDBRANCH   1  19
TORSDOF 1
ENDMDL
MODEL 10
REMARK VINA RESULT:      -5.8     21.598     22.875
REMARK  Name = 
REMARK  1 active torsions:
REMARK  status: ('A' for Active; 'I' for Inactive)
REMARK    1  A    between atoms: C_7  and  C_8
REMARK                            x       y       z     vdW  Elec       q    Type
REMARK                         _______ _______ _______ _____ _____    ______ ____
ROOT
ATOM      1  C   UNL     1      19.602   8.946  39.385  0.00  0.00    +0.000 C 
ATOM      2  N   UNL     1      20.798   8.817  39.725  0.00  0.00    +0.000 NA
ATOM      3  N   UNL     1      21.803   9.202  38.926  0.00  0.00    +0.000 NA
ATOM      4  C   UNL     1      21.476  10.003  37.800  0.00  0.00    +0.000 C 
ATOM      5  C   UNL     1      21.636  11.483  38.068  0.00  0.00    +0.000 C 
ATOM      6  C   UNL     1      22.255  11.659  39.436  0.00  0.00    +0.000 C 
ATOM      7  C   UNL     1      23.664  12.210  39.207  0.00  0.00    +0.000 C 
ATOM      8  C   UNL     1      24.314  11.349  38.149  0.00  0.00    +0.000 C 
ATOM      9  C   UNL     1      23.650  11.493  36.798  0.00  0.00    +0.000 C 
ATOM     10  C   UNL     1      23.446  10.089  36.250  0.00  0.00    +0.000 C 
ATOM     11  C   UNL     1      22.075   9.559  36.513  0.00  0.00    +0.000 C 
ATOM     12  S   UNL     1      19.664   9.688  37.754  0.00  0.00    +0.000 S 
ENDROOT
BRANCH   1  19
ATOM     13  O   UNL     1      18.926   6.310  39.933  0.00  0.00    +0.000 OA
ATOM     14  C   UNL     1      18.032   7.297  40.340  0.00  0.00    +0.000 A 
ATOM     15  C   UNL     1      16.874   6.923  40.985  0.00  0.00    +0.000 A 
ATOM     16  C   UNL     1      15.972   7.875  41.399  0.00  0.00    +0.000 A 
ATOM     17  C   UNL     1      16.289   9.190  41.136  0.00  0.00    +0.000 A 
ATOM     18  C   UNL     1      17.451   9.558  40.491  0.00  0.00    +0.000 A 
ATOM     19  C   UNL     1      18.357   8.606  40.074  0.00  0.00    +0.000 A 
ENDBRANCH   1  19
TORSDOF 1
ENDMDL
