MODEL 1
REMARK VINA RESULT:      -7.2      0.000      0.000
REMARK  Name = 
REMARK  4 active torsions:
REMARK  status: ('A' for Active; 'I' for Inactive)
REMARK    1  A    between atoms: O_2  and  C_3
REMARK    2  A    between atoms: C_9  and  N_10
REMARK    3  A    between atoms: C_11  and  C_13
REMARK    4  A    between atoms: C_17  and  N_18
REMARK                            x       y       z     vdW  Elec       q    Type
REMARK                         _______ _______ _______ _____ _____    ______ ____
ROOT
ATOM      1  N   UNL     1      14.923  11.343  35.972  0.00  0.00    +0.000 NA
ATOM      2  C   UNL     1      15.705  11.761  37.054  0.00  0.00    +0.000 C 
ATOM      3  O   UNL     1      16.228  12.918  37.078  0.00  0.00    +0.000 OA
ENDROOT
BRANCH   1  10
ATOM      4  C   UNL     1      15.093  11.742  33.647  0.00  0.00    +0.000 A 
ATOM      5  C   UNL     1      14.834  12.471  32.473  0.00  0.00    +0.000 A 
ATOM      6  C   UNL     1      14.123  13.649  32.612  0.00  0.00    +0.000 A 
ATOM      7  C   UNL     1      13.681  14.117  33.801  0.00  0.00    +0.000 A 
ATOM      8  C   UNL     1      12.897  15.381  33.956  0.00  0.00    +0.000 C 
ATOM      9  C   UNL     1      13.946  13.385  34.966  0.00  0.00    +0.000 A 
ATOM     10  C   UNL     1      14.661  12.185  34.867  0.00  0.00    +0.000 A 
BRANCH   4  12
ATOM     11  C   UNL     1      16.812  10.413  32.629  0.00  0.00    +0.000 C 
ATOM     12  O   UNL     1      15.798  10.551  33.582  0.00  0.00    +0.000 OA
ENDBRANCH   4  12
ENDBRANCH   1  10
BRANCH   2  13
ATOM     13  C   UNL     1      15.944  10.869  38.193  0.00  0.00    +0.000 A 
ATOM     14  C   UNL     1      14.924  10.655  39.089  0.00  0.00    +0.000 A 
ATOM     15  C   UNL     1      15.246   9.871  40.185  0.00  0.00    +0.000 A 
ATOM     16  C   UNL     1      16.505   9.357  40.334  0.00  0.00    +0.000 A 
ATOM     17  C   UNL     1      17.538   9.582  39.406  0.00  0.00    +0.000 A 
ATOM     18  C   UNL     1      17.214  10.360  38.323  0.00  0.00    +0.000 A 
ATOM     19  C   UNL     1      18.271  10.624  37.277  0.00  0.00    +0.000 C 
BRANCH  17  20
ATOM     20  N   UNL     1      18.805   8.995  39.603  0.00  0.00    +0.000 N 
ATOM     21  O   UNL     1      18.947   7.798  39.344  0.00  0.00    +0.000 OA
ATOM     22  O   UNL     1      19.832   9.778  40.074  0.00  0.00    +0.000 OA
ENDBRANCH  17  20
ENDBRANCH   2  13
TORSDOF 4
ENDMDL
MODEL 2
REMARK VINA RESULT:      -7.1      1.366      2.108
REMARK  Name = 
REMARK  4 active torsions:
REMARK  status: ('A' for Active; 'I' for Inactive)
REMARK    1  A    between atoms: O_2  and  C_3
REMARK    2  A    between atoms: C_9  and  N_10
REMARK    3  A    between atoms: C_11  and  C_13
REMARK    4  A    between atoms: C_17  and  N_18
REMARK                            x       y       z     vdW  Elec       q    Type
REMARK                         _______ _______ _______ _____ _____    ______ ____
ROOT
ATOM      1  N   UNL     1      15.897  11.343  35.424  0.00  0.00    +0.000 NA
ATOM      2  C   UNL     1      16.795  11.817  36.386  0.00  0.00    +0.000 C 
ATOM      3  O   UNL     1      17.024  13.059  36.514  0.00  0.00    +0.000 OA
ENDROOT
BRANCH   1  10
ATOM      4  C   UNL     1      15.309  11.977  33.223  0.00  0.00    +0.000 A 
ATOM      5  C   UNL     1      14.602  12.746  32.281  0.00  0.00    +0.000 A 
ATOM      6  C   UNL     1      13.783  13.743  32.776  0.00  0.00    +0.000 A 
ATOM      7  C   UNL     1      13.640  14.006  34.095  0.00  0.00    +0.000 A 
ATOM      8  C   UNL     1      12.743  15.073  34.637  0.00  0.00    +0.000 C 
ATOM      9  C   UNL     1      14.351  13.237  35.026  0.00  0.00    +0.000 A 
ATOM     10  C   UNL     1      15.190  12.215  34.565  0.00  0.00    +0.000 A 
BRANCH   4  12
ATOM     11  C   UNL     1      16.025  10.480  31.491  0.00  0.00    +0.000 C 
ATOM     12  O   UNL     1      16.146  10.959  32.798  0.00  0.00    +0.000 OA
ENDBRANCH   4  12
ENDBRANCH   1  10
BRANCH   2  13
ATOM     13  C   UNL     1      17.501  10.887  37.273  0.00  0.00    +0.000 A 
ATOM     14  C   UNL     1      18.771  10.487  36.932  0.00  0.00    +0.000 A 
ATOM     15  C   UNL     1      19.345   9.543  37.769  0.00  0.00    +0.000 A 
ATOM     16  C   UNL     1      18.667   9.065  38.857  0.00  0.00    +0.000 A 
ATOM     17  C   UNL     1      17.368   9.488  39.194  0.00  0.00    +0.000 A 
ATOM     18  C   UNL     1      16.803  10.421  38.361  0.00  0.00    +0.000 A 
ATOM     19  C   UNL     1      15.419  10.933  38.678  0.00  0.00    +0.000 C 
BRANCH  17  20
ATOM     20  N   UNL     1      16.737   8.978  40.348  0.00  0.00    +0.000 N 
ATOM     21  O   UNL     1      16.808   7.768  40.574  0.00  0.00    +0.000 OA
ATOM     22  O   UNL     1      16.069   9.849  41.177  0.00  0.00    +0.000 OA
ENDBRANCH  17  20
ENDBRANCH   2  13
TORSDOF 4
ENDMDL
MODEL 3
REMARK VINA RESULT:      -6.3      2.338      7.297
REMARK  Name = 
REMARK  4 active torsions:
REMARK  status: ('A' for Active; 'I' for Inactive)
REMARK    1  A    between atoms: O_2  and  C_3
REMARK    2  A    between atoms: C_9  and  N_10
REMARK    3  A    between atoms: C_11  and  C_13
REMARK    4  A    between atoms: C_17  and  N_18
REMARK                            x       y       z     vdW  Elec       q    Type
REMARK                         _______ _______ _______ _____ _____    ______ ____
ROOT
ATOM      1  N   UNL     1      17.829  11.231  37.375  0.00  0.00    +0.000 NA
ATOM      2  C   UNL     1      17.131  10.630  36.323  0.00  0.00    +0.000 C 
ATOM      3  O   UNL     1      17.259   9.391  36.073  0.00  0.00    +0.000 OA
ENDROOT
BRANCH   1  10
ATOM      4  C   UNL     1      18.101   9.820  39.254  0.00  0.00    +0.000 A 
ATOM      5  C   UNL     1      18.856   9.010  40.120  0.00  0.00    +0.000 A 
ATOM      6  C   UNL     1      20.214   8.926  39.873  0.00  0.00    +0.000 A 
ATOM      7  C   UNL     1      20.831   9.578  38.861  0.00  0.00    +0.000 A 
ATOM      8  C   UNL     1      22.296   9.478  38.580  0.00  0.00    +0.000 C 
ATOM      9  C   UNL     1      20.071  10.386  38.005  0.00  0.00    +0.000 A 
ATOM     10  C   UNL     1      18.691  10.495  38.220  0.00  0.00    +0.000 A 
BRANCH   4  12
ATOM     11  C   UNL     1      16.174   9.545  40.654  0.00  0.00    +0.000 C 
ATOM     12  O   UNL     1      16.735   9.949  39.440  0.00  0.00    +0.000 OA
ENDBRANCH   4  12
ENDBRANCH   1  10
BRANCH   2  13
ATOM     13  C   UNL     1      16.232  11.418  35.474  0.00  0.00    +0.000 A 
ATOM     14  C   UNL     1      15.311  12.242  36.076  0.00  0.00    +0.000 A 
ATOM     15  C   UNL     1      14.438  12.891  35.217  0.00  0.00    +0.000 A 
ATOM     16  C   UNL     1      14.517  12.704  33.864  0.00  0.00    +0.000 A 
ATOM     17  C   UNL     1      15.468  11.859  33.263  0.00  0.00    +0.000 A 
ATOM     18  C   UNL     1      16.329  11.218  34.118  0.00  0.00    +0.000 A 
ATOM     19  C   UNL     1      17.388  10.312  33.537  0.00  0.00    +0.000 C 
BRANCH  17  20
ATOM     20  N   UNL     1      15.515  11.735  31.859  0.00  0.00    +0.000 N 
ATOM     21  O   UNL     1      16.230  12.513  31.222  0.00  0.00    +0.000 OA
ATOM     22  O   UNL     1      14.767  10.753  31.254  0.00  0.00    +0.000 OA
ENDBRANCH  17  20
ENDBRANCH   2  13
TORSDOF 4
ENDMDL
MODEL 4
REMARK VINA RESULT:      -6.3     19.760     21.897
REMARK  Name = 
REMARK  4 active torsions:
REMARK  status: ('A' for Active; 'I' for Inactive)
REMARK    1  A    between atoms: O_2  and  C_3
REMARK    2  A    between atoms: C_9  and  N_10
REMARK    3  A    between atoms: C_11  and  C_13
REMARK    4  A    between atoms: C_17  and  N_18
REMARK                            x       y       z     vdW  Elec       q    Type
REMARK                         _______ _______ _______ _____ _____    ______ ____
ROOT
ATOM      1  N   UNL     1      29.598  23.546  27.525  0.00  0.00    +0.000 NA
ATOM      2  C   UNL     1      29.374  22.731  26.411  0.00  0.00    +0.000 C 
ATOM      3  O   UNL     1      29.852  21.556  26.351  0.00  0.00    +0.000 OA
ENDROOT
BRANCH   1  10
ATOM      4  C   UNL     1      29.641  22.872  29.791  0.00  0.00    +0.000 A 
ATOM      5  C   UNL     1      30.273  22.373  30.944  0.00  0.00    +0.000 A 
ATOM      6  C   UNL     1      31.631  22.125  30.855  0.00  0.00    +0.000 A 
ATOM      7  C   UNL     1      32.357  22.340  29.735  0.00  0.00    +0.000 A 
ATOM      8  C   UNL     1      33.822  22.059  29.628  0.00  0.00    +0.000 C 
ATOM      9  C   UNL     1      31.720  22.841  28.592  0.00  0.00    +0.000 A 
ATOM     10  C   UNL     1      30.344  23.103  28.640  0.00  0.00    +0.000 A 
BRANCH   4  12
ATOM     11  C   UNL     1      27.385  22.095  30.037  0.00  0.00    +0.000 C 
ATOM     12  O   UNL     1      28.283  23.141  29.807  0.00  0.00    +0.000 OA
ENDBRANCH   4  12
ENDBRANCH   1  10
BRANCH   2  13
ATOM     13  C   UNL     1      28.582  23.215  25.276  0.00  0.00    +0.000 A 
ATOM     14  C   UNL     1      27.231  22.964  25.261  0.00  0.00    +0.000 A 
ATOM     15  C   UNL     1      26.560  23.374  24.119  0.00  0.00    +0.000 A 
ATOM     16  C   UNL     1      27.228  23.988  23.095  0.00  0.00    +0.000 A 
ATOM     17  C   UNL     1      28.611  24.240  23.128  0.00  0.00    +0.000 A 
ATOM     18  C   UNL     1      29.272  23.831  24.259  0.00  0.00    +0.000 A 
ATOM     19  C   UNL     1      30.755  24.090  24.368  0.00  0.00    +0.000 C 
BRANCH  17  20
ATOM     20  N   UNL     1      29.234  24.906  22.051  0.00  0.00    +0.000 N 
ATOM     21  O   UNL     1      29.332  26.134  22.095  0.00  0.00    +0.000 OA
ATOM     22  O   UNL     1      29.707  24.162  20.995  0.00  0.00    +0.000 OA
ENDBRANCH  17  20
ENDBRANCH   2  13
TORSDOF 4
ENDMDL
MODEL 5
REMARK VINA RESULT:      -6.2     18.654     20.247
REMARK  Name = 
REMARK  4 active torsions:
REMARK  status: ('A' for Active; 'I' for Inactive)
REMARK    1  A    between atoms: O_2  and  C_3
REMARK    2  A    between atoms: C_9  and  N_10
REMARK    3  A    between atoms: C_11  and  C_13
REMARK    4  A    between atoms: C_17  and  N_18
REMARK                            x       y       z     vdW  Elec       q    Type
REMARK                         _______ _______ _______ _____ _____    ______ ____
ROOT
ATOM      1  N   UNL     1      27.578  25.139  25.594  0.00  0.00    +0.000 NA
ATOM      2  C   UNL     1      26.380  24.586  26.058  0.00  0.00    +0.000 C 
ATOM      3  O   UNL     1      25.535  24.082  25.254  0.00  0.00    +0.000 OA
ENDROOT
BRANCH   1  10
ATOM      4  C   UNL     1      28.656  24.091  23.768  0.00  0.00    +0.000 A 
ATOM      5  C   UNL     1      28.999  23.970  22.410  0.00  0.00    +0.000 A 
ATOM      6  C   UNL     1      28.551  24.966  21.561  0.00  0.00    +0.000 A 
ATOM      7  C   UNL     1      27.819  26.025  21.974  0.00  0.00    +0.000 A 
ATOM      8  C   UNL     1      27.318  27.096  21.058  0.00  0.00    +0.000 C 
ATOM      9  C   UNL     1      27.484  26.139  23.330  0.00  0.00    +0.000 A 
ATOM     10  C   UNL     1      27.917  25.149  24.222  0.00  0.00    +0.000 A 
BRANCH   4  12
ATOM     11  C   UNL     1      30.348  22.580  24.548  0.00  0.00    +0.000 C 
ATOM     12  O   UNL     1      29.069  23.129  24.675  0.00  0.00    +0.000 OA
ENDBRANCH   4  12
ENDBRANCH   1  10
BRANCH   2  13
ATOM     13  C   UNL     1      26.064  24.576  27.489  0.00  0.00    +0.000 A 
ATOM     14  C   UNL     1      25.383  25.644  28.022  0.00  0.00    +0.000 A 
ATOM     15  C   UNL     1      25.194  25.609  29.394  0.00  0.00    +0.000 A 
ATOM     16  C   UNL     1      25.665  24.562  30.140  0.00  0.00    +0.000 A 
ATOM     17  C   UNL     1      26.358  23.475  29.579  0.00  0.00    +0.000 A 
ATOM     18  C   UNL     1      26.544  23.515  28.220  0.00  0.00    +0.000 A 
ATOM     19  C   UNL     1      27.262  22.368  27.551  0.00  0.00    +0.000 C 
BRANCH  17  20
ATOM     20  N   UNL     1      26.789  22.412  30.401  0.00  0.00    +0.000 N 
ATOM     21  O   UNL     1      27.986  22.335  30.686  0.00  0.00    +0.000 OA
ATOM     22  O   UNL     1      25.859  21.506  30.854  0.00  0.00    +0.000 OA
ENDBRANCH  17  20
ENDBRANCH   2  13
TORSDOF 4
ENDMDL
MODEL 6
REMARK VINA RESULT:      -6.1     20.959     23.167
REMARK  Name = 
REMARK  4 active torsions:
REMARK  status: ('A' for Active; 'I' for Inactive)
REMARK    1  A    between atoms: O_2  and  C_3
REMARK    2  A    between atoms: C_9  and  N_10
REMARK    3  A    between atoms: C_11  and  C_13
REMARK    4  A    between atoms: C_17  and  N_18
REMARK                            x       y       z     vdW  Elec       q    Type
REMARK                         _______ _______ _______ _____ _____    ______ ____
ROOT
ATOM      1  N   UNL     1      30.608  24.252  25.753  0.00  0.00    +0.000 NA
ATOM      2  C   UNL     1      30.552  23.606  24.514  0.00  0.00    +0.000 C 
ATOM      3  O   UNL     1      31.391  22.703  24.206  0.00  0.00    +0.000 OA
ENDROOT
BRANCH   1  10
ATOM      4  C   UNL     1      32.678  24.742  26.787  0.00  0.00    +0.000 A 
ATOM      5  C   UNL     1      33.679  24.546  27.755  0.00  0.00    +0.000 A 
ATOM      6  C   UNL     1      33.498  23.497  28.637  0.00  0.00    +0.000 A 
ATOM      7  C   UNL     1      32.427  22.671  28.607  0.00  0.00    +0.000 A 
ATOM      8  C   UNL     1      32.218  21.546  29.568  0.00  0.00    +0.000 C 
ATOM      9  C   UNL     1      31.436  22.873  27.637  0.00  0.00    +0.000 A 
ATOM     10  C   UNL     1      31.581  23.927  26.725  0.00  0.00    +0.000 A 
BRANCH   4  12
ATOM     11  C   UNL     1      33.895  25.804  25.014  0.00  0.00    +0.000 C 
ATOM     12  O   UNL     1      32.792  25.775  25.872  0.00  0.00    +0.000 OA
ENDBRANCH   4  12
ENDBRANCH   1  10
BRANCH   2  13
ATOM     13  C   UNL     1      29.520  23.955  23.533  0.00  0.00    +0.000 A 
ATOM     14  C   UNL     1      29.876  24.714  22.444  0.00  0.00    +0.000 A 
ATOM     15  C   UNL     1      28.836  25.078  21.603  0.00  0.00    +0.000 A 
ATOM     16  C   UNL     1      27.551  24.690  21.869  0.00  0.00    +0.000 A 
ATOM     17  C   UNL     1      27.203  23.911  22.987  0.00  0.00    +0.000 A 
ATOM     18  C   UNL     1      28.236  23.554  23.817  0.00  0.00    +0.000 A 
ATOM     19  C   UNL     1      27.935  22.699  25.025  0.00  0.00    +0.000 C 
BRANCH  17  20
ATOM     20  N   UNL     1      25.863  23.517  23.184  0.00  0.00    +0.000 N 
ATOM     21  O   UNL     1      25.370  22.696  22.409  0.00  0.00    +0.000 OA
ATOM     22  O   UNL     1      25.160  24.062  24.233  0.00  0.00    +0.000 OA
ENDBRANCH  17  20
ENDBRANCH   2  13
TORSDOF 4
ENDMDL
MODEL 7
REMARK VINA RESULT:      -6.1     19.124     21.304
REMARK  Name = 
REMARK  4 active torsions:
REMARK  status: ('A' for Active; 'I' for Inactive)
REMARK    1  A    between atoms: O_2  and  C_3
REMARK    2  A    between atoms: C_9  and  N_10
REMARK    3  A    between atoms: C_11  and  C_13
REMARK    4  A    between atoms: C_17  and  N_18
REMARK                            x       y       z     vdW  Elec       q    Type
REMARK                         _______ _______ _______ _____ _____    ______ ____
ROOT
ATOM      1  N   UNL     1      30.377  23.242  28.120  0.00  0.00    +0.000 NA
ATOM      2  C   UNL     1      30.262  22.424  26.992  0.00  0.00    +0.000 C 
ATOM      3  O   UNL     1      30.457  21.171  27.067  0.00  0.00    +0.000 OA
ENDROOT
BRANCH   1  10
ATOM      4  C   UNL     1      29.675  22.680  30.307  0.00  0.00    +0.000 A 
ATOM      5  C   UNL     1      29.865  22.127  31.587  0.00  0.00    +0.000 A 
ATOM      6  C   UNL     1      31.122  21.628  31.872  0.00  0.00    +0.000 A 
ATOM      7  C   UNL     1      32.152  21.651  30.995  0.00  0.00    +0.000 A 
ATOM      8  C   UNL     1      33.508  21.098  31.292  0.00  0.00    +0.000 C 
ATOM      9  C   UNL     1      31.955  22.206  29.724  0.00  0.00    +0.000 A 
ATOM     10  C   UNL     1      30.694  22.721  29.395  0.00  0.00    +0.000 A 
BRANCH   4  12
ATOM     11  C   UNL     1      27.304  22.393  30.082  0.00  0.00    +0.000 C 
ATOM     12  O   UNL     1      28.441  23.197  29.952  0.00  0.00    +0.000 OA
ENDBRANCH   4  12
ENDBRANCH   1  10
BRANCH   2  13
ATOM     13  C   UNL     1      29.915  22.993  25.686  0.00  0.00    +0.000 A 
ATOM     14  C   UNL     1      30.926  23.466  24.883  0.00  0.00    +0.000 A 
ATOM     15  C   UNL     1      30.520  24.067  23.703  0.00  0.00    +0.000 A 
ATOM     16  C   UNL     1      29.193  24.164  23.385  0.00  0.00    +0.000 A 
ATOM     17  C   UNL     1      28.170  23.672  24.216  0.00  0.00    +0.000 A 
ATOM     18  C   UNL     1      28.577  23.080  25.385  0.00  0.00    +0.000 A 
ATOM     19  C   UNL     1      27.530  22.511  26.314  0.00  0.00    +0.000 C 
BRANCH  17  20
ATOM     20  N   UNL     1      26.822  23.776  23.814  0.00  0.00    +0.000 N 
ATOM     21  O   UNL     1      26.371  22.931  23.039  0.00  0.00    +0.000 OA
ATOM     22  O   UNL     1      26.062  24.813  24.303  0.00  0.00    +0.000 OA
ENDBRANCH  17  20
ENDBRANCH   2  13
TORSDOF 4
ENDMDL
MODEL 8
REMARK VINA RESULT:      -6.0     18.043     20.085
REMARK  Name = 
REMARK  4 active torsions:
REMARK  status: ('A' for Active; 'I' for Inactive)
REMARK    1  A    between atoms: O_2  and  C_3
REMARK    2  A    between atoms: C_9  and  N_10
REMARK    3  A    between atoms: C_11  and  C_13
REMARK    4  A    between atoms: C_17  and  N_18
REMARK                            x       y       z     vdW  Elec       q    Type
REMARK                         _______ _______ _______ _____ _____    ______ ____
ROOT
ATOM      1  N   UNL     1      29.020  23.354  29.431  0.00  0.00    +0.000 NA
ATOM      2  C   UNL     1      27.771  22.828  29.086  0.00  0.00    +0.000 C 
ATOM      3  O   UNL     1      27.435  21.654  29.434  0.00  0.00    +0.000 OA
ENDROOT
BRANCH   1  10
ATOM      4  C   UNL     1      31.116  22.267  29.559  0.00  0.00    +0.000 A 
ATOM      5  C   UNL     1      32.142  21.588  30.240  0.00  0.00    +0.000 A 
ATOM      6  C   UNL     1      31.924  21.302  31.576  0.00  0.00    +0.000 A 
ATOM      7  C   UNL     1      30.792  21.638  32.236  0.00  0.00    +0.000 A 
ATOM      8  C   UNL     1      30.557  21.347  33.683  0.00  0.00    +0.000 C 
ATOM      9  C   UNL     1      29.774  22.312  31.548  0.00  0.00    +0.000 A 
ATOM     10  C   UNL     1      29.957  22.621  30.194  0.00  0.00    +0.000 A 
BRANCH   4  12
ATOM     11  C   UNL     1      32.240  23.520  27.850  0.00  0.00    +0.000 C 
ATOM     12  O   UNL     1      31.267  22.587  28.221  0.00  0.00    +0.000 OA
ENDBRANCH   4  12
ENDBRANCH   1  10
BRANCH   2  13
ATOM     13  C   UNL     1      26.814  23.620  28.307  0.00  0.00    +0.000 A 
ATOM     14  C   UNL     1      25.912  24.410  28.978  0.00  0.00    +0.000 A 
ATOM     15  C   UNL     1      24.983  25.063  28.184  0.00  0.00    +0.000 A 
ATOM     16  C   UNL     1      24.993  24.913  26.824  0.00  0.00    +0.000 A 
ATOM     17  C   UNL     1      25.926  24.102  26.152  0.00  0.00    +0.000 A 
ATOM     18  C   UNL     1      26.842  23.456  26.943  0.00  0.00    +0.000 A 
ATOM     19  C   UNL     1      27.886  22.586  26.283  0.00  0.00    +0.000 C 
BRANCH  17  20
ATOM     20  N   UNL     1      25.902  24.016  24.744  0.00  0.00    +0.000 N 
ATOM     21  O   UNL     1      25.295  23.078  24.221  0.00  0.00    +0.000 OA
ATOM     22  O   UNL     1      26.552  24.980  24.010  0.00  0.00    +0.000 OA
ENDBRANCH  17  20
ENDBRANCH   2  13
TORSDOF 4
ENDMDL
MODEL 9
REMARK VINA RESULT:      -6.0     21.263     23.915
REMARK  Name = 
REMARK  4 active torsions:
REMARK  status: ('A' for Active; 'I' for Inactive)
REMARK    1  A    between atoms: O_2  and  C_3
REMARK    2  A    between atoms: C_9  and  N_10
REMARK    3  A    between atoms: C_11  and  C_13
REMARK    4  A    between atoms: C_17  and  N_18
REMARK                            x       y       z     vdW  Elec       q    Type
REMARK                         _______ _______ _______ _____ _____    ______ ____
ROOT
ATOM      1  N   UNL     1      21.930  -7.541  23.711  0.00  0.00    +0.000 NA
ATOM      2  C   UNL     1      21.567  -7.680  25.054  0.00  0.00    +0.000 C 
ATOM      3  O   UNL     1      22.269  -8.373  25.855  0.00  0.00    +0.000 OA
ENDROOT
BRANCH   1  10
ATOM      4  C   UNL     1      22.918  -9.319  22.504  0.00  0.00    +0.000 A 
ATOM      5  C   UNL     1      23.999  -9.974  21.887  0.00  0.00    +0.000 A 
ATOM      6  C   UNL     1      25.239  -9.371  21.996  0.00  0.00    +0.000 A 
ATOM      7  C   UNL     1      25.450  -8.211  22.657  0.00  0.00    +0.000 A 
ATOM      8  C   UNL     1      26.785  -7.546  22.763  0.00  0.00    +0.000 C 
ATOM      9  C   UNL     1      24.367  -7.567  23.271  0.00  0.00    +0.000 A 
ATOM     10  C   UNL     1      23.094  -8.144  23.182  0.00  0.00    +0.000 A 
BRANCH   4  12
ATOM     11  C   UNL     1      21.415 -11.124  22.994  0.00  0.00    +0.000 C 
ATOM     12  O   UNL     1      21.647  -9.864  22.434  0.00  0.00    +0.000 OA
ENDBRANCH   4  12
ENDBRANCH   1  10
BRANCH   2  13
ATOM     13  C   UNL     1      20.362  -7.029  25.576  0.00  0.00    +0.000 A 
ATOM     14  C   UNL     1      20.368  -5.664  25.740  0.00  0.00    +0.000 A 
ATOM     15  C   UNL     1      19.229  -5.126  26.317  0.00  0.00    +0.000 A 
ATOM     16  C   UNL     1      18.183  -5.929  26.684  0.00  0.00    +0.000 A 
ATOM     17  C   UNL     1      18.191  -7.324  26.506  0.00  0.00    +0.000 A 
ATOM     18  C   UNL     1      19.322  -7.852  25.936  0.00  0.00    +0.000 A 
ATOM     19  C   UNL     1      19.387  -9.342  25.697  0.00  0.00    +0.000 C 
BRANCH  17  20
ATOM     20  N   UNL     1      17.065  -8.090  26.877  0.00  0.00    +0.000 N 
ATOM     21  O   UNL     1      16.051  -8.024  26.179  0.00  0.00    +0.000 OA
ATOM     22  O   UNL     1      17.142  -8.880  27.999  0.00  0.00    +0.000 OA
ENDBRANCH  17  20
ENDBRANCH   2  13
TORSDOF 4
ENDMDL
MODEL 10
REMARK VINA RESULT:      -6.0     20.501     22.748
REMARK  Name = 
REMARK  4 active torsions:
REMARK  status: ('A' for Active; 'I' for Inactive)
REMARK    1  A    between atoms: O_2  and  C_3
REMARK    2  A    between atoms: C_9  and  N_10
REMARK    3  A    between atoms: C_11  and  C_13
REMARK    4  A    between atoms: C_17  and  N_18
REMARK                            x       y       z     vdW  Elec       q    Type
REMARK                         _______ _______ _______ _____ _____    ______ ____
ROOT
ATOM      1  N   UNL     1      30.498  24.246  25.875  0.00  0.00    +0.000 NA
ATOM      2  C   UNL     1      30.470  23.587  24.643  0.00  0.00    +0.000 C 
ATOM      3  O   UNL     1      31.321  22.687  24.360  0.00  0.00    +0.000 OA
ENDROOT
BRANCH   1  10
ATOM      4  C   UNL     1      31.036  23.120  27.885  0.00  0.00    +0.000 A 
ATOM      5  C   UNL     1      31.920  22.701  28.895  0.00  0.00    +0.000 A 
ATOM      6  C   UNL     1      33.225  23.150  28.808  0.00  0.00    +0.000 A 
ATOM      7  C   UNL     1      33.674  23.956  27.820  0.00  0.00    +0.000 A 
ATOM      8  C   UNL     1      35.088  24.430  27.713  0.00  0.00    +0.000 C 
ATOM      9  C   UNL     1      32.785  24.371  26.820  0.00  0.00    +0.000 A 
ATOM     10  C   UNL     1      31.454  23.937  26.870  0.00  0.00    +0.000 A 
BRANCH   4  12
ATOM     11  C   UNL     1      28.983  22.829  29.092  0.00  0.00    +0.000 C 
ATOM     12  O   UNL     1      29.714  22.708  27.906  0.00  0.00    +0.000 OA
ENDBRANCH   4  12
ENDBRANCH   1  10
BRANCH   2  13
ATOM     13  C   UNL     1      29.456  23.919  23.638  0.00  0.00    +0.000 A 
ATOM     14  C   UNL     1      29.835  24.644  22.533  0.00  0.00    +0.000 A 
ATOM     15  C   UNL     1      28.810  24.995  21.669  0.00  0.00    +0.000 A 
ATOM     16  C   UNL     1      27.517  24.627  21.927  0.00  0.00    +0.000 A 
ATOM     17  C   UNL     1      27.147  23.883  23.061  0.00  0.00    +0.000 A 
ATOM     18  C   UNL     1      28.164  23.538  23.914  0.00  0.00    +0.000 A 
ATOM     19  C   UNL     1      27.838  22.721  25.141  0.00  0.00    +0.000 C 
BRANCH  17  20
ATOM     20  N   UNL     1      25.800  23.508  23.251  0.00  0.00    +0.000 N 
ATOM     21  O   UNL     1      25.184  23.984  24.207  0.00  0.00    +0.000 OA
ATOM     22  O   UNL     1      25.225  22.629  22.363  0.00  0.00    +0.000 OA
ENDBRANCH  17  20
ENDBRANCH   2  13
TORSDOF 4
ENDMDL
