MODEL 1
REMARK VINA RESULT:      -7.3      0.000      0.000
REMARK  Name = 
REMARK  4 active torsions:
REMARK  status: ('A' for Active; 'I' for Inactive)
REMARK    1  A    between atoms: C_2  and  C_3
REMARK    2  A    between atoms: C_3  and  S_4
REMARK    3  A    between atoms: S_4  and  C_5
REMARK    4  A    between atoms: C_15  and  C_16
REMARK                            x       y       z     vdW  Elec       q    Type
REMARK                         _______ _______ _______ _____ _____    ______ ____
ROOT
ATOM      1  C   UNL     1      14.609  12.969  33.654  0.00  0.00    +0.000 A 
ATOM      2  N   UNL     1      14.263  13.159  34.939  0.00  0.00    +0.000 NA
ATOM      3  N   UNL     1      14.838  12.536  35.954  0.00  0.00    +0.000 NA
ATOM      4  C   UNL     1      15.818  11.662  35.718  0.00  0.00    +0.000 A 
ATOM      5  C   UNL     1      16.201  11.440  34.418  0.00  0.00    +0.000 A 
ATOM      6  N   UNL     1      15.593  12.097  33.385  0.00  0.00    +0.000 NA
ATOM      7  N   UNL     1      17.198  10.526  34.453  0.00  0.00    +0.000 NA
ATOM      8  C   UNL     1      17.438  10.181  35.729  0.00  0.00    +0.000 A 
ATOM      9  C   UNL     1      18.332   9.306  36.343  0.00  0.00    +0.000 A 
ATOM     10  C   UNL     1      18.359   9.147  37.710  0.00  0.00    +0.000 A 
ATOM     11  C   UNL     1      17.505   9.846  38.534  0.00  0.00    +0.000 A 
ATOM     12  C   UNL     1      16.616  10.716  37.946  0.00  0.00    +0.000 A 
ATOM     13  C   UNL     1      16.586  10.880  36.552  0.00  0.00    +0.000 A 
ENDROOT
BRANCH  11  14
ATOM     14  C   UNL     1      17.560   9.650  40.014  0.00  0.00    +0.000 C 
ATOM     15  C   UNL     1      16.151   9.603  40.529  0.00  0.00    +0.000 C 
ENDBRANCH  11  14
BRANCH   1  16
ATOM     16  S   UNL     1      13.771  13.865  32.327  0.00  0.00    +0.000 S 
BRANCH  16  17
ATOM     17  C   UNL     1      14.496  13.359  30.741  0.00  0.00    +0.000 C 
BRANCH  17  19
ATOM     18  C   UNL     1      16.828  13.562  30.138  0.00  0.00    +0.000 C 
ATOM     19  C   UNL     1      15.677  14.184  30.391  0.00  0.00    +0.000 C 
ENDBRANCH  17  19
ENDBRANCH  16  17
ENDBRANCH   1  16
TORSDOF 4
ENDMDL
MODEL 2
REMARK VINA RESULT:      -7.1      2.786      6.665
REMARK  Name = 
REMARK  4 active torsions:
REMARK  status: ('A' for Active; 'I' for Inactive)
REMARK    1  A    between atoms: C_2  and  C_3
REMARK    2  A    between atoms: C_3  and  S_4
REMARK    3  A    between atoms: S_4  and  C_5
REMARK    4  A    between atoms: C_15  and  C_16
REMARK                            x       y       z     vdW  Elec       q    Type
REMARK                         _______ _______ _______ _____ _____    ______ ____
ROOT
ATOM      1  C   UNL     1      17.451  10.225  37.024  0.00  0.00    +0.000 A 
ATOM      2  N   UNL     1      16.549  11.219  37.091  0.00  0.00    +0.000 NA
ATOM      3  N   UNL     1      15.943  11.732  36.033  0.00  0.00    +0.000 NA
ATOM      4  C   UNL     1      16.224  11.256  34.819  0.00  0.00    +0.000 A 
ATOM      5  C   UNL     1      17.141  10.239  34.709  0.00  0.00    +0.000 A 
ATOM      6  N   UNL     1      17.755   9.724  35.816  0.00  0.00    +0.000 NA
ATOM      7  N   UNL     1      17.243   9.944  33.393  0.00  0.00    +0.000 NA
ATOM      8  C   UNL     1      16.421  10.744  32.694  0.00  0.00    +0.000 A 
ATOM      9  C   UNL     1      16.122  10.879  31.339  0.00  0.00    +0.000 A 
ATOM     10  C   UNL     1      15.212  11.810  30.892  0.00  0.00    +0.000 A 
ATOM     11  C   UNL     1      14.555  12.650  31.763  0.00  0.00    +0.000 A 
ATOM     12  C   UNL     1      14.835  12.531  33.105  0.00  0.00    +0.000 A 
ATOM     13  C   UNL     1      15.763  11.582  33.563  0.00  0.00    +0.000 A 
ENDROOT
BRANCH  11  14
ATOM     14  C   UNL     1      13.573  13.650  31.245  0.00  0.00    +0.000 C 
ATOM     15  C   UNL     1      13.589  14.836  32.165  0.00  0.00    +0.000 C 
ENDBRANCH  11  14
BRANCH   1  16
ATOM     16  S   UNL     1      18.233   9.581  38.522  0.00  0.00    +0.000 S 
BRANCH  16  17
ATOM     17  C   UNL     1      19.929  10.224  38.610  0.00  0.00    +0.000 C 
BRANCH  17  19
ATOM     18  C   UNL     1      20.829  12.443  38.279  0.00  0.00    +0.000 C 
ATOM     19  C   UNL     1      19.948  11.674  38.918  0.00  0.00    +0.000 C 
ENDBRANCH  17  19
ENDBRANCH  16  17
ENDBRANCH   1  16
TORSDOF 4
ENDMDL
MODEL 3
REMARK VINA RESULT:      -7.0      2.760      7.068
REMARK  Name = 
REMARK  4 active torsions:
REMARK  status: ('A' for Active; 'I' for Inactive)
REMARK    1  A    between atoms: C_2  and  C_3
REMARK    2  A    between atoms: C_3  and  S_4
REMARK    3  A    between atoms: S_4  and  C_5
REMARK    4  A    between atoms: C_15  and  C_16
REMARK                            x       y       z     vdW  Elec       q    Type
REMARK                         _______ _______ _______ _____ _____    ______ ____
ROOT
ATOM      1  C   UNL     1      17.885   9.730  37.733  0.00  0.00    +0.000 A 
ATOM      2  N   UNL     1      16.962  10.691  37.913  0.00  0.00    +0.000 NA
ATOM      3  N   UNL     1      16.314  11.281  36.922  0.00  0.00    +0.000 NA
ATOM      4  C   UNL     1      16.572  10.924  35.663  0.00  0.00    +0.000 A 
ATOM      5  C   UNL     1      17.509   9.945  35.437  0.00  0.00    +0.000 A 
ATOM      6  N   UNL     1      18.166   9.348  36.477  0.00  0.00    +0.000 NA
ATOM      7  N   UNL     1      17.581   9.772  34.098  0.00  0.00    +0.000 NA
ATOM      8  C   UNL     1      16.721  10.610  33.496  0.00  0.00    +0.000 A 
ATOM      9  C   UNL     1      16.381  10.858  32.167  0.00  0.00    +0.000 A 
ATOM     10  C   UNL     1      15.437  11.802  31.830  0.00  0.00    +0.000 A 
ATOM     11  C   UNL     1      14.786  12.544  32.790  0.00  0.00    +0.000 A 
ATOM     12  C   UNL     1      15.106  12.311  34.108  0.00  0.00    +0.000 A 
ATOM     13  C   UNL     1      16.069  11.350  34.454  0.00  0.00    +0.000 A 
ENDROOT
BRANCH  11  14
ATOM     14  C   UNL     1      13.766  13.560  32.391  0.00  0.00    +0.000 C 
ATOM     15  C   UNL     1      13.782  13.671  30.894  0.00  0.00    +0.000 C 
ENDBRANCH  11  14
BRANCH   1  16
ATOM     16  S   UNL     1      18.724   8.975  39.145  0.00  0.00    +0.000 S 
BRANCH  16  17
ATOM     17  C   UNL     1      17.880   9.499  40.665  0.00  0.00    +0.000 C 
BRANCH  17  19
ATOM     18  C   UNL     1      15.492   9.328  40.999  0.00  0.00    +0.000 C 
ATOM     19  C   UNL     1      16.661   8.694  40.919  0.00  0.00    +0.000 C 
ENDBRANCH  17  19
ENDBRANCH  16  17
ENDBRANCH   1  16
TORSDOF 4
ENDMDL
MODEL 4
REMARK VINA RESULT:      -6.6      2.565      7.266
REMARK  Name = 
REMARK  4 active torsions:
REMARK  status: ('A' for Active; 'I' for Inactive)
REMARK    1  A    between atoms: C_2  and  C_3
REMARK    2  A    between atoms: C_3  and  S_4
REMARK    3  A    between atoms: S_4  and  C_5
REMARK    4  A    between atoms: C_15  and  C_16
REMARK                            x       y       z     vdW  Elec       q    Type
REMARK                         _______ _______ _______ _____ _____    ______ ____
ROOT
ATOM      1  C   UNL     1      17.878   9.836  37.587  0.00  0.00    +0.000 A 
ATOM      2  N   UNL     1      18.094   9.492  36.305  0.00  0.00    +0.000 NA
ATOM      3  N   UNL     1      17.462  10.042  35.281  0.00  0.00    +0.000 NA
ATOM      4  C   UNL     1      16.553  10.992  35.504  0.00  0.00    +0.000 A 
ATOM      5  C   UNL     1      16.303  11.371  36.800  0.00  0.00    +0.000 A 
ATOM      6  N   UNL     1      16.969  10.790  37.842  0.00  0.00    +0.000 NA
ATOM      7  N   UNL     1      15.356  12.335  36.751  0.00  0.00    +0.000 NA
ATOM      8  C   UNL     1      15.017  12.560  35.471  0.00  0.00    +0.000 A 
ATOM      9  C   UNL     1      14.118  13.421  34.844  0.00  0.00    +0.000 A 
ATOM     10  C   UNL     1      13.974  13.439  33.475  0.00  0.00    +0.000 A 
ATOM     11  C   UNL     1      14.711  12.606  32.663  0.00  0.00    +0.000 A 
ATOM     12  C   UNL     1      15.605  11.750  33.263  0.00  0.00    +0.000 A 
ATOM     13  C   UNL     1      15.754  11.730  34.659  0.00  0.00    +0.000 A 
ENDROOT
BRANCH  11  14
ATOM     14  C   UNL     1      14.530  12.650  31.180  0.00  0.00    +0.000 C 
ATOM     15  C   UNL     1      15.792  13.193  30.575  0.00  0.00    +0.000 C 
ENDBRANCH  11  14
BRANCH   1  16
ATOM     16  S   UNL     1      18.787   9.033  38.927  0.00  0.00    +0.000 S 
BRANCH  16  17
ATOM     17  C   UNL     1      17.590   8.319  40.090  0.00  0.00    +0.000 C 
BRANCH  17  19
ATOM     18  C   UNL     1      15.720   9.488  41.079  0.00  0.00    +0.000 C 
ATOM     19  C   UNL     1      17.042   9.346  41.010  0.00  0.00    +0.000 C 
ENDBRANCH  17  19
ENDBRANCH  16  17
ENDBRANCH   1  16
TORSDOF 4
ENDMDL
MODEL 5
REMARK VINA RESULT:      -6.2      1.489      2.022
REMARK  Name = 
REMARK  4 active torsions:
REMARK  status: ('A' for Active; 'I' for Inactive)
REMARK    1  A    between atoms: C_2  and  C_3
REMARK    2  A    between atoms: C_3  and  S_4
REMARK    3  A    between atoms: S_4  and  C_5
REMARK    4  A    between atoms: C_15  and  C_16
REMARK                            x       y       z     vdW  Elec       q    Type
REMARK                         _______ _______ _______ _____ _____    ______ ____
ROOT
ATOM      1  C   UNL     1      15.196  12.147  34.640  0.00  0.00    +0.000 A 
ATOM      2  N   UNL     1      14.479  12.185  35.776  0.00  0.00    +0.000 NA
ATOM      3  N   UNL     1      14.877  11.640  36.914  0.00  0.00    +0.000 NA
ATOM      4  C   UNL     1      16.052  11.010  36.965  0.00  0.00    +0.000 A 
ATOM      5  C   UNL     1      16.815  10.950  35.824  0.00  0.00    +0.000 A 
ATOM      6  N   UNL     1      16.383  11.522  34.659  0.00  0.00    +0.000 NA
ATOM      7  N   UNL     1      17.940  10.269  36.139  0.00  0.00    +0.000 NA
ATOM      8  C   UNL     1      17.893   9.910  37.432  0.00  0.00    +0.000 A 
ATOM      9  C   UNL     1      18.755   9.211  38.275  0.00  0.00    +0.000 A 
ATOM     10  C   UNL     1      18.443   8.983  39.596  0.00  0.00    +0.000 A 
ATOM     11  C   UNL     1      17.263   9.435  40.146  0.00  0.00    +0.000 A 
ATOM     12  C   UNL     1      16.400  10.129  39.330  0.00  0.00    +0.000 A 
ATOM     13  C   UNL     1      16.716  10.362  37.982  0.00  0.00    +0.000 A 
ENDROOT
BRANCH  11  14
ATOM     14  C   UNL     1      16.954   9.170  41.583  0.00  0.00    +0.000 C 
ATOM     15  C   UNL     1      15.723   8.313  41.643  0.00  0.00    +0.000 C 
ENDBRANCH  11  14
BRANCH   1  16
ATOM     16  S   UNL     1      14.576  12.920  33.127  0.00  0.00    +0.000 S 
BRANCH  16  17
ATOM     17  C   UNL     1      15.469  12.216  31.712  0.00  0.00    +0.000 C 
BRANCH  17  19
ATOM     18  C   UNL     1      14.397  10.052  31.825  0.00  0.00    +0.000 C 
ATOM     19  C   UNL     1      14.708  11.112  31.079  0.00  0.00    +0.000 C 
ENDBRANCH  17  19
ENDBRANCH  16  17
ENDBRANCH   1  16
TORSDOF 4
ENDMDL
MODEL 6
REMARK VINA RESULT:      -6.2     20.629     23.882
REMARK  Name = 
REMARK  4 active torsions:
REMARK  status: ('A' for Active; 'I' for Inactive)
REMARK    1  A    between atoms: C_2  and  C_3
REMARK    2  A    between atoms: C_3  and  S_4
REMARK    3  A    between atoms: S_4  and  C_5
REMARK    4  A    between atoms: C_15  and  C_16
REMARK                            x       y       z     vdW  Elec       q    Type
REMARK                         _______ _______ _______ _____ _____    ______ ____
ROOT
ATOM      1  C   UNL     1      29.712  27.599  19.080  0.00  0.00    +0.000 A 
ATOM      2  N   UNL     1      28.722  28.168  19.788  0.00  0.00    +0.000 NA
ATOM      3  N   UNL     1      28.102  27.573  20.794  0.00  0.00    +0.000 NA
ATOM      4  C   UNL     1      28.460  26.337  21.147  0.00  0.00    +0.000 A 
ATOM      5  C   UNL     1      29.469  25.721  20.448  0.00  0.00    +0.000 A 
ATOM      6  N   UNL     1      30.095  26.356  19.412  0.00  0.00    +0.000 NA
ATOM      7  N   UNL     1      29.635  24.496  20.997  0.00  0.00    +0.000 NA
ATOM      8  C   UNL     1      28.765  24.341  22.007  0.00  0.00    +0.000 A 
ATOM      9  C   UNL     1      28.495  23.309  22.904  0.00  0.00    +0.000 A 
ATOM     10  C   UNL     1      27.517  23.427  23.865  0.00  0.00    +0.000 A 
ATOM     11  C   UNL     1      26.761  24.571  23.986  0.00  0.00    +0.000 A 
ATOM     12  C   UNL     1      27.013  25.602  23.111  0.00  0.00    +0.000 A 
ATOM     13  C   UNL     1      28.009  25.484  22.129  0.00  0.00    +0.000 A 
ENDROOT
BRANCH  11  14
ATOM     14  C   UNL     1      25.707  24.667  25.041  0.00  0.00    +0.000 C 
ATOM     15  C   UNL     1      25.955  23.579  26.045  0.00  0.00    +0.000 C 
ENDBRANCH  11  14
BRANCH   1  16
ATOM     16  S   UNL     1      30.506  28.485  17.719  0.00  0.00    +0.000 S 
BRANCH  16  17
ATOM     17  C   UNL     1      30.637  27.363  16.297  0.00  0.00    +0.000 C 
BRANCH  17  19
ATOM     18  C   UNL     1      28.930  26.036  15.215  0.00  0.00    +0.000 C 
ATOM     19  C   UNL     1      29.350  27.250  15.569  0.00  0.00    +0.000 C 
ENDBRANCH  17  19
ENDBRANCH  16  17
ENDBRANCH   1  16
TORSDOF 4
ENDMDL
MODEL 7
REMARK VINA RESULT:      -5.9     19.754     21.644
REMARK  Name = 
REMARK  4 active torsions:
REMARK  status: ('A' for Active; 'I' for Inactive)
REMARK    1  A    between atoms: C_2  and  C_3
REMARK    2  A    between atoms: C_3  and  S_4
REMARK    3  A    between atoms: S_4  and  C_5
REMARK    4  A    between atoms: C_15  and  C_16
REMARK                            x       y       z     vdW  Elec       q    Type
REMARK                         _______ _______ _______ _____ _____    ______ ____
ROOT
ATOM      1  C   UNL     1      33.484   1.904  33.548  0.00  0.00    +0.000 A 
ATOM      2  N   UNL     1      34.159   1.178  32.640  0.00  0.00    +0.000 NA
ATOM      3  N   UNL     1      34.163  -0.145  32.613  0.00  0.00    +0.000 NA
ATOM      4  C   UNL     1      33.467  -0.822  33.528  0.00  0.00    +0.000 A 
ATOM      5  C   UNL     1      32.764  -0.117  34.473  0.00  0.00    +0.000 A 
ATOM      6  N   UNL     1      32.774   1.251  34.481  0.00  0.00    +0.000 NA
ATOM      7  N   UNL     1      32.155  -1.025  35.269  0.00  0.00    +0.000 NA
ATOM      8  C   UNL     1      32.460  -2.262  34.843  0.00  0.00    +0.000 A 
ATOM      9  C   UNL     1      32.121  -3.544  35.272  0.00  0.00    +0.000 A 
ATOM     10  C   UNL     1      32.592  -4.666  34.628  0.00  0.00    +0.000 A 
ATOM     11  C   UNL     1      33.420  -4.573  33.531  0.00  0.00    +0.000 A 
ATOM     12  C   UNL     1      33.764  -3.315  33.092  0.00  0.00    +0.000 A 
ATOM     13  C   UNL     1      33.285  -2.170  33.747  0.00  0.00    +0.000 A 
ENDROOT
BRANCH  11  14
ATOM     14  C   UNL     1      33.914  -5.810  32.855  0.00  0.00    +0.000 C 
ATOM     15  C   UNL     1      33.966  -5.543  31.379  0.00  0.00    +0.000 C 
ENDBRANCH  11  14
BRANCH   1  16
ATOM     16  S   UNL     1      33.533   3.711  33.511  0.00  0.00    +0.000 S 
BRANCH  16  17
ATOM     17  C   UNL     1      34.406   4.295  34.992  0.00  0.00    +0.000 C 
BRANCH  17  19
ATOM     18  C   UNL     1      36.006   6.106  35.047  0.00  0.00    +0.000 C 
ATOM     19  C   UNL     1      34.734   5.738  34.900  0.00  0.00    +0.000 C 
ENDBRANCH  17  19
ENDBRANCH  16  17
ENDBRANCH   1  16
TORSDOF 4
ENDMDL
MODEL 8
REMARK VINA RESULT:      -5.9     21.103     22.765
REMARK  Name = 
REMARK  4 active torsions:
REMARK  status: ('A' for Active; 'I' for Inactive)
REMARK    1  A    between atoms: C_2  and  C_3
REMARK    2  A    between atoms: C_3  and  S_4
REMARK    3  A    between atoms: S_4  and  C_5
REMARK    4  A    between atoms: C_15  and  C_16
REMARK                            x       y       z     vdW  Elec       q    Type
REMARK                         _______ _______ _______ _____ _____    ______ ____
ROOT
ATOM      1  C   UNL     1      23.640  -7.228  24.252  0.00  0.00    +0.000 A 
ATOM      2  N   UNL     1      23.418  -8.395  24.881  0.00  0.00    +0.000 NA
ATOM      3  N   UNL     1      22.313  -8.666  25.558  0.00  0.00    +0.000 NA
ATOM      4  C   UNL     1      21.349  -7.747  25.637  0.00  0.00    +0.000 A 
ATOM      5  C   UNL     1      21.538  -6.541  25.007  0.00  0.00    +0.000 A 
ATOM      6  N   UNL     1      22.688  -6.284  24.313  0.00  0.00    +0.000 NA
ATOM      7  N   UNL     1      20.431  -5.800  25.237  0.00  0.00    +0.000 NA
ATOM      8  C   UNL     1      19.571  -6.509  25.985  0.00  0.00    +0.000 A 
ATOM      9  C   UNL     1      18.304  -6.254  26.509  0.00  0.00    +0.000 A 
ATOM     10  C   UNL     1      17.634  -7.192  27.262  0.00  0.00    +0.000 A 
ATOM     11  C   UNL     1      18.185  -8.425  27.532  0.00  0.00    +0.000 A 
ATOM     12  C   UNL     1      19.434  -8.697  27.022  0.00  0.00    +0.000 A 
ATOM     13  C   UNL     1      20.118  -7.742  26.254  0.00  0.00    +0.000 A 
ENDROOT
BRANCH  11  14
ATOM     14  C   UNL     1      17.432  -9.421  28.353  0.00  0.00    +0.000 C 
ATOM     15  C   UNL     1      18.160  -9.597  29.654  0.00  0.00    +0.000 C 
ENDBRANCH  11  14
BRANCH   1  16
ATOM     16  S   UNL     1      25.179  -6.941  23.349  0.00  0.00    +0.000 S 
BRANCH  16  17
ATOM     17  C   UNL     1      26.182  -8.453  23.422  0.00  0.00    +0.000 C 
BRANCH  17  19
ATOM     18  C   UNL     1      28.426  -8.848  22.614  0.00  0.00    +0.000 C 
ATOM     19  C   UNL     1      27.172  -8.507  22.320  0.00  0.00    +0.000 C 
ENDBRANCH  17  19
ENDBRANCH  16  17
ENDBRANCH   1  16
TORSDOF 4
ENDMDL
MODEL 9
REMARK VINA RESULT:      -5.7     19.661     21.784
REMARK  Name = 
REMARK  4 active torsions:
REMARK  status: ('A' for Active; 'I' for Inactive)
REMARK    1  A    between atoms: C_2  and  C_3
REMARK    2  A    between atoms: C_3  and  S_4
REMARK    3  A    between atoms: S_4  and  C_5
REMARK    4  A    between atoms: C_15  and  C_16
REMARK                            x       y       z     vdW  Elec       q    Type
REMARK                         _______ _______ _______ _____ _____    ______ ____
ROOT
ATOM      1  C   UNL     1      33.854  -2.337  34.514  0.00  0.00    +0.000 A 
ATOM      2  N   UNL     1      34.014  -1.776  35.725  0.00  0.00    +0.000 NA
ATOM      3  N   UNL     1      34.014  -0.470  35.935  0.00  0.00    +0.000 NA
ATOM      4  C   UNL     1      33.849   0.361  34.905  0.00  0.00    +0.000 A 
ATOM      5  C   UNL     1      33.682  -0.173  33.650  0.00  0.00    +0.000 A 
ATOM      6  N   UNL     1      33.685  -1.526  33.458  0.00  0.00    +0.000 NA
ATOM      7  N   UNL     1      33.537   0.867  32.797  0.00  0.00    +0.000 NA
ATOM      8  C   UNL     1      33.610   2.018  33.485  0.00  0.00    +0.000 A 
ATOM      9  C   UNL     1      33.528   3.363  33.131  0.00  0.00    +0.000 A 
ATOM     10  C   UNL     1      33.640   4.363  34.071  0.00  0.00    +0.000 A 
ATOM     11  C   UNL     1      33.837   4.079  35.404  0.00  0.00    +0.000 A 
ATOM     12  C   UNL     1      33.919   2.756  35.773  0.00  0.00    +0.000 A 
ATOM     13  C   UNL     1      33.805   1.735  34.816  0.00  0.00    +0.000 A 
ENDROOT
BRANCH  11  14
ATOM     14  C   UNL     1      33.954   5.187  36.399  0.00  0.00    +0.000 C 
ATOM     15  C   UNL     1      34.033   6.482  35.645  0.00  0.00    +0.000 C 
ENDBRANCH  11  14
BRANCH   1  16
ATOM     16  S   UNL     1      33.866  -4.133  34.317  0.00  0.00    +0.000 S 
BRANCH  16  17
ATOM     17  C   UNL     1      33.653  -4.522  32.556  0.00  0.00    +0.000 C 
BRANCH  17  19
ATOM     18  C   UNL     1      34.351  -6.749  31.927  0.00  0.00    +0.000 C 
ATOM     19  C   UNL     1      34.688  -5.469  32.076  0.00  0.00    +0.000 C 
ENDBRANCH  17  19
ENDBRANCH  16  17
ENDBRANCH   1  16
TORSDOF 4
ENDMDL
MODEL 10
REMARK VINA RESULT:      -5.7      3.539      7.403
REMARK  Name = 
REMARK  4 active torsions:
REMARK  status: ('A' for Active; 'I' for Inactive)
REMARK    1  A    between atoms: C_2  and  C_3
REMARK    2  A    between atoms: C_3  and  S_4
REMARK    3  A    between atoms: S_4  and  C_5
REMARK    4  A    between atoms: C_15  and  C_16
REMARK                            x       y       z     vdW  Elec       q    Type
REMARK                         _______ _______ _______ _____ _____    ______ ____
ROOT
ATOM      1  C   UNL     1      17.296   9.547  40.042  0.00  0.00    +0.000 A 
ATOM      2  N   UNL     1      16.196  10.255  39.733  0.00  0.00    +0.000 NA
ATOM      3  N   UNL     1      15.893  10.643  38.505  0.00  0.00    +0.000 NA
ATOM      4  C   UNL     1      16.708  10.328  37.497  0.00  0.00    +0.000 A 
ATOM      5  C   UNL     1      17.843   9.605  37.772  0.00  0.00    +0.000 A 
ATOM      6  N   UNL     1      18.135   9.214  39.049  0.00  0.00    +0.000 NA
ATOM      7  N   UNL     1      18.485   9.421  36.596  0.00  0.00    +0.000 NA
ATOM      8  C   UNL     1      17.783  10.005  35.611  0.00  0.00    +0.000 A 
ATOM      9  C   UNL     1      17.964  10.129  34.235  0.00  0.00    +0.000 A 
ATOM     10  C   UNL     1      17.058  10.802  33.447  0.00  0.00    +0.000 A 
ATOM     11  C   UNL     1      15.931  11.385  33.983  0.00  0.00    +0.000 A 
ATOM     12  C   UNL     1      15.734  11.272  35.340  0.00  0.00    +0.000 A 
ATOM     13  C   UNL     1      16.657  10.586  36.145  0.00  0.00    +0.000 A 
ENDROOT
BRANCH  11  14
ATOM     14  C   UNL     1      14.966  12.108  33.101  0.00  0.00    +0.000 C 
ATOM     15  C   UNL     1      14.783  11.298  31.850  0.00  0.00    +0.000 C 
ENDBRANCH  11  14
BRANCH   1  16
ATOM     16  S   UNL     1      17.634   9.058  41.749  0.00  0.00    +0.000 S 
BRANCH  16  17
ATOM     17  C   UNL     1      16.637   7.590  42.137  0.00  0.00    +0.000 C 
BRANCH  17  19
ATOM     18  C   UNL     1      17.847   5.702  41.233  0.00  0.00    +0.000 C 
ATOM     19  C   UNL     1      16.808   6.528  41.116  0.00  0.00    +0.000 C 
ENDBRANCH  17  19
ENDBRANCH  16  17
ENDBRANCH   1  16
TORSDOF 4
ENDMDL
