MODEL 1
REMARK VINA RESULT:      -5.7      0.000      0.000
REMARK  Name = 
REMARK  4 active torsions:
REMARK  status: ('A' for Active; 'I' for Inactive)
REMARK    1  A    between atoms: C_2  and  C_3
REMARK    2  A    between atoms: C_3  and  N_4
REMARK    3  A    between atoms: C_15  and  O_16
REMARK    4  A    between atoms: O_16  and  C_17
REMARK                            x       y       z     vdW  Elec       q    Type
REMARK                         _______ _______ _______ _____ _____    ______ ____
ROOT
ATOM      1  N   UNL     1      30.041  22.735  30.774  0.00  0.00    +0.000 NA
ATOM      2  C   UNL     1      28.888  22.893  29.957  0.00  0.00    +0.000 A 
ATOM      3  N   UNL     1      27.652  23.060  30.414  0.00  0.00    +0.000 NA
ATOM      4  C   UNL     1      26.573  23.209  29.617  0.00  0.00    +0.000 A 
ATOM      5  N   UNL     1      26.773  23.185  28.279  0.00  0.00    +0.000 NA
ATOM      6  C   UNL     1      27.989  23.021  27.746  0.00  0.00    +0.000 A 
ATOM      7  C   UNL     1      29.080  22.871  28.576  0.00  0.00    +0.000 A 
ATOM      8  N   UNL     1      30.168  22.726  27.799  0.00  0.00    +0.000 NA
ATOM      9  C   UNL     1      29.833  22.775  26.492  0.00  0.00    +0.000 A 
ATOM     10  C   UNL     1      30.581  22.677  25.316  0.00  0.00    +0.000 A 
ATOM     11  C   UNL     1      29.926  22.770  24.108  0.00  0.00    +0.000 A 
ATOM     12  C   UNL     1      28.565  22.954  24.019  0.00  0.00    +0.000 A 
ATOM     13  C   UNL     1      27.863  23.046  25.204  0.00  0.00    +0.000 A 
ATOM     14  C   UNL     1      28.467  22.961  26.445  0.00  0.00    +0.000 A 
ENDROOT
BRANCH   1  15
ATOM     15  C   UNL     1      29.965  22.742  32.222  0.00  0.00    +0.000 C 
BRANCH  15  17
ATOM     16  C   UNL     1      30.634  21.210  34.028  0.00  0.00    +0.000 C 
ATOM     17  C   UNL     1      30.572  21.511  32.744  0.00  0.00    +0.000 C 
ENDBRANCH  15  17
ENDBRANCH   1  15
BRANCH  12  18
ATOM     18  O   UNL     1      27.951  23.041  22.780  0.00  0.00    +0.000 OA
BRANCH  18  19
ATOM     19  C   UNL     1      28.501  23.946  21.837  0.00  0.00    +0.000 C 
ATOM     20  C   UNL     1      27.823  25.271  22.030  0.00  0.00    +0.000 C 
ENDBRANCH  18  19
ENDBRANCH  12  18
TORSDOF 4
ENDMDL
MODEL 2
REMARK VINA RESULT:      -5.5     32.575     33.094
REMARK  Name = 
REMARK  4 active torsions:
REMARK  status: ('A' for Active; 'I' for Inactive)
REMARK    1  A    between atoms: C_2  and  C_3
REMARK    2  A    between atoms: C_3  and  N_4
REMARK    3  A    between atoms: C_15  and  O_16
REMARK    4  A    between atoms: O_16  and  C_17
REMARK                            x       y       z     vdW  Elec       q    Type
REMARK                         _______ _______ _______ _____ _____    ______ ____
ROOT
ATOM      1  N   UNL     1      21.264  -7.267  25.048  0.00  0.00    +0.000 NA
ATOM      2  C   UNL     1      20.070  -6.740  25.613  0.00  0.00    +0.000 A 
ATOM      3  N   UNL     1      19.958  -5.536  26.164  0.00  0.00    +0.000 NA
ATOM      4  C   UNL     1      18.813  -5.059  26.693  0.00  0.00    +0.000 A 
ATOM      5  N   UNL     1      17.722  -5.859  26.655  0.00  0.00    +0.000 NA
ATOM      6  C   UNL     1      17.758  -7.083  26.116  0.00  0.00    +0.000 A 
ATOM      7  C   UNL     1      18.938  -7.554  25.580  0.00  0.00    +0.000 A 
ATOM      8  N   UNL     1      18.708  -8.793  25.109  0.00  0.00    +0.000 NA
ATOM      9  C   UNL     1      17.422  -9.153  25.317  0.00  0.00    +0.000 A 
ATOM     10  C   UNL     1      16.701 -10.311  25.019  0.00  0.00    +0.000 A 
ATOM     11  C   UNL     1      15.370 -10.368  25.369  0.00  0.00    +0.000 A 
ATOM     12  C   UNL     1      14.728  -9.326  26.000  0.00  0.00    +0.000 A 
ATOM     13  C   UNL     1      15.477  -8.200  26.276  0.00  0.00    +0.000 A 
ATOM     14  C   UNL     1      16.816  -8.086  25.948  0.00  0.00    +0.000 A 
ENDROOT
BRANCH   1  15
ATOM     15  C   UNL     1      22.501  -6.513  25.025  0.00  0.00    +0.000 C 
BRANCH  15  17
ATOM     16  C   UNL     1      24.560  -6.815  23.712  0.00  0.00    +0.000 C 
ATOM     17  C   UNL     1      23.244  -6.839  23.801  0.00  0.00    +0.000 C 
ENDBRANCH  15  17
ENDBRANCH   1  15
BRANCH  12  18
ATOM     18  O   UNL     1      13.387  -9.431  26.333  0.00  0.00    +0.000 OA
BRANCH  18  19
ATOM     19  C   UNL     1      12.548  -8.330  26.027  0.00  0.00    +0.000 C 
ATOM     20  C   UNL     1      12.172  -8.432  24.578  0.00  0.00    +0.000 C 
ENDBRANCH  18  19
ENDBRANCH  12  18
TORSDOF 4
ENDMDL
MODEL 3
REMARK VINA RESULT:      -5.5      5.416      9.782
REMARK  Name = 
REMARK  4 active torsions:
REMARK  status: ('A' for Active; 'I' for Inactive)
REMARK    1  A    between atoms: C_2  and  C_3
REMARK    2  A    between atoms: C_3  and  N_4
REMARK    3  A    between atoms: C_15  and  O_16
REMARK    4  A    between atoms: O_16  and  C_17
REMARK                            x       y       z     vdW  Elec       q    Type
REMARK                         _______ _______ _______ _____ _____    ______ ____
ROOT
ATOM      1  N   UNL     1      30.621  26.835  18.578  0.00  0.00    +0.000 NA
ATOM      2  C   UNL     1      29.629  27.308  19.482  0.00  0.00    +0.000 A 
ATOM      3  N   UNL     1      29.113  28.532  19.468  0.00  0.00    +0.000 NA
ATOM      4  C   UNL     1      28.173  28.957  20.337  0.00  0.00    +0.000 A 
ATOM      5  N   UNL     1      27.738  28.079  21.271  0.00  0.00    +0.000 NA
ATOM      6  C   UNL     1      28.212  26.830  21.346  0.00  0.00    +0.000 A 
ATOM      7  C   UNL     1      29.173  26.413  20.449  0.00  0.00    +0.000 A 
ATOM      8  N   UNL     1      29.474  25.134  20.736  0.00  0.00    +0.000 NA
ATOM      9  C   UNL     1      28.747  24.696  21.788  0.00  0.00    +0.000 A 
ATOM     10  C   UNL     1      28.690  23.472  22.458  0.00  0.00    +0.000 A 
ATOM     11  C   UNL     1      27.823  23.341  23.520  0.00  0.00    +0.000 A 
ATOM     12  C   UNL     1      27.012  24.370  23.941  0.00  0.00    +0.000 A 
ATOM     13  C   UNL     1      27.098  25.563  23.251  0.00  0.00    +0.000 A 
ATOM     14  C   UNL     1      27.951  25.753  22.179  0.00  0.00    +0.000 A 
ENDROOT
BRANCH   1  15
ATOM     15  C   UNL     1      31.170  27.673  17.531  0.00  0.00    +0.000 C 
BRANCH  15  17
ATOM     16  C   UNL     1      29.547  27.907  15.697  0.00  0.00    +0.000 C 
ATOM     17  C   UNL     1      30.578  27.291  16.243  0.00  0.00    +0.000 C 
ENDBRANCH  15  17
ENDBRANCH   1  15
BRANCH  12  18
ATOM     18  O   UNL     1      26.154  24.190  25.015  0.00  0.00    +0.000 OA
BRANCH  18  19
ATOM     19  C   UNL     1      26.592  23.351  26.070  0.00  0.00    +0.000 C 
ATOM     20  C   UNL     1      25.969  23.853  27.339  0.00  0.00    +0.000 C 
ENDBRANCH  18  19
ENDBRANCH  12  18
TORSDOF 4
ENDMDL
MODEL 4
REMARK VINA RESULT:      -5.4      1.736      2.000
REMARK  Name = 
REMARK  4 active torsions:
REMARK  status: ('A' for Active; 'I' for Inactive)
REMARK    1  A    between atoms: C_2  and  C_3
REMARK    2  A    between atoms: C_3  and  N_4
REMARK    3  A    between atoms: C_15  and  O_16
REMARK    4  A    between atoms: O_16  and  C_17
REMARK                            x       y       z     vdW  Elec       q    Type
REMARK                         _______ _______ _______ _____ _____    ______ ____
ROOT
ATOM      1  N   UNL     1      31.871  22.354  30.479  0.00  0.00    +0.000 NA
ATOM      2  C   UNL     1      30.533  22.480  30.012  0.00  0.00    +0.000 A 
ATOM      3  N   UNL     1      29.458  22.515  30.791  0.00  0.00    +0.000 NA
ATOM      4  C   UNL     1      28.199  22.635  30.323  0.00  0.00    +0.000 A 
ATOM      5  N   UNL     1      28.033  22.723  28.983  0.00  0.00    +0.000 NA
ATOM      6  C   UNL     1      29.068  22.695  28.136  0.00  0.00    +0.000 A 
ATOM      7  C   UNL     1      30.348  22.572  28.633  0.00  0.00    +0.000 A 
ATOM      8  N   UNL     1      31.194  22.569  27.587  0.00  0.00    +0.000 NA
ATOM      9  C   UNL     1      30.518  22.685  26.424  0.00  0.00    +0.000 A 
ATOM     10  C   UNL     1      30.926  22.731  25.089  0.00  0.00    +0.000 A 
ATOM     11  C   UNL     1      29.967  22.857  24.109  0.00  0.00    +0.000 A 
ATOM     12  C   UNL     1      28.624  22.940  24.399  0.00  0.00    +0.000 A 
ATOM     13  C   UNL     1      28.262  22.891  25.730  0.00  0.00    +0.000 A 
ATOM     14  C   UNL     1      29.181  22.765  26.756  0.00  0.00    +0.000 A 
ENDROOT
BRANCH   1  15
ATOM     15  C   UNL     1      32.187  22.251  31.890  0.00  0.00    +0.000 C 
BRANCH  15  17
ATOM     16  C   UNL     1      34.562  21.920  31.340  0.00  0.00    +0.000 C 
ATOM     17  C   UNL     1      33.494  21.603  32.048  0.00  0.00    +0.000 C 
ENDBRANCH  15  17
ENDBRANCH   1  15
BRANCH  12  18
ATOM     18  O   UNL     1      27.695  23.067  23.378  0.00  0.00    +0.000 OA
BRANCH  18  19
ATOM     19  C   UNL     1      26.576  23.905  23.610  0.00  0.00    +0.000 C 
ATOM     20  C   UNL     1      25.341  23.061  23.483  0.00  0.00    +0.000 C 
ENDBRANCH  18  19
ENDBRANCH  12  18
TORSDOF 4
ENDMDL
MODEL 5
REMARK VINA RESULT:      -5.3     31.776     32.330
REMARK  Name = 
REMARK  4 active torsions:
REMARK  status: ('A' for Active; 'I' for Inactive)
REMARK    1  A    between atoms: C_2  and  C_3
REMARK    2  A    between atoms: C_3  and  N_4
REMARK    3  A    between atoms: C_15  and  O_16
REMARK    4  A    between atoms: O_16  and  C_17
REMARK                            x       y       z     vdW  Elec       q    Type
REMARK                         _______ _______ _______ _____ _____    ______ ____
ROOT
ATOM      1  N   UNL     1      25.072  -7.835  23.327  0.00  0.00    +0.000 NA
ATOM      2  C   UNL     1      24.231  -8.694  24.088  0.00  0.00    +0.000 A 
ATOM      3  N   UNL     1      24.478  -9.975  24.334  0.00  0.00    +0.000 NA
ATOM      4  C   UNL     1      23.663 -10.769  25.059  0.00  0.00    +0.000 A 
ATOM      5  N   UNL     1      22.532 -10.218  25.559  0.00  0.00    +0.000 NA
ATOM      6  C   UNL     1      22.217  -8.934  25.353  0.00  0.00    +0.000 A 
ATOM      7  C   UNL     1      23.063  -8.139  24.609  0.00  0.00    +0.000 A 
ATOM      8  N   UNL     1      22.523  -6.908  24.553  0.00  0.00    +0.000 NA
ATOM      9  C   UNL     1      21.355  -6.867  25.231  0.00  0.00    +0.000 A 
ATOM     10  C   UNL     1      20.430  -5.847  25.468  0.00  0.00    +0.000 A 
ATOM     11  C   UNL     1      19.310  -6.132  26.218  0.00  0.00    +0.000 A 
ATOM     12  C   UNL     1      19.072  -7.382  26.741  0.00  0.00    +0.000 A 
ATOM     13  C   UNL     1      20.011  -8.362  26.485  0.00  0.00    +0.000 A 
ATOM     14  C   UNL     1      21.153  -8.134  25.739  0.00  0.00    +0.000 A 
ENDROOT
BRANCH   1  15
ATOM     15  C   UNL     1      26.312  -8.300  22.736  0.00  0.00    +0.000 C 
BRANCH  15  17
ATOM     16  C   UNL     1      28.266  -7.187  21.738  0.00  0.00    +0.000 C 
ATOM     17  C   UNL     1      27.205  -7.155  22.523  0.00  0.00    +0.000 C 
ENDBRANCH  15  17
ENDBRANCH   1  15
BRANCH  12  18
ATOM     18  O   UNL     1      17.931  -7.621  27.490  0.00  0.00    +0.000 OA
BRANCH  18  19
ATOM     19  C   UNL     1      16.695  -7.166  26.965  0.00  0.00    +0.000 C 
ATOM     20  C   UNL     1      16.130  -8.265  26.114  0.00  0.00    +0.000 C 
ENDBRANCH  18  19
ENDBRANCH  12  18
TORSDOF 4
ENDMDL
MODEL 6
REMARK VINA RESULT:      -5.3     31.713     32.102
REMARK  Name = 
REMARK  4 active torsions:
REMARK  status: ('A' for Active; 'I' for Inactive)
REMARK    1  A    between atoms: C_2  and  C_3
REMARK    2  A    between atoms: C_3  and  N_4
REMARK    3  A    between atoms: C_15  and  O_16
REMARK    4  A    between atoms: O_16  and  C_17
REMARK                            x       y       z     vdW  Elec       q    Type
REMARK                         _______ _______ _______ _____ _____    ______ ____
ROOT
ATOM      1  N   UNL     1      19.884  -7.112  25.768  0.00  0.00    +0.000 NA
ATOM      2  C   UNL     1      20.704  -8.271  25.685  0.00  0.00    +0.000 A 
ATOM      3  N   UNL     1      20.353  -9.481  26.106  0.00  0.00    +0.000 NA
ATOM      4  C   UNL     1      21.150 -10.565  26.016  0.00  0.00    +0.000 A 
ATOM      5  N   UNL     1      22.374 -10.400  25.462  0.00  0.00    +0.000 NA
ATOM      6  C   UNL     1      22.796  -9.213  25.015  0.00  0.00    +0.000 A 
ATOM      7  C   UNL     1      21.968  -8.115  25.116  0.00  0.00    +0.000 A 
ATOM      8  N   UNL     1      22.622  -7.059  24.600  0.00  0.00    +0.000 NA
ATOM      9  C   UNL     1      23.848  -7.422  24.165  0.00  0.00    +0.000 A 
ATOM     10  C   UNL     1      24.891  -6.713  23.564  0.00  0.00    +0.000 A 
ATOM     11  C   UNL     1      26.043  -7.390  23.230  0.00  0.00    +0.000 A 
ATOM     12  C   UNL     1      26.203  -8.736  23.468  0.00  0.00    +0.000 A 
ATOM     13  C   UNL     1      25.149  -9.400  24.063  0.00  0.00    +0.000 A 
ATOM     14  C   UNL     1      23.969  -8.773  24.420  0.00  0.00    +0.000 A 
ENDROOT
BRANCH   1  15
ATOM     15  C   UNL     1      18.552  -7.152  26.339  0.00  0.00    +0.000 C 
BRANCH  15  17
ATOM     16  C   UNL     1      18.932  -4.745  26.684  0.00  0.00    +0.000 C 
ATOM     17  C   UNL     1      18.235  -5.841  26.919  0.00  0.00    +0.000 C 
ENDBRANCH  15  17
ENDBRANCH   1  15
BRANCH  12  18
ATOM     18  O   UNL     1      27.382  -9.373  23.114  0.00  0.00    +0.000 OA
BRANCH  18  19
ATOM     19  C   UNL     1      28.252  -8.695  22.223  0.00  0.00    +0.000 C 
ATOM     20  C   UNL     1      29.631  -8.737  22.813  0.00  0.00    +0.000 C 
ENDBRANCH  18  19
ENDBRANCH  12  18
TORSDOF 4
ENDMDL
MODEL 7
REMARK VINA RESULT:      -5.3     31.998     32.494
REMARK  Name = 
REMARK  4 active torsions:
REMARK  status: ('A' for Active; 'I' for Inactive)
REMARK    1  A    between atoms: C_2  and  C_3
REMARK    2  A    between atoms: C_3  and  N_4
REMARK    3  A    between atoms: C_15  and  O_16
REMARK    4  A    between atoms: O_16  and  C_17
REMARK                            x       y       z     vdW  Elec       q    Type
REMARK                         _______ _______ _______ _____ _____    ______ ____
ROOT
ATOM      1  N   UNL     1      16.434  -8.740  25.778  0.00  0.00    +0.000 NA
ATOM      2  C   UNL     1      17.389  -7.721  26.048  0.00  0.00    +0.000 A 
ATOM      3  N   UNL     1      17.142  -6.610  26.732  0.00  0.00    +0.000 NA
ATOM      4  C   UNL     1      18.067  -5.659  26.975  0.00  0.00    +0.000 A 
ATOM      5  N   UNL     1      19.314  -5.858  26.489  0.00  0.00    +0.000 NA
ATOM      6  C   UNL     1      19.638  -6.952  25.791  0.00  0.00    +0.000 A 
ATOM      7  C   UNL     1      18.679  -7.914  25.553  0.00  0.00    +0.000 A 
ATOM      8  N   UNL     1      19.255  -8.898  24.840  0.00  0.00    +0.000 NA
ATOM      9  C   UNL     1      20.554  -8.619  24.601  0.00  0.00    +0.000 A 
ATOM     10  C   UNL     1      21.563  -9.305  23.921  0.00  0.00    +0.000 A 
ATOM     11  C   UNL     1      22.817  -8.738  23.853  0.00  0.00    +0.000 A 
ATOM     12  C   UNL     1      23.109  -7.524  24.431  0.00  0.00    +0.000 A 
ATOM     13  C   UNL     1      22.084  -6.878  25.094  0.00  0.00    +0.000 A 
ATOM     14  C   UNL     1      20.807  -7.399  25.194  0.00  0.00    +0.000 A 
ENDROOT
BRANCH   1  15
ATOM     15  C   UNL     1      15.063  -8.650  26.241  0.00  0.00    +0.000 C 
BRANCH  15  17
ATOM     16  C   UNL     1      14.532  -8.672  23.839  0.00  0.00    +0.000 C 
ATOM     17  C   UNL     1      14.155  -8.796  25.097  0.00  0.00    +0.000 C 
ENDBRANCH  15  17
ENDBRANCH   1  15
BRANCH  12  18
ATOM     18  O   UNL     1      24.386  -6.994  24.336  0.00  0.00    +0.000 OA
BRANCH  18  19
ATOM     19  C   UNL     1      25.076  -7.161  23.109  0.00  0.00    +0.000 C 
ATOM     20  C   UNL     1      26.308  -7.971  23.387  0.00  0.00    +0.000 C 
ENDBRANCH  18  19
ENDBRANCH  12  18
TORSDOF 4
ENDMDL
MODEL 8
REMARK VINA RESULT:      -5.2      1.388      2.726
REMARK  Name = 
REMARK  4 active torsions:
REMARK  status: ('A' for Active; 'I' for Inactive)
REMARK    1  A    between atoms: C_2  and  C_3
REMARK    2  A    between atoms: C_3  and  N_4
REMARK    3  A    between atoms: C_15  and  O_16
REMARK    4  A    between atoms: O_16  and  C_17
REMARK                            x       y       z     vdW  Elec       q    Type
REMARK                         _______ _______ _______ _____ _____    ______ ____
ROOT
ATOM      1  N   UNL     1      29.835  22.923  31.606  0.00  0.00    +0.000 NA
ATOM      2  C   UNL     1      30.209  22.646  30.262  0.00  0.00    +0.000 A 
ATOM      3  N   UNL     1      31.405  22.211  29.882  0.00  0.00    +0.000 NA
ATOM      4  C   UNL     1      31.735  21.956  28.599  0.00  0.00    +0.000 A 
ATOM      5  N   UNL     1      30.787  22.157  27.655  0.00  0.00    +0.000 NA
ATOM      6  C   UNL     1      29.560  22.593  27.962  0.00  0.00    +0.000 A 
ATOM      7  C   UNL     1      29.241  22.849  29.279  0.00  0.00    +0.000 A 
ATOM      8  N   UNL     1      27.964  23.270  29.316  0.00  0.00    +0.000 NA
ATOM      9  C   UNL     1      27.434  23.300  28.074  0.00  0.00    +0.000 A 
ATOM     10  C   UNL     1      26.173  23.655  27.589  0.00  0.00    +0.000 A 
ATOM     11  C   UNL     1      25.941  23.575  26.233  0.00  0.00    +0.000 A 
ATOM     12  C   UNL     1      26.905  23.158  25.344  0.00  0.00    +0.000 A 
ATOM     13  C   UNL     1      28.137  22.816  25.864  0.00  0.00    +0.000 A 
ATOM     14  C   UNL     1      28.427  22.877  27.215  0.00  0.00    +0.000 A 
ENDROOT
BRANCH   1  15
ATOM     15  C   UNL     1      30.756  22.749  32.712  0.00  0.00    +0.000 C 
BRANCH  15  17
ATOM     16  C   UNL     1      30.600  21.164  34.587  0.00  0.00    +0.000 C 
ATOM     17  C   UNL     1      30.569  21.414  33.292  0.00  0.00    +0.000 C 
ENDBRANCH  15  17
ENDBRANCH   1  15
BRANCH  12  18
ATOM     18  O   UNL     1      26.624  23.093  23.988  0.00  0.00    +0.000 OA
BRANCH  18  19
ATOM     19  C   UNL     1      26.564  24.315  23.272  0.00  0.00    +0.000 C 
ATOM     20  C   UNL     1      27.146  24.074  21.910  0.00  0.00    +0.000 C 
ENDBRANCH  18  19
ENDBRANCH  12  18
TORSDOF 4
ENDMDL
MODEL 9
REMARK VINA RESULT:      -5.2      2.673      7.455
REMARK  Name = 
REMARK  4 active torsions:
REMARK  status: ('A' for Active; 'I' for Inactive)
REMARK    1  A    between atoms: C_2  and  C_3
REMARK    2  A    between atoms: C_3  and  N_4
REMARK    3  A    between atoms: C_15  and  O_16
REMARK    4  A    between atoms: O_16  and  C_17
REMARK                            x       y       z     vdW  Elec       q    Type
REMARK                         _______ _______ _______ _____ _____    ______ ____
ROOT
ATOM      1  N   UNL     1      28.397  24.093  22.860  0.00  0.00    +0.000 NA
ATOM      2  C   UNL     1      29.313  23.688  23.871  0.00  0.00    +0.000 A 
ATOM      3  N   UNL     1      30.610  23.476  23.679  0.00  0.00    +0.000 NA
ATOM      4  C   UNL     1      31.458  23.092  24.655  0.00  0.00    +0.000 A 
ATOM      5  N   UNL     1      30.948  22.916  25.896  0.00  0.00    +0.000 NA
ATOM      6  C   UNL     1      29.652  23.112  26.166  0.00  0.00    +0.000 A 
ATOM      7  C   UNL     1      28.800  23.504  25.155  0.00  0.00    +0.000 A 
ATOM      8  N   UNL     1      27.569  23.629  25.682  0.00  0.00    +0.000 NA
ATOM      9  C   UNL     1      27.581  23.334  27.000  0.00  0.00    +0.000 A 
ATOM     10  C   UNL     1      26.584  23.314  27.978  0.00  0.00    +0.000 A 
ATOM     11  C   UNL     1      26.927  22.961  29.264  0.00  0.00    +0.000 A 
ATOM     12  C   UNL     1      28.214  22.628  29.619  0.00  0.00    +0.000 A 
ATOM     13  C   UNL     1      29.170  22.661  28.623  0.00  0.00    +0.000 A 
ATOM     14  C   UNL     1      28.884  23.008  27.316  0.00  0.00    +0.000 A 
ENDROOT
BRANCH   1  15
ATOM     15  C   UNL     1      28.814  24.316  21.490  0.00  0.00    +0.000 C 
BRANCH  15  17
ATOM     16  C   UNL     1      29.357  26.706  21.705  0.00  0.00    +0.000 C 
ATOM     17  C   UNL     1      28.648  25.736  21.158  0.00  0.00    +0.000 C 
ENDBRANCH  15  17
ENDBRANCH   1  15
BRANCH  12  18
ATOM     18  O   UNL     1      28.511  22.279  30.927  0.00  0.00    +0.000 OA
BRANCH  18  19
ATOM     19  C   UNL     1      29.608  22.929  31.546  0.00  0.00    +0.000 C 
ATOM     20  C   UNL     1      30.586  21.870  31.965  0.00  0.00    +0.000 C 
ENDBRANCH  18  19
ENDBRANCH  12  18
TORSDOF 4
ENDMDL
MODEL 10
REMARK VINA RESULT:      -5.2     15.016     17.328
REMARK  Name = 
REMARK  4 active torsions:
REMARK  status: ('A' for Active; 'I' for Inactive)
REMARK    1  A    between atoms: C_2  and  C_3
REMARK    2  A    between atoms: C_3  and  N_4
REMARK    3  A    between atoms: C_15  and  O_16
REMARK    4  A    between atoms: O_16  and  C_17
REMARK                            x       y       z     vdW  Elec       q    Type
REMARK                         _______ _______ _______ _____ _____    ______ ____
ROOT
ATOM      1  N   UNL     1      25.237  12.857  38.830  0.00  0.00    +0.000 NA
ATOM      2  C   UNL     1      24.747  11.727  38.118  0.00  0.00    +0.000 A 
ATOM      3  N   UNL     1      25.509  10.808  37.538  0.00  0.00    +0.000 NA
ATOM      4  C   UNL     1      25.019   9.744  36.868  0.00  0.00    +0.000 A 
ATOM      5  N   UNL     1      23.674   9.617  36.790  0.00  0.00    +0.000 NA
ATOM      6  C   UNL     1      22.843  10.503  37.350  0.00  0.00    +0.000 A 
ATOM      7  C   UNL     1      23.362  11.584  38.030  0.00  0.00    +0.000 A 
ATOM      8  N   UNL     1      22.330  12.312  38.491  0.00  0.00    +0.000 NA
ATOM      9  C   UNL     1      21.153  11.749  38.139  0.00  0.00    +0.000 A 
ATOM     10  C   UNL     1      19.823  12.109  38.369  0.00  0.00    +0.000 A 
ATOM     11  C   UNL     1      18.825  11.304  37.864  0.00  0.00    +0.000 A 
ATOM     12  C   UNL     1      19.093  10.162  37.143  0.00  0.00    +0.000 A 
ATOM     13  C   UNL     1      20.420   9.843  36.939  0.00  0.00    +0.000 A 
ATOM     14  C   UNL     1      21.463  10.612  37.422  0.00  0.00    +0.000 A 
ENDROOT
BRANCH   1  15
ATOM     15  C   UNL     1      26.655  13.111  38.987  0.00  0.00    +0.000 C 
BRANCH  15  17
ATOM     16  C   UNL     1      28.078  15.118  39.023  0.00  0.00    +0.000 C 
ATOM     17  C   UNL     1      26.919  14.539  38.774  0.00  0.00    +0.000 C 
ENDBRANCH  15  17
ENDBRANCH   1  15
BRANCH  12  18
ATOM     18  O   UNL     1      18.055   9.385  36.655  0.00  0.00    +0.000 OA
BRANCH  18  19
ATOM     19  C   UNL     1      17.103  10.014  35.814  0.00  0.00    +0.000 C 
ATOM     20  C   UNL     1      17.627   9.953  34.409  0.00  0.00    +0.000 C 
ENDBRANCH  18  19
ENDBRANCH  12  18
TORSDOF 4
ENDMDL
