MODEL 1
REMARK VINA RESULT:      -6.9      0.000      0.000
REMARK  Name = 
REMARK  3 active torsions:
REMARK  status: ('A' for Active; 'I' for Inactive)
REMARK    1  A    between atoms: C_7  and  N_8
REMARK    2  A    between atoms: N_8  and  N_9
REMARK    3  A    between atoms: C_10  and  C_12
REMARK                            x       y       z     vdW  Elec       q    Type
REMARK                         _______ _______ _______ _____ _____    ______ ____
ROOT
ATOM      1  N   UNL     1      16.387  11.143  34.246  0.00  0.00    +0.000 NA
ATOM      2  C   UNL     1      16.159  11.316  35.623  0.00  0.00    +0.000 C 
ATOM      3  O   UNL     1      15.001  11.290  36.055  0.00  0.00    +0.000 OA
ENDROOT
BRANCH   2   4
ATOM      4  C   UNL     1      17.334  11.519  36.479  0.00  0.00    +0.000 A 
ATOM      5  C   UNL     1      17.672  12.754  36.968  0.00  0.00    +0.000 A 
ATOM      6  C   UNL     1      18.776  12.945  37.772  0.00  0.00    +0.000 A 
ATOM      7  C   UNL     1      19.604  11.884  38.128  0.00  0.00    +0.000 A 
ATOM      8  C   UNL     1      19.247  10.655  37.628  0.00  0.00    +0.000 A 
ATOM      9  C   UNL     1      18.156  10.461  36.831  0.00  0.00    +0.000 A 
ATOM     10  O   UNL     1      17.882   9.188  36.380  0.00  0.00    +0.000 OA
ENDBRANCH   2   4
BRANCH   1  11
ATOM     11  N   UNL     1      15.377  10.942  33.312  0.00  0.00    +0.000 NA
BRANCH  11  18
ATOM     12  C   UNL     1      16.388  12.973  30.980  0.00  0.00    +0.000 C 
ATOM     13  C   UNL     1      15.207  11.855  31.031  0.00  0.00    +0.000 C 
ATOM     14  C   UNL     1      14.034  12.826  30.479  0.00  0.00    +0.000 C 
ATOM     15  C   UNL     1      14.178  14.179  31.012  0.00  0.00    +0.000 C 
ATOM     16  C   UNL     1      13.773  14.247  32.471  0.00  0.00    +0.000 C 
ATOM     17  C   UNL     1      14.324  13.029  33.090  0.00  0.00    +0.000 C 
ATOM     18  C   UNL     1      14.904  12.045  32.567  0.00  0.00    +0.000 C 
ENDBRANCH  11  18
ENDBRANCH   1  11
TORSDOF 3
ENDMDL
MODEL 2
REMARK VINA RESULT:      -6.8      1.534      6.511
REMARK  Name = 
REMARK  3 active torsions:
REMARK  status: ('A' for Active; 'I' for Inactive)
REMARK    1  A    between atoms: C_7  and  N_8
REMARK    2  A    between atoms: N_8  and  N_9
REMARK    3  A    between atoms: C_10  and  C_12
REMARK                            x       y       z     vdW  Elec       q    Type
REMARK                         _______ _______ _______ _____ _____    ______ ____
ROOT
ATOM      1  N   UNL     1      16.232  10.672  34.186  0.00  0.00    +0.000 NA
ATOM      2  C   UNL     1      16.215  10.884  32.796  0.00  0.00    +0.000 C 
ATOM      3  O   UNL     1      16.890  10.152  32.062  0.00  0.00    +0.000 OA
ENDROOT
BRANCH   2   4
ATOM      4  C   UNL     1      15.380  11.981  32.292  0.00  0.00    +0.000 A 
ATOM      5  C   UNL     1      15.285  12.267  30.956  0.00  0.00    +0.000 A 
ATOM      6  C   UNL     1      14.500  13.298  30.483  0.00  0.00    +0.000 A 
ATOM      7  C   UNL     1      13.763  14.101  31.348  0.00  0.00    +0.000 A 
ATOM      8  C   UNL     1      13.873  13.798  32.684  0.00  0.00    +0.000 A 
ATOM      9  C   UNL     1      14.648  12.778  33.157  0.00  0.00    +0.000 A 
ATOM     10  O   UNL     1      14.691  12.553  34.515  0.00  0.00    +0.000 OA
ENDBRANCH   2   4
BRANCH   1  11
ATOM     11  N   UNL     1      16.973   9.675  34.811  0.00  0.00    +0.000 NA
BRANCH  11  18
ATOM     12  C   UNL     1      17.265  12.122  36.934  0.00  0.00    +0.000 C 
ATOM     13  C   UNL     1      16.548  10.665  37.026  0.00  0.00    +0.000 C 
ATOM     14  C   UNL     1      17.248  10.221  38.417  0.00  0.00    +0.000 C 
ATOM     15  C   UNL     1      18.635  10.678  38.476  0.00  0.00    +0.000 C 
ATOM     16  C   UNL     1      19.531   9.855  37.573  0.00  0.00    +0.000 C 
ATOM     17  C   UNL     1      18.758   9.647  36.336  0.00  0.00    +0.000 C 
ATOM     18  C   UNL     1      17.570   9.948  36.061  0.00  0.00    +0.000 C 
ENDBRANCH  11  18
ENDBRANCH   1  11
TORSDOF 3
ENDMDL
MODEL 3
REMARK VINA RESULT:      -6.7      1.541      6.464
REMARK  Name = 
REMARK  3 active torsions:
REMARK  status: ('A' for Active; 'I' for Inactive)
REMARK    1  A    between atoms: C_7  and  N_8
REMARK    2  A    between atoms: N_8  and  N_9
REMARK    3  A    between atoms: C_10  and  C_12
REMARK                            x       y       z     vdW  Elec       q    Type
REMARK                         _______ _______ _______ _____ _____    ______ ____
ROOT
ATOM      1  N   UNL     1      16.187  12.512  35.460  0.00  0.00    +0.000 NA
ATOM      2  C   UNL     1      14.879  12.437  34.948  0.00  0.00    +0.000 C 
ATOM      3  O   UNL     1      13.925  12.359  35.729  0.00  0.00    +0.000 OA
ENDROOT
BRANCH   2   4
ATOM      4  C   UNL     1      14.727  12.457  33.488  0.00  0.00    +0.000 A 
ATOM      5  C   UNL     1      14.144  13.511  32.833  0.00  0.00    +0.000 A 
ATOM      6  C   UNL     1      14.001  13.529  31.461  0.00  0.00    +0.000 A 
ATOM      7  C   UNL     1      14.445  12.471  30.673  0.00  0.00    +0.000 A 
ATOM      8  C   UNL     1      15.026  11.425  31.349  0.00  0.00    +0.000 A 
ATOM      9  C   UNL     1      15.169  11.402  32.707  0.00  0.00    +0.000 A 
ATOM     10  O   UNL     1      15.766  10.307  33.291  0.00  0.00    +0.000 OA
ENDBRANCH   2   4
BRANCH   1  11
ATOM     11  N   UNL     1      16.491  12.503  36.817  0.00  0.00    +0.000 NA
BRANCH  11  18
ATOM     12  C   UNL     1      17.306   9.995  38.723  0.00  0.00    +0.000 C 
ATOM     13  C   UNL     1      17.451  10.256  37.124  0.00  0.00    +0.000 C 
ATOM     14  C   UNL     1      19.023   9.871  37.034  0.00  0.00    +0.000 C 
ATOM     15  C   UNL     1      19.746  10.345  38.213  0.00  0.00    +0.000 C 
ATOM     16  C   UNL     1      19.944  11.847  38.178  0.00  0.00    +0.000 C 
ATOM     17  C   UNL     1      18.669  12.400  37.687  0.00  0.00    +0.000 C 
ATOM     18  C   UNL     1      17.644  11.816  37.255  0.00  0.00    +0.000 C 
ENDBRANCH  11  18
ENDBRANCH   1  11
TORSDOF 3
ENDMDL
MODEL 4
REMARK VINA RESULT:      -6.6     27.215     29.621
REMARK  Name = 
REMARK  3 active torsions:
REMARK  status: ('A' for Active; 'I' for Inactive)
REMARK    1  A    between atoms: C_7  and  N_8
REMARK    2  A    between atoms: N_8  and  N_9
REMARK    3  A    between atoms: C_10  and  C_12
REMARK                            x       y       z     vdW  Elec       q    Type
REMARK                         _______ _______ _______ _____ _____    ______ ____
ROOT
ATOM      1  N   UNL     1      30.418  22.742  10.227  0.00  0.00    +0.000 NA
ATOM      2  C   UNL     1      29.451  22.013  10.943  0.00  0.00    +0.000 C 
ATOM      3  O   UNL     1      29.278  20.816  10.683  0.00  0.00    +0.000 OA
ENDROOT
BRANCH   2   4
ATOM      4  C   UNL     1      28.693  22.731  11.974  0.00  0.00    +0.000 A 
ATOM      5  C   UNL     1      29.310  23.366  13.020  0.00  0.00    +0.000 A 
ATOM      6  C   UNL     1      28.598  24.041  13.989  0.00  0.00    +0.000 A 
ATOM      7  C   UNL     1      27.208  24.110  13.948  0.00  0.00    +0.000 A 
ATOM      8  C   UNL     1      26.609  23.468  12.891  0.00  0.00    +0.000 A 
ATOM      9  C   UNL     1      27.310  22.798  11.930  0.00  0.00    +0.000 A 
ATOM     10  O   UNL     1      26.616  22.186  10.909  0.00  0.00    +0.000 OA
ENDBRANCH   2   4
BRANCH   1  11
ATOM     11  N   UNL     1      31.212  22.201   9.222  0.00  0.00    +0.000 NA
BRANCH  11  18
ATOM     12  C   UNL     1      34.247  22.714  10.273  0.00  0.00    +0.000 C 
ATOM     13  C   UNL     1      32.957  21.988  10.947  0.00  0.00    +0.000 C 
ATOM     14  C   UNL     1      33.728  20.624  11.358  0.00  0.00    +0.000 C 
ATOM     15  C   UNL     1      34.693  20.237  10.330  0.00  0.00    +0.000 C 
ATOM     16  C   UNL     1      34.004  19.671   9.105  0.00  0.00    +0.000 C 
ATOM     17  C   UNL     1      32.827  20.531   8.884  0.00  0.00    +0.000 C 
ATOM     18  C   UNL     1      32.364  21.467   9.581  0.00  0.00    +0.000 C 
ENDBRANCH  11  18
ENDBRANCH   1  11
TORSDOF 3
ENDMDL
MODEL 5
REMARK VINA RESULT:      -6.5     27.278     29.713
REMARK  Name = 
REMARK  3 active torsions:
REMARK  status: ('A' for Active; 'I' for Inactive)
REMARK    1  A    between atoms: C_7  and  N_8
REMARK    2  A    between atoms: N_8  and  N_9
REMARK    3  A    between atoms: C_10  and  C_12
REMARK                            x       y       z     vdW  Elec       q    Type
REMARK                         _______ _______ _______ _____ _____    ______ ____
ROOT
ATOM      1  N   UNL     1      30.580  22.496  10.131  0.00  0.00    +0.000 NA
ATOM      2  C   UNL     1      29.604  21.685  10.739  0.00  0.00    +0.000 C 
ATOM      3  O   UNL     1      29.615  20.466  10.534  0.00  0.00    +0.000 OA
ENDROOT
BRANCH   2   4
ATOM      4  C   UNL     1      28.615  22.350  11.595  0.00  0.00    +0.000 A 
ATOM      5  C   UNL     1      27.291  22.428  11.250  0.00  0.00    +0.000 A 
ATOM      6  C   UNL     1      26.361  23.053  12.055  0.00  0.00    +0.000 A 
ATOM      7  C   UNL     1      26.727  23.637  13.264  0.00  0.00    +0.000 A 
ATOM      8  C   UNL     1      28.059  23.547  13.591  0.00  0.00    +0.000 A 
ATOM      9  C   UNL     1      28.983  22.930  12.797  0.00  0.00    +0.000 A 
ATOM     10  O   UNL     1      30.295  22.893  13.215  0.00  0.00    +0.000 OA
ENDBRANCH   2   4
BRANCH   1  11
ATOM     11  N   UNL     1      31.581  22.013   9.296  0.00  0.00    +0.000 NA
BRANCH  11  18
ATOM     12  C   UNL     1      33.024  20.536  11.810  0.00  0.00    +0.000 C 
ATOM     13  C   UNL     1      33.091  20.292  10.203  0.00  0.00    +0.000 C 
ATOM     14  C   UNL     1      34.708  20.295  10.101  0.00  0.00    +0.000 C 
ATOM     15  C   UNL     1      35.289  21.286  11.005  0.00  0.00    +0.000 C 
ATOM     16  C   UNL     1      35.091  22.696  10.486  0.00  0.00    +0.000 C 
ATOM     17  C   UNL     1      33.715  22.732   9.960  0.00  0.00    +0.000 C 
ATOM     18  C   UNL     1      32.874  21.808   9.824  0.00  0.00    +0.000 C 
ENDBRANCH  11  18
ENDBRANCH   1  11
TORSDOF 3
ENDMDL
MODEL 6
REMARK VINA RESULT:      -6.4     21.707     23.088
REMARK  Name = 
REMARK  3 active torsions:
REMARK  status: ('A' for Active; 'I' for Inactive)
REMARK    1  A    between atoms: C_7  and  N_8
REMARK    2  A    between atoms: N_8  and  N_9
REMARK    3  A    between atoms: C_10  and  C_12
REMARK                            x       y       z     vdW  Elec       q    Type
REMARK                         _______ _______ _______ _____ _____    ______ ____
ROOT
ATOM      1  N   UNL     1      22.081  -8.442  25.689  0.00  0.00    +0.000 NA
ATOM      2  C   UNL     1      20.774  -8.297  25.189  0.00  0.00    +0.000 C 
ATOM      3  O   UNL     1      20.415  -8.979  24.223  0.00  0.00    +0.000 OA
ENDROOT
BRANCH   2   4
ATOM      4  C   UNL     1      19.902  -7.325  25.859  0.00  0.00    +0.000 A 
ATOM      5  C   UNL     1      20.052  -5.974  25.688  0.00  0.00    +0.000 A 
ATOM      6  C   UNL     1      19.232  -5.061  26.318  0.00  0.00    +0.000 A 
ATOM      7  C   UNL     1      18.206  -5.474  27.163  0.00  0.00    +0.000 A 
ATOM      8  C   UNL     1      18.072  -6.832  27.321  0.00  0.00    +0.000 A 
ATOM      9  C   UNL     1      18.882  -7.740  26.700  0.00  0.00    +0.000 A 
ATOM     10  O   UNL     1      18.666  -9.081  26.923  0.00  0.00    +0.000 OA
ENDBRANCH   2   4
BRANCH   1  11
ATOM     11  N   UNL     1      23.022  -9.319  25.160  0.00  0.00    +0.000 NA
BRANCH  11  18
ATOM     12  C   UNL     1      23.536  -7.805  22.327  0.00  0.00    +0.000 C 
ATOM     13  C   UNL     1      23.751  -7.349  23.873  0.00  0.00    +0.000 C 
ATOM     14  C   UNL     1      25.279  -6.845  23.688  0.00  0.00    +0.000 C 
ATOM     15  C   UNL     1      26.012  -7.718  22.773  0.00  0.00    +0.000 C 
ATOM     16  C   UNL     1      26.355  -9.044  23.423  0.00  0.00    +0.000 C 
ATOM     17  C   UNL     1      25.155  -9.430  24.185  0.00  0.00    +0.000 C 
ATOM     18  C   UNL     1      24.090  -8.798  24.398  0.00  0.00    +0.000 C 
ENDBRANCH  11  18
ENDBRANCH   1  11
TORSDOF 3
ENDMDL
MODEL 7
REMARK VINA RESULT:      -6.2     19.287     21.340
REMARK  Name = 
REMARK  3 active torsions:
REMARK  status: ('A' for Active; 'I' for Inactive)
REMARK    1  A    between atoms: C_7  and  N_8
REMARK    2  A    between atoms: N_8  and  N_9
REMARK    3  A    between atoms: C_10  and  C_12
REMARK                            x       y       z     vdW  Elec       q    Type
REMARK                         _______ _______ _______ _____ _____    ______ ____
ROOT
ATOM      1  N   UNL     1      27.823  24.199  23.583  0.00  0.00    +0.000 NA
ATOM      2  C   UNL     1      27.366  24.388  22.266  0.00  0.00    +0.000 C 
ATOM      3  O   UNL     1      26.559  23.585  21.783  0.00  0.00    +0.000 OA
ENDROOT
BRANCH   2   4
ATOM      4  C   UNL     1      27.886  25.548  21.533  0.00  0.00    +0.000 A 
ATOM      5  C   UNL     1      27.209  26.738  21.482  0.00  0.00    +0.000 A 
ATOM      6  C   UNL     1      27.697  27.828  20.793  0.00  0.00    +0.000 A 
ATOM      7  C   UNL     1      28.911  27.770  20.113  0.00  0.00    +0.000 A 
ATOM      8  C   UNL     1      29.573  26.568  20.177  0.00  0.00    +0.000 A 
ATOM      9  C   UNL     1      29.093  25.486  20.857  0.00  0.00    +0.000 A 
ATOM     10  O   UNL     1      29.834  24.325  20.861  0.00  0.00    +0.000 OA
ENDBRANCH   2   4
BRANCH   1  11
ATOM     11  N   UNL     1      27.423  23.148  24.400  0.00  0.00    +0.000 NA
BRANCH  11  18
ATOM     12  C   UNL     1      27.999  24.481  27.312  0.00  0.00    +0.000 C 
ATOM     13  C   UNL     1      27.257  23.106  26.857  0.00  0.00    +0.000 C 
ATOM     14  C   UNL     1      28.085  22.132  27.851  0.00  0.00    +0.000 C 
ATOM     15  C   UNL     1      29.483  22.549  27.950  0.00  0.00    +0.000 C 
ATOM     16  C   UNL     1      30.258  22.200  26.696  0.00  0.00    +0.000 C 
ATOM     17  C   UNL     1      29.356  22.516  25.575  0.00  0.00    +0.000 C 
ATOM     18  C   UNL     1      28.154  22.882  25.579  0.00  0.00    +0.000 C 
ENDBRANCH  11  18
ENDBRANCH   1  11
TORSDOF 3
ENDMDL
MODEL 8
REMARK VINA RESULT:      -6.2      2.110      7.032
REMARK  Name = 
REMARK  3 active torsions:
REMARK  status: ('A' for Active; 'I' for Inactive)
REMARK    1  A    between atoms: C_7  and  N_8
REMARK    2  A    between atoms: N_8  and  N_9
REMARK    3  A    between atoms: C_10  and  C_12
REMARK                            x       y       z     vdW  Elec       q    Type
REMARK                         _______ _______ _______ _____ _____    ______ ____
ROOT
ATOM      1  N   UNL     1      17.834  10.594  36.392  0.00  0.00    +0.000 NA
ATOM      2  C   UNL     1      17.256   9.863  35.338  0.00  0.00    +0.000 C 
ATOM      3  O   UNL     1      17.354   8.631  35.328  0.00  0.00    +0.000 OA
ENDROOT
BRANCH   2   4
ATOM      4  C   UNL     1      16.557  10.624  34.295  0.00  0.00    +0.000 A 
ATOM      5  C   UNL     1      16.896  10.523  32.971  0.00  0.00    +0.000 A 
ATOM      6  C   UNL     1      16.239  11.238  31.992  0.00  0.00    +0.000 A 
ATOM      7  C   UNL     1      15.194  12.103  32.305  0.00  0.00    +0.000 A 
ATOM      8  C   UNL     1      14.871  12.190  33.638  0.00  0.00    +0.000 A 
ATOM      9  C   UNL     1      15.518  11.484  34.611  0.00  0.00    +0.000 A 
ATOM     10  O   UNL     1      15.118  11.641  35.920  0.00  0.00    +0.000 OA
ENDBRANCH   2   4
BRANCH   1  11
ATOM     11  N   UNL     1      18.527  10.015  37.449  0.00  0.00    +0.000 NA
BRANCH  11  18
ATOM     12  C   UNL     1      20.740  12.275  38.208  0.00  0.00    +0.000 C 
ATOM     13  C   UNL     1      20.358  10.841  38.874  0.00  0.00    +0.000 C 
ATOM     14  C   UNL     1      21.871  10.264  38.909  0.00  0.00    +0.000 C 
ATOM     15  C   UNL     1      22.614  10.666  37.716  0.00  0.00    +0.000 C 
ATOM     16  C   UNL     1      22.171   9.886  36.495  0.00  0.00    +0.000 C 
ATOM     17  C   UNL     1      20.703   9.804  36.592  0.00  0.00    +0.000 C 
ATOM     18  C   UNL     1      19.929  10.167  37.513  0.00  0.00    +0.000 C 
ENDBRANCH  11  18
ENDBRANCH   1  11
TORSDOF 3
ENDMDL
MODEL 9
REMARK VINA RESULT:      -6.1      3.845      7.728
REMARK  Name = 
REMARK  3 active torsions:
REMARK  status: ('A' for Active; 'I' for Inactive)
REMARK    1  A    between atoms: C_7  and  N_8
REMARK    2  A    between atoms: N_8  and  N_9
REMARK    3  A    between atoms: C_10  and  C_12
REMARK                            x       y       z     vdW  Elec       q    Type
REMARK                         _______ _______ _______ _____ _____    ______ ____
ROOT
ATOM      1  N   UNL     1      17.469   9.848  38.154  0.00  0.00    +0.000 NA
ATOM      2  C   UNL     1      17.731  11.024  37.428  0.00  0.00    +0.000 C 
ATOM      3  O   UNL     1      18.653  11.766  37.785  0.00  0.00    +0.000 OA
ENDROOT
BRANCH   2   4
ATOM      4  C   UNL     1      16.875  11.303  36.268  0.00  0.00    +0.000 A 
ATOM      5  C   UNL     1      15.797  12.145  36.346  0.00  0.00    +0.000 A 
ATOM      6  C   UNL     1      14.993  12.407  35.256  0.00  0.00    +0.000 A 
ATOM      7  C   UNL     1      15.243  11.825  34.017  0.00  0.00    +0.000 A 
ATOM      8  C   UNL     1      16.329  10.984  33.960  0.00  0.00    +0.000 A 
ATOM      9  C   UNL     1      17.127  10.721  35.036  0.00  0.00    +0.000 A 
ATOM     10  O   UNL     1      18.194   9.865  34.877  0.00  0.00    +0.000 OA
ENDBRANCH   2   4
BRANCH   1  11
ATOM     11  N   UNL     1      18.191   9.450  39.273  0.00  0.00    +0.000 NA
BRANCH  11  18
ATOM     12  C   UNL     1      17.093   9.677  42.327  0.00  0.00    +0.000 C 
ATOM     13  C   UNL     1      16.346   9.424  40.904  0.00  0.00    +0.000 C 
ATOM     14  C   UNL     1      15.515   8.118  41.381  0.00  0.00    +0.000 C 
ATOM     15  C   UNL     1      16.318   7.282  42.272  0.00  0.00    +0.000 C 
ATOM     16  C   UNL     1      17.388   6.525  41.510  0.00  0.00    +0.000 C 
ATOM     17  C   UNL     1      17.928   7.486  40.533  0.00  0.00    +0.000 C 
ATOM     18  C   UNL     1      17.556   8.651  40.249  0.00  0.00    +0.000 C 
ENDBRANCH  11  18
ENDBRANCH   1  11
TORSDOF 3
ENDMDL
MODEL 10
REMARK VINA RESULT:      -6.0     18.383     20.744
REMARK  Name = 
REMARK  3 active torsions:
REMARK  status: ('A' for Active; 'I' for Inactive)
REMARK    1  A    between atoms: C_7  and  N_8
REMARK    2  A    between atoms: N_8  and  N_9
REMARK    3  A    between atoms: C_10  and  C_12
REMARK                            x       y       z     vdW  Elec       q    Type
REMARK                         _______ _______ _______ _____ _____    ______ ____
ROOT
ATOM      1  N   UNL     1      33.408   1.834  34.141  0.00  0.00    +0.000 NA
ATOM      2  C   UNL     1      33.753   3.035  33.494  0.00  0.00    +0.000 C 
ATOM      3  O   UNL     1      33.819   3.062  32.260  0.00  0.00    +0.000 OA
ENDROOT
BRANCH   2   4
ATOM      4  C   UNL     1      34.020   4.203  34.342  0.00  0.00    +0.000 A 
ATOM      5  C   UNL     1      35.103   4.262  35.179  0.00  0.00    +0.000 A 
ATOM      6  C   UNL     1      35.353   5.360  35.975  0.00  0.00    +0.000 A 
ATOM      7  C   UNL     1      34.510   6.468  35.965  0.00  0.00    +0.000 A 
ATOM      8  C   UNL     1      33.431   6.389  35.119  0.00  0.00    +0.000 A 
ATOM      9  C   UNL     1      33.178   5.304  34.329  0.00  0.00    +0.000 A 
ATOM     10  O   UNL     1      32.069   5.322  33.513  0.00  0.00    +0.000 OA
ENDBRANCH   2   4
BRANCH   1  11
ATOM     11  N   UNL     1      33.128   0.646  33.474  0.00  0.00    +0.000 NA
BRANCH  11  18
ATOM     12  C   UNL     1      34.668  -0.539  36.084  0.00  0.00    +0.000 C 
ATOM     13  C   UNL     1      33.092  -0.387  35.709  0.00  0.00    +0.000 C 
ATOM     14  C   UNL     1      32.694  -1.922  36.042  0.00  0.00    +0.000 C 
ATOM     15  C   UNL     1      33.754  -2.841  35.631  0.00  0.00    +0.000 C 
ATOM     16  C   UNL     1      33.794  -3.006  34.126  0.00  0.00    +0.000 C 
ATOM     17  C   UNL     1      33.582  -1.655  33.576  0.00  0.00    +0.000 C 
ATOM     18  C   UNL     1      33.301  -0.578  34.157  0.00  0.00    +0.000 C 
ENDBRANCH  11  18
ENDBRANCH   1  11
TORSDOF 3
ENDMDL
