MODEL 1
REMARK VINA RESULT:      -6.8      0.000      0.000
REMARK  Name = 
REMARK  3 active torsions:
REMARK  status: ('A' for Active; 'I' for Inactive)
REMARK    1  A    between atoms: C_7  and  O_8
REMARK    2  A    between atoms: O_8  and  C_9
REMARK    3  A    between atoms: C_14  and  N_15
REMARK                            x       y       z     vdW  Elec       q    Type
REMARK                         _______ _______ _______ _____ _____    ______ ____
ROOT
ATOM      1  C   UNL     1      16.782  10.542  36.591  0.00  0.00    +0.000 A 
ATOM      2  C   UNL     1      15.705  11.136  37.166  0.00  0.00    +0.000 A 
ATOM      3  C   UNL     1      14.781  11.790  36.383  0.00  0.00    +0.000 A 
ATOM      4  N   UNL     1      13.626  12.432  36.954  0.00  0.00    +0.000 NA
ATOM      5  C   UNL     1      14.963  11.831  35.023  0.00  0.00    +0.000 A 
ATOM      6  C   UNL     1      16.058  11.228  34.439  0.00  0.00    +0.000 A 
ATOM      7  C   UNL     1      16.962  10.584  35.238  0.00  0.00    +0.000 A 
ENDROOT
BRANCH   6   8
ATOM      8  N   UNL     1      16.273  11.253  33.040  0.00  0.00    +0.000 N 
ATOM      9  O   UNL     1      15.777  12.152  32.358  0.00  0.00    +0.000 OA
ATOM     10  O   UNL     1      17.029  10.278  32.465  0.00  0.00    +0.000 OA
ENDBRANCH   6   8
BRANCH   1  11
ATOM     11  O   UNL     1      17.711   9.880  37.424  0.00  0.00    +0.000 OA
BRANCH  11  18
ATOM     12  C   UNL     1      22.476   9.537  36.527  0.00  0.00    +0.000 C 
ATOM     13  C   UNL     1      21.304  10.248  37.105  0.00  0.00    +0.000 A 
ATOM     14  C   UNL     1      21.497  11.452  37.766  0.00  0.00    +0.000 A 
ATOM     15  C   UNL     1      20.448  12.147  38.319  0.00  0.00    +0.000 A 
ATOM     16  C   UNL     1      20.782  13.431  39.004  0.00  0.00    +0.000 C 
ATOM     17  C   UNL     1      19.163  11.662  38.230  0.00  0.00    +0.000 A 
ATOM     18  C   UNL     1      18.964  10.461  37.573  0.00  0.00    +0.000 A 
ATOM     19  C   UNL     1      20.026   9.749  37.008  0.00  0.00    +0.000 A 
ENDBRANCH  11  18
ENDBRANCH   1  11
TORSDOF 3
ENDMDL
MODEL 2
REMARK VINA RESULT:      -6.7      1.596      2.796
REMARK  Name = 
REMARK  3 active torsions:
REMARK  status: ('A' for Active; 'I' for Inactive)
REMARK    1  A    between atoms: C_7  and  O_8
REMARK    2  A    between atoms: O_8  and  C_9
REMARK    3  A    between atoms: C_14  and  N_15
REMARK                            x       y       z     vdW  Elec       q    Type
REMARK                         _______ _______ _______ _____ _____    ______ ____
ROOT
ATOM      1  C   UNL     1      16.901  10.397  36.289  0.00  0.00    +0.000 A 
ATOM      2  C   UNL     1      17.099  10.647  34.969  0.00  0.00    +0.000 A 
ATOM      3  C   UNL     1      16.169  11.372  34.259  0.00  0.00    +0.000 A 
ATOM      4  N   UNL     1      16.341  11.657  32.859  0.00  0.00    +0.000 NA
ATOM      5  C   UNL     1      15.048  11.836  34.901  0.00  0.00    +0.000 A 
ATOM      6  C   UNL     1      14.847  11.582  36.243  0.00  0.00    +0.000 A 
ATOM      7  C   UNL     1      15.786  10.859  36.926  0.00  0.00    +0.000 A 
ENDROOT
BRANCH   6   8
ATOM      8  N   UNL     1      13.701  12.048  36.932  0.00  0.00    +0.000 N 
ATOM      9  O   UNL     1      13.394  11.553  38.018  0.00  0.00    +0.000 OA
ATOM     10  O   UNL     1      12.951  13.041  36.382  0.00  0.00    +0.000 OA
ENDBRANCH   6   8
BRANCH   1  11
ATOM     11  O   UNL     1      17.875   9.650  36.987  0.00  0.00    +0.000 OA
BRANCH  11  18
ATOM     12  C   UNL     1      22.714   9.593  36.529  0.00  0.00    +0.000 C 
ATOM     13  C   UNL     1      21.457  10.212  37.028  0.00  0.00    +0.000 A 
ATOM     14  C   UNL     1      21.523  11.386  37.764  0.00  0.00    +0.000 A 
ATOM     15  C   UNL     1      20.392  11.998  38.249  0.00  0.00    +0.000 A 
ATOM     16  C   UNL     1      20.591  13.257  39.026  0.00  0.00    +0.000 C 
ATOM     17  C   UNL     1      19.149  11.455  38.014  0.00  0.00    +0.000 A 
ATOM     18  C   UNL     1      19.076  10.283  37.282  0.00  0.00    +0.000 A 
ATOM     19  C   UNL     1      20.223   9.657  36.786  0.00  0.00    +0.000 A 
ENDBRANCH  11  18
ENDBRANCH   1  11
TORSDOF 3
ENDMDL
MODEL 3
REMARK VINA RESULT:      -6.6      1.707      3.387
REMARK  Name = 
REMARK  3 active torsions:
REMARK  status: ('A' for Active; 'I' for Inactive)
REMARK    1  A    between atoms: C_7  and  O_8
REMARK    2  A    between atoms: O_8  and  C_9
REMARK    3  A    between atoms: C_14  and  N_15
REMARK                            x       y       z     vdW  Elec       q    Type
REMARK                         _______ _______ _______ _____ _____    ______ ____
ROOT
ATOM      1  C   UNL     1      17.282  10.232  36.416  0.00  0.00    +0.000 A 
ATOM      2  C   UNL     1      17.408  10.502  35.092  0.00  0.00    +0.000 A 
ATOM      3  C   UNL     1      16.441  11.237  34.444  0.00  0.00    +0.000 A 
ATOM      4  N   UNL     1      16.538  11.543  33.041  0.00  0.00    +0.000 NA
ATOM      5  C   UNL     1      15.357  11.691  35.153  0.00  0.00    +0.000 A 
ATOM      6  C   UNL     1      15.229  11.417  36.499  0.00  0.00    +0.000 A 
ATOM      7  C   UNL     1      16.203  10.684  37.120  0.00  0.00    +0.000 A 
ENDROOT
BRANCH   6   8
ATOM      8  N   UNL     1      14.122  11.871  37.256  0.00  0.00    +0.000 N 
ATOM      9  O   UNL     1      13.373  12.732  36.794  0.00  0.00    +0.000 OA
ATOM     10  O   UNL     1      13.902  11.346  38.493  0.00  0.00    +0.000 OA
ENDBRANCH   6   8
BRANCH   1  11
ATOM     11  O   UNL     1      18.292   9.475  37.049  0.00  0.00    +0.000 OA
BRANCH  11  18
ATOM     12  C   UNL     1      20.796  12.988  39.288  0.00  0.00    +0.000 C 
ATOM     13  C   UNL     1      20.719  11.830  38.359  0.00  0.00    +0.000 A 
ATOM     14  C   UNL     1      21.868  11.400  37.711  0.00  0.00    +0.000 A 
ATOM     15  C   UNL     1      21.849  10.336  36.842  0.00  0.00    +0.000 A 
ATOM     16  C   UNL     1      23.149   9.968  36.206  0.00  0.00    +0.000 C 
ATOM     17  C   UNL     1      20.678   9.660  36.589  0.00  0.00    +0.000 A 
ATOM     18  C   UNL     1      19.528  10.084  37.231  0.00  0.00    +0.000 A 
ATOM     19  C   UNL     1      19.540  11.166  38.116  0.00  0.00    +0.000 A 
ENDBRANCH  11  18
ENDBRANCH   1  11
TORSDOF 3
ENDMDL
MODEL 4
REMARK VINA RESULT:      -6.3     18.361     19.768
REMARK  Name = 
REMARK  3 active torsions:
REMARK  status: ('A' for Active; 'I' for Inactive)
REMARK    1  A    between atoms: C_7  and  O_8
REMARK    2  A    between atoms: O_8  and  C_9
REMARK    3  A    between atoms: C_14  and  N_15
REMARK                            x       y       z     vdW  Elec       q    Type
REMARK                         _______ _______ _______ _____ _____    ______ ____
ROOT
ATOM      1  C   UNL     1      28.549  22.791  25.476  0.00  0.00    +0.000 A 
ATOM      2  C   UNL     1      29.784  23.081  25.960  0.00  0.00    +0.000 A 
ATOM      3  C   UNL     1      30.738  23.625  25.130  0.00  0.00    +0.000 A 
ATOM      4  N   UNL     1      32.059  23.946  25.605  0.00  0.00    +0.000 NA
ATOM      5  C   UNL     1      30.423  23.870  23.817  0.00  0.00    +0.000 A 
ATOM      6  C   UNL     1      29.168  23.575  23.325  0.00  0.00    +0.000 A 
ATOM      7  C   UNL     1      28.238  23.035  24.170  0.00  0.00    +0.000 A 
ENDROOT
BRANCH   6   8
ATOM      8  N   UNL     1      28.814  23.816  21.976  0.00  0.00    +0.000 N 
ATOM      9  O   UNL     1      29.657  24.240  21.185  0.00  0.00    +0.000 OA
ATOM     10  O   UNL     1      27.537  23.574  21.570  0.00  0.00    +0.000 OA
ENDBRANCH   6   8
BRANCH   1  11
ATOM     11  O   UNL     1      27.595  22.233  26.356  0.00  0.00    +0.000 OA
BRANCH  11  18
ATOM     12  C   UNL     1      26.576  23.969  30.779  0.00  0.00    +0.000 C 
ATOM     13  C   UNL     1      26.361  23.938  29.308  0.00  0.00    +0.000 A 
ATOM     14  C   UNL     1      25.413  24.777  28.741  0.00  0.00    +0.000 A 
ATOM     15  C   UNL     1      25.176  24.786  27.388  0.00  0.00    +0.000 A 
ATOM     16  C   UNL     1      24.132  25.734  26.897  0.00  0.00    +0.000 C 
ATOM     17  C   UNL     1      25.881  23.954  26.548  0.00  0.00    +0.000 A 
ATOM     18  C   UNL     1      26.827  23.113  27.108  0.00  0.00    +0.000 A 
ATOM     19  C   UNL     1      27.073  23.099  28.484  0.00  0.00    +0.000 A 
ENDBRANCH  11  18
ENDBRANCH   1  11
TORSDOF 3
ENDMDL
MODEL 5
REMARK VINA RESULT:      -6.3     18.862     19.942
REMARK  Name = 
REMARK  3 active torsions:
REMARK  status: ('A' for Active; 'I' for Inactive)
REMARK    1  A    between atoms: C_7  and  O_8
REMARK    2  A    between atoms: O_8  and  C_9
REMARK    3  A    between atoms: C_14  and  N_15
REMARK                            x       y       z     vdW  Elec       q    Type
REMARK                         _______ _______ _______ _____ _____    ______ ____
ROOT
ATOM      1  C   UNL     1      27.196  24.832  24.646  0.00  0.00    +0.000 A 
ATOM      2  C   UNL     1      26.224  23.984  24.225  0.00  0.00    +0.000 A 
ATOM      3  C   UNL     1      26.192  23.572  22.912  0.00  0.00    +0.000 A 
ATOM      4  N   UNL     1      25.178  22.673  22.426  0.00  0.00    +0.000 NA
ATOM      5  C   UNL     1      27.153  24.027  22.042  0.00  0.00    +0.000 A 
ATOM      6  C   UNL     1      28.140  24.890  22.471  0.00  0.00    +0.000 A 
ATOM      7  C   UNL     1      28.150  25.285  23.781  0.00  0.00    +0.000 A 
ENDROOT
BRANCH   6   8
ATOM      8  N   UNL     1      29.143  25.377  21.599  0.00  0.00    +0.000 N 
ATOM      9  O   UNL     1      29.488  26.558  21.657  0.00  0.00    +0.000 OA
ATOM     10  O   UNL     1      29.715  24.527  20.702  0.00  0.00    +0.000 OA
ENDBRANCH   6   8
BRANCH   1  11
ATOM     11  O   UNL     1      27.198  25.235  26.000  0.00  0.00    +0.000 OA
BRANCH  11  18
ATOM     12  C   UNL     1      30.627  22.169  27.570  0.00  0.00    +0.000 C 
ATOM     13  C   UNL     1      29.281  22.791  27.684  0.00  0.00    +0.000 A 
ATOM     14  C   UNL     1      28.441  22.409  28.719  0.00  0.00    +0.000 A 
ATOM     15  C   UNL     1      27.187  22.952  28.868  0.00  0.00    +0.000 A 
ATOM     16  C   UNL     1      26.377  22.461  30.021  0.00  0.00    +0.000 C 
ATOM     17  C   UNL     1      26.727  23.902  27.984  0.00  0.00    +0.000 A 
ATOM     18  C   UNL     1      27.560  24.287  26.948  0.00  0.00    +0.000 A 
ATOM     19  C   UNL     1      28.836  23.738  26.791  0.00  0.00    +0.000 A 
ENDBRANCH  11  18
ENDBRANCH   1  11
TORSDOF 3
ENDMDL
MODEL 6
REMARK VINA RESULT:      -6.3      3.019      5.904
REMARK  Name = 
REMARK  3 active torsions:
REMARK  status: ('A' for Active; 'I' for Inactive)
REMARK    1  A    between atoms: C_7  and  O_8
REMARK    2  A    between atoms: O_8  and  C_9
REMARK    3  A    between atoms: C_14  and  N_15
REMARK                            x       y       z     vdW  Elec       q    Type
REMARK                         _______ _______ _______ _____ _____    ______ ____
ROOT
ATOM      1  C   UNL     1      19.010  10.467  37.514  0.00  0.00    +0.000 A 
ATOM      2  C   UNL     1      19.017  11.677  38.130  0.00  0.00    +0.000 A 
ATOM      3  C   UNL     1      20.210  12.324  38.362  0.00  0.00    +0.000 A 
ATOM      4  N   UNL     1      20.259  13.606  39.014  0.00  0.00    +0.000 NA
ATOM      5  C   UNL     1      21.382  11.732  37.962  0.00  0.00    +0.000 A 
ATOM      6  C   UNL     1      21.375  10.503  37.336  0.00  0.00    +0.000 A 
ATOM      7  C   UNL     1      20.177   9.880  37.116  0.00  0.00    +0.000 A 
ENDROOT
BRANCH   6   8
ATOM      8  N   UNL     1      22.567   9.868  36.912  0.00  0.00    +0.000 N 
ATOM      9  O   UNL     1      23.110   9.034  37.637  0.00  0.00    +0.000 OA
ATOM     10  O   UNL     1      23.099  10.192  35.701  0.00  0.00    +0.000 OA
ENDBRANCH   6   8
BRANCH   1  11
ATOM     11  O   UNL     1      17.768   9.831  37.292  0.00  0.00    +0.000 OA
BRANCH  11  18
ATOM     12  C   UNL     1      16.369  11.461  32.931  0.00  0.00    +0.000 C 
ATOM     13  C   UNL     1      16.164  11.313  34.397  0.00  0.00    +0.000 A 
ATOM     14  C   UNL     1      15.039  11.873  34.986  0.00  0.00    +0.000 A 
ATOM     15  C   UNL     1      14.805  11.765  36.336  0.00  0.00    +0.000 A 
ATOM     16  C   UNL     1      13.560  12.409  36.853  0.00  0.00    +0.000 C 
ATOM     17  C   UNL     1      15.688  11.092  37.149  0.00  0.00    +0.000 A 
ATOM     18  C   UNL     1      16.812  10.532  36.567  0.00  0.00    +0.000 A 
ATOM     19  C   UNL     1      17.057  10.638  35.195  0.00  0.00    +0.000 A 
ENDBRANCH  11  18
ENDBRANCH   1  11
TORSDOF 3
ENDMDL
MODEL 7
REMARK VINA RESULT:      -6.3     18.572     19.945
REMARK  Name = 
REMARK  3 active torsions:
REMARK  status: ('A' for Active; 'I' for Inactive)
REMARK    1  A    between atoms: C_7  and  O_8
REMARK    2  A    between atoms: O_8  and  C_9
REMARK    3  A    between atoms: C_14  and  N_15
REMARK                            x       y       z     vdW  Elec       q    Type
REMARK                         _______ _______ _______ _____ _____    ______ ____
ROOT
ATOM      1  C   UNL     1      28.108  23.016  25.103  0.00  0.00    +0.000 A 
ATOM      2  C   UNL     1      29.334  23.075  25.682  0.00  0.00    +0.000 A 
ATOM      3  C   UNL     1      30.402  23.587  24.980  0.00  0.00    +0.000 A 
ATOM      4  N   UNL     1      31.718  23.667  25.558  0.00  0.00    +0.000 NA
ATOM      5  C   UNL     1      30.208  24.034  23.696  0.00  0.00    +0.000 A 
ATOM      6  C   UNL     1      28.962  23.974  23.108  0.00  0.00    +0.000 A 
ATOM      7  C   UNL     1      27.917  23.461  23.827  0.00  0.00    +0.000 A 
ENDROOT
BRANCH   6   8
ATOM      8  N   UNL     1      28.731  24.427  21.787  0.00  0.00    +0.000 N 
ATOM      9  O   UNL     1      27.647  24.932  21.491  0.00  0.00    +0.000 OA
ATOM     10  O   UNL     1      29.716  24.296  20.857  0.00  0.00    +0.000 OA
ENDBRANCH   6   8
BRANCH   1  11
ATOM     11  O   UNL     1      27.034  22.484  25.852  0.00  0.00    +0.000 OA
BRANCH  11  18
ATOM     12  C   UNL     1      23.871  26.078  26.688  0.00  0.00    +0.000 C 
ATOM     13  C   UNL     1      24.872  25.085  27.159  0.00  0.00    +0.000 A 
ATOM     14  C   UNL     1      25.180  25.018  28.510  0.00  0.00    +0.000 A 
ATOM     15  C   UNL     1      26.099  24.119  28.996  0.00  0.00    +0.000 A 
ATOM     16  C   UNL     1      26.346  24.143  30.469  0.00  0.00    +0.000 C 
ATOM     17  C   UNL     1      26.745  23.251  28.147  0.00  0.00    +0.000 A 
ATOM     18  C   UNL     1      26.443  23.312  26.798  0.00  0.00    +0.000 A 
ATOM     19  C   UNL     1      25.509  24.224  26.297  0.00  0.00    +0.000 A 
ENDBRANCH  11  18
ENDBRANCH   1  11
TORSDOF 3
ENDMDL
MODEL 8
REMARK VINA RESULT:      -6.2     19.013     20.152
REMARK  Name = 
REMARK  3 active torsions:
REMARK  status: ('A' for Active; 'I' for Inactive)
REMARK    1  A    between atoms: C_7  and  O_8
REMARK    2  A    between atoms: O_8  and  C_9
REMARK    3  A    between atoms: C_14  and  N_15
REMARK                            x       y       z     vdW  Elec       q    Type
REMARK                         _______ _______ _______ _____ _____    ______ ____
ROOT
ATOM      1  C   UNL     1      27.226  24.859  24.415  0.00  0.00    +0.000 A 
ATOM      2  C   UNL     1      26.230  23.993  24.097  0.00  0.00    +0.000 A 
ATOM      3  C   UNL     1      26.103  23.536  22.805  0.00  0.00    +0.000 A 
ATOM      4  N   UNL     1      25.061  22.618  22.428  0.00  0.00    +0.000 NA
ATOM      5  C   UNL     1      26.992  23.965  21.851  0.00  0.00    +0.000 A 
ATOM      6  C   UNL     1      28.004  24.846  22.175  0.00  0.00    +0.000 A 
ATOM      7  C   UNL     1      28.109  25.285  23.466  0.00  0.00    +0.000 A 
ENDROOT
BRANCH   6   8
ATOM      8  N   UNL     1      28.935  25.306  21.213  0.00  0.00    +0.000 N 
ATOM      9  O   UNL     1      29.743  24.521  20.715  0.00  0.00    +0.000 OA
ATOM     10  O   UNL     1      28.925  26.618  20.852  0.00  0.00    +0.000 OA
ENDBRANCH   6   8
BRANCH   1  11
ATOM     11  O   UNL     1      27.328  25.309  25.751  0.00  0.00    +0.000 OA
BRANCH  11  18
ATOM     12  C   UNL     1      26.377  22.892  29.860  0.00  0.00    +0.000 C 
ATOM     13  C   UNL     1      27.274  23.233  28.723  0.00  0.00    +0.000 A 
ATOM     14  C   UNL     1      28.527  22.642  28.645  0.00  0.00    +0.000 A 
ATOM     15  C   UNL     1      29.394  22.924  27.616  0.00  0.00    +0.000 A 
ATOM     16  C   UNL     1      30.713  22.226  27.641  0.00  0.00    +0.000 C 
ATOM     17  C   UNL     1      29.038  23.809  26.624  0.00  0.00    +0.000 A 
ATOM     18  C   UNL     1      27.790  24.402  26.696  0.00  0.00    +0.000 A 
ATOM     19  C   UNL     1      26.903  24.120  27.740  0.00  0.00    +0.000 A 
ENDBRANCH  11  18
ENDBRANCH   1  11
TORSDOF 3
ENDMDL
MODEL 9
REMARK VINA RESULT:      -6.2     18.580     19.718
REMARK  Name = 
REMARK  3 active torsions:
REMARK  status: ('A' for Active; 'I' for Inactive)
REMARK    1  A    between atoms: C_7  and  O_8
REMARK    2  A    between atoms: O_8  and  C_9
REMARK    3  A    between atoms: C_14  and  N_15
REMARK                            x       y       z     vdW  Elec       q    Type
REMARK                         _______ _______ _______ _____ _____    ______ ____
ROOT
ATOM      1  C   UNL     1      28.087  23.578  24.711  0.00  0.00    +0.000 A 
ATOM      2  C   UNL     1      26.887  23.068  24.332  0.00  0.00    +0.000 A 
ATOM      3  C   UNL     1      26.424  23.275  23.053  0.00  0.00    +0.000 A 
ATOM      4  N   UNL     1      25.157  22.752  22.613  0.00  0.00    +0.000 NA
ATOM      5  C   UNL     1      27.190  23.998  22.172  0.00  0.00    +0.000 A 
ATOM      6  C   UNL     1      28.409  24.517  22.557  0.00  0.00    +0.000 A 
ATOM      7  C   UNL     1      28.847  24.297  23.834  0.00  0.00    +0.000 A 
ENDROOT
BRANCH   6   8
ATOM      8  N   UNL     1      29.220  25.266  21.672  0.00  0.00    +0.000 N 
ATOM      9  O   UNL     1      29.424  26.462  21.888  0.00  0.00    +0.000 OA
ATOM     10  O   UNL     1      29.767  24.651  20.587  0.00  0.00    +0.000 OA
ENDBRANCH   6   8
BRANCH   1  11
ATOM     11  O   UNL     1      28.531  23.346  26.032  0.00  0.00    +0.000 OA
BRANCH  11  18
ATOM     12  C   UNL     1      26.704  21.799  30.262  0.00  0.00    +0.000 C 
ATOM     13  C   UNL     1      26.759  22.778  29.144  0.00  0.00    +0.000 A 
ATOM     14  C   UNL     1      25.918  23.881  29.164  0.00  0.00    +0.000 A 
ATOM     15  C   UNL     1      25.929  24.814  28.155  0.00  0.00    +0.000 A 
ATOM     16  C   UNL     1      24.977  25.957  28.289  0.00  0.00    +0.000 C 
ATOM     17  C   UNL     1      26.786  24.679  27.087  0.00  0.00    +0.000 A 
ATOM     18  C   UNL     1      27.627  23.581  27.060  0.00  0.00    +0.000 A 
ATOM     19  C   UNL     1      27.621  22.628  28.083  0.00  0.00    +0.000 A 
ENDBRANCH  11  18
ENDBRANCH   1  11
TORSDOF 3
ENDMDL
MODEL 10
REMARK VINA RESULT:      -6.2      3.376      6.209
REMARK  Name = 
REMARK  3 active torsions:
REMARK  status: ('A' for Active; 'I' for Inactive)
REMARK    1  A    between atoms: C_7  and  O_8
REMARK    2  A    between atoms: O_8  and  C_9
REMARK    3  A    between atoms: C_14  and  N_15
REMARK                            x       y       z     vdW  Elec       q    Type
REMARK                         _______ _______ _______ _____ _____    ______ ____
ROOT
ATOM      1  C   UNL     1      19.847  10.193  37.439  0.00  0.00    +0.000 A 
ATOM      2  C   UNL     1      19.814  11.275  38.258  0.00  0.00    +0.000 A 
ATOM      3  C   UNL     1      20.962  12.000  38.487  0.00  0.00    +0.000 A 
ATOM      4  N   UNL     1      20.970  13.152  39.349  0.00  0.00    +0.000 NA
ATOM      5  C   UNL     1      22.131  11.615  37.877  0.00  0.00    +0.000 A 
ATOM      6  C   UNL     1      22.164  10.515  37.045  0.00  0.00    +0.000 A 
ATOM      7  C   UNL     1      21.009   9.811  36.834  0.00  0.00    +0.000 A 
ENDROOT
BRANCH   6   8
ATOM      8  N   UNL     1      23.353  10.094  36.402  0.00  0.00    +0.000 N 
ATOM      9  O   UNL     1      24.172  10.929  36.017  0.00  0.00    +0.000 OA
ATOM     10  O   UNL     1      23.574   8.763  36.218  0.00  0.00    +0.000 OA
ENDBRANCH   6   8
BRANCH   1  11
ATOM     11  O   UNL     1      18.651   9.472  37.227  0.00  0.00    +0.000 OA
BRANCH  11  18
ATOM     12  C   UNL     1      14.502  12.002  37.147  0.00  0.00    +0.000 C 
ATOM     13  C   UNL     1      15.628  11.321  36.456  0.00  0.00    +0.000 A 
ATOM     14  C   UNL     1      15.666  11.306  35.069  0.00  0.00    +0.000 A 
ATOM     15  C   UNL     1      16.685  10.688  34.383  0.00  0.00    +0.000 A 
ATOM     16  C   UNL     1      16.616  10.740  32.892  0.00  0.00    +0.000 C 
ATOM     17  C   UNL     1      17.706  10.062  35.060  0.00  0.00    +0.000 A 
ATOM     18  C   UNL     1      17.673  10.072  36.443  0.00  0.00    +0.000 A 
ATOM     19  C   UNL     1      16.641  10.698  37.148  0.00  0.00    +0.000 A 
ENDBRANCH  11  18
ENDBRANCH   1  11
TORSDOF 3
ENDMDL
