MODEL 1
REMARK VINA RESULT:      -7.5      0.000      0.000
REMARK  Name = 
REMARK  2 active torsions:
REMARK  status: ('A' for Active; 'I' for Inactive)
REMARK    1  A    between atoms: C_2  and  C_11
REMARK    2  A    between atoms: N_3  and  C_4
REMARK                            x       y       z     vdW  Elec       q    Type
REMARK                         _______ _______ _______ _____ _____    ______ ____
ROOT
ATOM      1  O   UNL     1      15.986  10.704  34.737  0.00  0.00    +0.000 OA
ATOM      2  C   UNL     1      15.632  11.849  35.091  0.00  0.00    +0.000 C 
ATOM      3  N   UNL     1      15.997  12.301  36.364  0.00  0.00    +0.000 NA
ENDROOT
BRANCH   2   4
ATOM      4  C   UNL     1      14.841  12.726  34.200  0.00  0.00    +0.000 A 
ATOM      5  S   UNL     1      13.764  13.983  34.610  0.00  0.00    +0.000 S 
ATOM      6  C   UNL     1      13.304  14.450  33.013  0.00  0.00    +0.000 A 
ATOM      7  C   UNL     1      14.020  13.593  32.243  0.00  0.00    +0.000 A 
ATOM      8  C   UNL     1      14.812  12.704  32.853  0.00  0.00    +0.000 A 
ATOM      9  C   UNL     1      15.580  11.780  31.931  0.00  0.00    +0.000 C 
ATOM     10  C   UNL     1      16.331  12.648  30.942  0.00  0.00    +0.000 C 
ATOM     11  C   UNL     1      15.408  13.574  30.213  0.00  0.00    +0.000 C 
ATOM     12  C   UNL     1      14.006  13.548  30.728  0.00  0.00    +0.000 C 
ENDBRANCH   2   4
BRANCH   3  13
ATOM     13  C   UNL     1      16.755  11.541  37.295  0.00  0.00    +0.000 A 
ATOM     14  C   UNL     1      16.223  10.638  38.182  0.00  0.00    +0.000 A 
ATOM     15  C   UNL     1      17.036   9.928  39.069  0.00  0.00    +0.000 A 
ATOM     16  C   UNL     1      18.403  10.127  39.067  0.00  0.00    +0.000 A 
ATOM     17  C   UNL     1      18.947  11.034  38.178  0.00  0.00    +0.000 A 
ATOM     18  O   UNL     1      20.323  11.203  38.207  0.00  0.00    +0.000 OA
ATOM     19  C   UNL     1      18.121  11.728  37.305  0.00  0.00    +0.000 A 
ENDBRANCH   3  13
TORSDOF 2
ENDMDL
MODEL 2
REMARK VINA RESULT:      -6.8     27.573     30.257
REMARK  Name = 
REMARK  2 active torsions:
REMARK  status: ('A' for Active; 'I' for Inactive)
REMARK    1  A    between atoms: C_2  and  C_11
REMARK    2  A    between atoms: N_3  and  C_4
REMARK                            x       y       z     vdW  Elec       q    Type
REMARK                         _______ _______ _______ _____ _____    ______ ____
ROOT
ATOM      1  O   UNL     1      30.898  20.216  12.726  0.00  0.00    +0.000 OA
ATOM      2  C   UNL     1      31.501  21.028  11.993  0.00  0.00    +0.000 C 
ATOM      3  N   UNL     1      30.897  22.259  11.713  0.00  0.00    +0.000 NA
ENDROOT
BRANCH   2   4
ATOM      4  C   UNL     1      32.828  20.716  11.419  0.00  0.00    +0.000 A 
ATOM      5  S   UNL     1      34.257  20.235  12.217  0.00  0.00    +0.000 S 
ATOM      6  C   UNL     1      35.280  20.091  10.833  0.00  0.00    +0.000 A 
ATOM      7  C   UNL     1      34.445  20.429   9.819  0.00  0.00    +0.000 A 
ATOM      8  C   UNL     1      33.181  20.751  10.120  0.00  0.00    +0.000 A 
ATOM      9  C   UNL     1      32.308  21.118   8.938  0.00  0.00    +0.000 C 
ATOM     10  C   UNL     1      32.399  19.984   7.937  0.00  0.00    +0.000 C 
ATOM     11  C   UNL     1      33.818  19.701   7.556  0.00  0.00    +0.000 C 
ATOM     12  C   UNL     1      34.817  20.477   8.351  0.00  0.00    +0.000 C 
ENDBRANCH   2   4
BRANCH   3  13
ATOM     13  C   UNL     1      29.627  22.657  12.213  0.00  0.00    +0.000 A 
ATOM     14  C   UNL     1      29.423  23.289  13.414  0.00  0.00    +0.000 A 
ATOM     15  C   UNL     1      28.141  23.649  13.835  0.00  0.00    +0.000 A 
ATOM     16  C   UNL     1      27.046  23.371  13.041  0.00  0.00    +0.000 A 
ATOM     17  C   UNL     1      27.241  22.735  11.829  0.00  0.00    +0.000 A 
ATOM     18  O   UNL     1      26.117  22.474  11.062  0.00  0.00    +0.000 OA
ATOM     19  C   UNL     1      28.524  22.386  11.430  0.00  0.00    +0.000 A 
ENDBRANCH   3  13
TORSDOF 2
ENDMDL
MODEL 3
REMARK VINA RESULT:      -6.8     27.665     30.544
REMARK  Name = 
REMARK  2 active torsions:
REMARK  status: ('A' for Active; 'I' for Inactive)
REMARK    1  A    between atoms: C_2  and  C_11
REMARK    2  A    between atoms: N_3  and  C_4
REMARK                            x       y       z     vdW  Elec       q    Type
REMARK                         _______ _______ _______ _____ _____    ______ ____
ROOT
ATOM      1  O   UNL     1      30.529  23.137   9.694  0.00  0.00    +0.000 OA
ATOM      2  C   UNL     1      30.710  21.976  10.117  0.00  0.00    +0.000 C 
ATOM      3  N   UNL     1      29.904  21.507  11.159  0.00  0.00    +0.000 NA
ENDROOT
BRANCH   2   4
ATOM      4  C   UNL     1      31.752  21.096   9.543  0.00  0.00    +0.000 A 
ATOM      5  S   UNL     1      33.153  20.466  10.284  0.00  0.00    +0.000 S 
ATOM      6  C   UNL     1      33.771  19.578   8.939  0.00  0.00    +0.000 A 
ATOM      7  C   UNL     1      32.844  19.824   7.979  0.00  0.00    +0.000 A 
ATOM      8  C   UNL     1      31.804  20.606   8.289  0.00  0.00    +0.000 A 
ATOM      9  C   UNL     1      30.811  20.838   7.169  0.00  0.00    +0.000 C 
ATOM     10  C   UNL     1      30.385  19.479   6.652  0.00  0.00    +0.000 C 
ATOM     11  C   UNL     1      31.564  18.657   6.234  0.00  0.00    +0.000 C 
ATOM     12  C   UNL     1      32.878  19.286   6.563  0.00  0.00    +0.000 C 
ENDBRANCH   2   4
BRANCH   3  13
ATOM     13  C   UNL     1      28.876  22.269  11.779  0.00  0.00    +0.000 A 
ATOM     14  C   UNL     1      27.570  22.304  11.362  0.00  0.00    +0.000 A 
ATOM     15  C   UNL     1      26.617  23.080  12.026  0.00  0.00    +0.000 A 
ATOM     16  C   UNL     1      26.980  23.833  13.126  0.00  0.00    +0.000 A 
ATOM     17  C   UNL     1      28.293  23.803  13.554  0.00  0.00    +0.000 A 
ATOM     18  O   UNL     1      28.616  24.572  14.661  0.00  0.00    +0.000 OA
ATOM     19  C   UNL     1      29.223  23.025  12.879  0.00  0.00    +0.000 A 
ENDBRANCH   3  13
TORSDOF 2
ENDMDL
MODEL 4
REMARK VINA RESULT:      -6.3      3.586      7.807
REMARK  Name = 
REMARK  2 active torsions:
REMARK  status: ('A' for Active; 'I' for Inactive)
REMARK    1  A    between atoms: C_2  and  C_11
REMARK    2  A    between atoms: N_3  and  C_4
REMARK                            x       y       z     vdW  Elec       q    Type
REMARK                         _______ _______ _______ _____ _____    ______ ____
ROOT
ATOM      1  O   UNL     1      18.952  11.995  37.803  0.00  0.00    +0.000 OA
ATOM      2  C   UNL     1      19.041  10.751  37.736  0.00  0.00    +0.000 C 
ATOM      3  N   UNL     1      18.118  10.053  36.949  0.00  0.00    +0.000 NA
ENDROOT
BRANCH   2   4
ATOM      4  C   UNL     1      20.092  10.008  38.465  0.00  0.00    +0.000 A 
ATOM      5  S   UNL     1      19.944   9.006  39.838  0.00  0.00    +0.000 S 
ATOM      6  C   UNL     1      21.605   8.569  40.010  0.00  0.00    +0.000 A 
ATOM      7  C   UNL     1      22.188   9.234  38.981  0.00  0.00    +0.000 A 
ATOM      8  C   UNL     1      21.409   9.975  38.184  0.00  0.00    +0.000 A 
ATOM      9  C   UNL     1      22.128  10.688  37.058  0.00  0.00    +0.000 C 
ATOM     10  C   UNL     1      22.920   9.647  36.294  0.00  0.00    +0.000 C 
ATOM     11  C   UNL     1      23.843   8.889  37.196  0.00  0.00    +0.000 C 
ATOM     12  C   UNL     1      23.665   9.213  38.643  0.00  0.00    +0.000 C 
ENDBRANCH   2   4
BRANCH   3  13
ATOM     13  C   UNL     1      17.072  10.668  36.210  0.00  0.00    +0.000 A 
ATOM     14  C   UNL     1      15.916  11.166  36.757  0.00  0.00    +0.000 A 
ATOM     15  C   UNL     1      14.933  11.758  35.961  0.00  0.00    +0.000 A 
ATOM     16  C   UNL     1      15.110  11.851  34.594  0.00  0.00    +0.000 A 
ATOM     17  C   UNL     1      16.270  11.352  34.034  0.00  0.00    +0.000 A 
ATOM     18  O   UNL     1      16.409  11.465  32.660  0.00  0.00    +0.000 OA
ATOM     19  C   UNL     1      17.234  10.768  34.844  0.00  0.00    +0.000 A 
ENDBRANCH   3  13
TORSDOF 2
ENDMDL
MODEL 5
REMARK VINA RESULT:      -6.2     17.891     20.123
REMARK  Name = 
REMARK  2 active torsions:
REMARK  status: ('A' for Active; 'I' for Inactive)
REMARK    1  A    between atoms: C_2  and  C_11
REMARK    2  A    between atoms: N_3  and  C_4
REMARK                            x       y       z     vdW  Elec       q    Type
REMARK                         _______ _______ _______ _____ _____    ______ ____
ROOT
ATOM      1  O   UNL     1      27.934  24.976  26.748  0.00  0.00    +0.000 OA
ATOM      2  C   UNL     1      28.221  23.783  26.980  0.00  0.00    +0.000 C 
ATOM      3  N   UNL     1      28.164  22.861  25.929  0.00  0.00    +0.000 NA
ENDROOT
BRANCH   2   4
ATOM      4  C   UNL     1      28.614  23.330  28.332  0.00  0.00    +0.000 A 
ATOM      5  S   UNL     1      27.624  22.955  29.670  0.00  0.00    +0.000 S 
ATOM      6  C   UNL     1      28.866  22.531  30.791  0.00  0.00    +0.000 A 
ATOM      7  C   UNL     1      29.993  22.706  30.055  0.00  0.00    +0.000 A 
ATOM      8  C   UNL     1      29.864  23.118  28.788  0.00  0.00    +0.000 A 
ATOM      9  C   UNL     1      31.162  23.292  28.028  0.00  0.00    +0.000 C 
ATOM     10  C   UNL     1      31.934  21.993  28.144  0.00  0.00    +0.000 C 
ATOM     11  C   UNL     1      32.136  21.600  29.574  0.00  0.00    +0.000 C 
ATOM     12  C   UNL     1      31.408  22.475  30.543  0.00  0.00    +0.000 C 
ENDBRANCH   2   4
BRANCH   3  13
ATOM     13  C   UNL     1      27.800  23.191  24.596  0.00  0.00    +0.000 A 
ATOM     14  C   UNL     1      26.510  23.255  24.131  0.00  0.00    +0.000 A 
ATOM     15  C   UNL     1      26.233  23.587  22.803  0.00  0.00    +0.000 A 
ATOM     16  C   UNL     1      27.265  23.860  21.926  0.00  0.00    +0.000 A 
ATOM     17  C   UNL     1      28.567  23.798  22.385  0.00  0.00    +0.000 A 
ATOM     18  O   UNL     1      29.573  24.079  21.474  0.00  0.00    +0.000 OA
ATOM     19  C   UNL     1      28.820  23.466  23.708  0.00  0.00    +0.000 A 
ENDBRANCH   3  13
TORSDOF 2
ENDMDL
MODEL 6
REMARK VINA RESULT:      -6.1     17.703     19.299
REMARK  Name = 
REMARK  2 active torsions:
REMARK  status: ('A' for Active; 'I' for Inactive)
REMARK    1  A    between atoms: C_2  and  C_11
REMARK    2  A    between atoms: N_3  and  C_4
REMARK                            x       y       z     vdW  Elec       q    Type
REMARK                         _______ _______ _______ _____ _____    ______ ____
ROOT
ATOM      1  O   UNL     1      27.329  25.051  26.574  0.00  0.00    +0.000 OA
ATOM      2  C   UNL     1      27.588  24.045  25.880  0.00  0.00    +0.000 C 
ATOM      3  N   UNL     1      28.008  22.875  26.523  0.00  0.00    +0.000 NA
ENDROOT
BRANCH   2   4
ATOM      4  C   UNL     1      27.461  24.066  24.407  0.00  0.00    +0.000 A 
ATOM      5  S   UNL     1      26.207  23.453  23.427  0.00  0.00    +0.000 S 
ATOM      6  C   UNL     1      26.854  23.891  21.888  0.00  0.00    +0.000 A 
ATOM      7  C   UNL     1      28.021  24.495  22.225  0.00  0.00    +0.000 A 
ATOM      8  C   UNL     1      28.335  24.586  23.522  0.00  0.00    +0.000 A 
ATOM      9  C   UNL     1      29.651  25.272  23.824  0.00  0.00    +0.000 C 
ATOM     10  C   UNL     1      29.629  26.620  23.133  0.00  0.00    +0.000 C 
ATOM     11  C   UNL     1      29.358  26.482  21.668  0.00  0.00    +0.000 C 
ATOM     12  C   UNL     1      29.019  25.088  21.251  0.00  0.00    +0.000 C 
ENDBRANCH   2   4
BRANCH   3  13
ATOM     13  C   UNL     1      28.162  22.748  27.931  0.00  0.00    +0.000 A 
ATOM     14  C   UNL     1      29.346  22.915  28.605  0.00  0.00    +0.000 A 
ATOM     15  C   UNL     1      29.416  22.772  29.993  0.00  0.00    +0.000 A 
ATOM     16  C   UNL     1      28.282  22.458  30.716  0.00  0.00    +0.000 A 
ATOM     17  C   UNL     1      27.085  22.289  30.046  0.00  0.00    +0.000 A 
ATOM     18  O   UNL     1      25.971  21.974  30.808  0.00  0.00    +0.000 OA
ATOM     19  C   UNL     1      27.039  22.435  28.666  0.00  0.00    +0.000 A 
ENDBRANCH   3  13
TORSDOF 2
ENDMDL
MODEL 7
REMARK VINA RESULT:      -6.0     23.565     25.834
REMARK  Name = 
REMARK  2 active torsions:
REMARK  status: ('A' for Active; 'I' for Inactive)
REMARK    1  A    between atoms: C_2  and  C_11
REMARK    2  A    between atoms: N_3  and  C_4
REMARK                            x       y       z     vdW  Elec       q    Type
REMARK                         _______ _______ _______ _____ _____    ______ ____
ROOT
ATOM      1  O   UNL     1      32.953  -6.119  32.818  0.00  0.00    +0.000 OA
ATOM      2  C   UNL     1      34.024  -5.481  32.892  0.00  0.00    +0.000 C 
ATOM      3  N   UNL     1      34.841  -5.406  31.759  0.00  0.00    +0.000 NA
ENDROOT
BRANCH   2   4
ATOM      4  C   UNL     1      34.442  -4.812  34.143  0.00  0.00    +0.000 A 
ATOM      5  S   UNL     1      35.463  -5.389  35.382  0.00  0.00    +0.000 S 
ATOM      6  C   UNL     1      35.404  -4.010  36.418  0.00  0.00    +0.000 A 
ATOM      7  C   UNL     1      34.586  -3.169  35.737  0.00  0.00    +0.000 A 
ATOM      8  C   UNL     1      34.090  -3.582  34.565  0.00  0.00    +0.000 A 
ATOM      9  C   UNL     1      33.184  -2.592  33.861  0.00  0.00    +0.000 C 
ATOM     10  C   UNL     1      33.942  -1.285  33.747  0.00  0.00    +0.000 C 
ATOM     11  C   UNL     1      34.414  -0.805  35.083  0.00  0.00    +0.000 C 
ATOM     12  C   UNL     1      34.175  -1.783  36.188  0.00  0.00    +0.000 C 
ENDBRANCH   2   4
BRANCH   3  13
ATOM     13  C   UNL     1      34.534  -6.011  30.510  0.00  0.00    +0.000 A 
ATOM     14  C   UNL     1      33.826  -5.407  29.502  0.00  0.00    +0.000 A 
ATOM     15  C   UNL     1      33.564  -6.071  28.301  0.00  0.00    +0.000 A 
ATOM     16  C   UNL     1      34.018  -7.361  28.108  0.00  0.00    +0.000 A 
ATOM     17  C   UNL     1      34.732  -7.977  29.118  0.00  0.00    +0.000 A 
ATOM     18  O   UNL     1      35.170  -9.271  28.884  0.00  0.00    +0.000 OA
ATOM     19  C   UNL     1      34.981  -7.299  30.303  0.00  0.00    +0.000 A 
ENDBRANCH   3  13
TORSDOF 2
ENDMDL
MODEL 8
REMARK VINA RESULT:      -6.0     17.774     19.907
REMARK  Name = 
REMARK  2 active torsions:
REMARK  status: ('A' for Active; 'I' for Inactive)
REMARK    1  A    between atoms: C_2  and  C_11
REMARK    2  A    between atoms: N_3  and  C_4
REMARK                            x       y       z     vdW  Elec       q    Type
REMARK                         _______ _______ _______ _____ _____    ______ ____
ROOT
ATOM      1  O   UNL     1      29.403  24.562  27.575  0.00  0.00    +0.000 OA
ATOM      2  C   UNL     1      29.288  23.371  27.932  0.00  0.00    +0.000 C 
ATOM      3  N   UNL     1      28.806  22.435  27.009  0.00  0.00    +0.000 NA
ENDROOT
BRANCH   2   4
ATOM      4  C   UNL     1      29.646  22.934  29.299  0.00  0.00    +0.000 A 
ATOM      5  S   UNL     1      28.626  22.617  30.628  0.00  0.00    +0.000 S 
ATOM      6  C   UNL     1      29.838  22.179  31.777  0.00  0.00    +0.000 A 
ATOM      7  C   UNL     1      30.980  22.305  31.056  0.00  0.00    +0.000 A 
ATOM      8  C   UNL     1      30.882  22.694  29.779  0.00  0.00    +0.000 A 
ATOM      9  C   UNL     1      32.197  22.813  29.036  0.00  0.00    +0.000 C 
ATOM     10  C   UNL     1      32.927  21.495  29.191  0.00  0.00    +0.000 C 
ATOM     11  C   UNL     1      33.095  21.126  30.631  0.00  0.00    +0.000 C 
ATOM     12  C   UNL     1      32.380  22.042  31.571  0.00  0.00    +0.000 C 
ENDBRANCH   2   4
BRANCH   3  13
ATOM     13  C   UNL     1      28.434  22.749  25.674  0.00  0.00    +0.000 A 
ATOM     14  C   UNL     1      29.311  22.863  24.625  0.00  0.00    +0.000 A 
ATOM     15  C   UNL     1      28.866  23.176  23.338  0.00  0.00    +0.000 A 
ATOM     16  C   UNL     1      27.520  23.378  23.100  0.00  0.00    +0.000 A 
ATOM     17  C   UNL     1      26.630  23.266  24.150  0.00  0.00    +0.000 A 
ATOM     18  O   UNL     1      25.289  23.476  23.869  0.00  0.00    +0.000 OA
ATOM     19  C   UNL     1      27.094  22.954  25.420  0.00  0.00    +0.000 A 
ENDBRANCH   3  13
TORSDOF 2
ENDMDL
MODEL 9
REMARK VINA RESULT:      -6.0     22.662     23.963
REMARK  Name = 
REMARK  2 active torsions:
REMARK  status: ('A' for Active; 'I' for Inactive)
REMARK    1  A    between atoms: C_2  and  C_11
REMARK    2  A    between atoms: N_3  and  C_4
REMARK                            x       y       z     vdW  Elec       q    Type
REMARK                         _______ _______ _______ _____ _____    ______ ____
ROOT
ATOM      1  O   UNL     1      22.884  -6.602  25.318  0.00  0.00    +0.000 OA
ATOM      2  C   UNL     1      22.476  -7.630  24.739  0.00  0.00    +0.000 C 
ATOM      3  N   UNL     1      21.128  -7.984  24.867  0.00  0.00    +0.000 NA
ENDROOT
BRANCH   2   4
ATOM      4  C   UNL     1      23.381  -8.474  23.928  0.00  0.00    +0.000 A 
ATOM      5  S   UNL     1      24.523  -9.630  24.446  0.00  0.00    +0.000 S 
ATOM      6  C   UNL     1      25.110 -10.115  22.897  0.00  0.00    +0.000 A 
ATOM      7  C   UNL     1      24.378  -9.343  22.055  0.00  0.00    +0.000 A 
ATOM      8  C   UNL     1      23.486  -8.497  22.585  0.00  0.00    +0.000 A 
ATOM      9  C   UNL     1      22.706  -7.669  21.586  0.00  0.00    +0.000 C 
ATOM     10  C   UNL     1      22.082  -8.626  20.592  0.00  0.00    +0.000 C 
ATOM     11  C   UNL     1      23.112  -9.503  19.953  0.00  0.00    +0.000 C 
ATOM     12  C   UNL     1      24.477  -9.350  20.543  0.00  0.00    +0.000 C 
ENDBRANCH   2   4
BRANCH   3  13
ATOM     13  C   UNL     1      20.176  -7.244  25.620  0.00  0.00    +0.000 A 
ATOM     14  C   UNL     1      20.078  -5.875  25.626  0.00  0.00    +0.000 A 
ATOM     15  C   UNL     1      19.113  -5.221  26.396  0.00  0.00    +0.000 A 
ATOM     16  C   UNL     1      18.233  -5.950  27.172  0.00  0.00    +0.000 A 
ATOM     17  C   UNL     1      18.325  -7.329  27.172  0.00  0.00    +0.000 A 
ATOM     18  O   UNL     1      17.423  -8.023  27.963  0.00  0.00    +0.000 OA
ATOM     19  C   UNL     1      19.290  -7.958  26.400  0.00  0.00    +0.000 A 
ENDBRANCH   3  13
TORSDOF 2
ENDMDL
MODEL 10
REMARK VINA RESULT:      -5.9     18.178     20.054
REMARK  Name = 
REMARK  2 active torsions:
REMARK  status: ('A' for Active; 'I' for Inactive)
REMARK    1  A    between atoms: C_2  and  C_11
REMARK    2  A    between atoms: N_3  and  C_4
REMARK                            x       y       z     vdW  Elec       q    Type
REMARK                         _______ _______ _______ _____ _____    ______ ____
ROOT
ATOM      1  O   UNL     1      31.037  24.023  27.857  0.00  0.00    +0.000 OA
ATOM      2  C   UNL     1      30.971  22.807  28.135  0.00  0.00    +0.000 C 
ATOM      3  N   UNL     1      30.258  21.960  27.279  0.00  0.00    +0.000 NA
ENDROOT
BRANCH   2   4
ATOM      4  C   UNL     1      31.625  22.251  29.339  0.00  0.00    +0.000 A 
ATOM      5  S   UNL     1      33.207  21.640  29.518  0.00  0.00    +0.000 S 
ATOM      6  C   UNL     1      33.127  21.219  31.190  0.00  0.00    +0.000 A 
ATOM      7  C   UNL     1      31.861  21.580  31.520  0.00  0.00    +0.000 A 
ATOM      8  C   UNL     1      31.086  22.112  30.567  0.00  0.00    +0.000 A 
ATOM      9  C   UNL     1      29.687  22.490  31.006  0.00  0.00    +0.000 C 
ATOM     10  C   UNL     1      29.820  23.388  32.219  0.00  0.00    +0.000 C 
ATOM     11  C   UNL     1      30.621  22.735  33.301  0.00  0.00    +0.000 C 
ATOM     12  C   UNL     1      31.232  21.435  32.890  0.00  0.00    +0.000 C 
ENDBRANCH   2   4
BRANCH   3  13
ATOM     13  C   UNL     1      29.595  22.391  26.098  0.00  0.00    +0.000 A 
ATOM     14  C   UNL     1      30.215  22.640  24.900  0.00  0.00    +0.000 A 
ATOM     15  C   UNL     1      29.491  23.063  23.783  0.00  0.00    +0.000 A 
ATOM     16  C   UNL     1      28.124  23.238  23.868  0.00  0.00    +0.000 A 
ATOM     17  C   UNL     1      27.490  22.989  25.070  0.00  0.00    +0.000 A 
ATOM     18  O   UNL     1      26.118  23.176  25.113  0.00  0.00    +0.000 OA
ATOM     19  C   UNL     1      28.229  22.570  26.168  0.00  0.00    +0.000 A 
ENDBRANCH   3  13
TORSDOF 2
ENDMDL
