MODEL 1
REMARK VINA RESULT:      -6.4      0.000      0.000
REMARK  Name = 
REMARK  4 active torsions:
REMARK  status: ('A' for Active; 'I' for Inactive)
REMARK    1  A    between atoms: C_2  and  O_3
REMARK    2  A    between atoms: O_3  and  C_4
REMARK    3  A    between atoms: C_4  and  C_6
REMARK    4  A    between atoms: C_13  and  C_14
REMARK                            x       y       z     vdW  Elec       q    Type
REMARK                         _______ _______ _______ _____ _____    ______ ____
ROOT
ATOM      1  C   UNL     1      27.793  24.478  29.323  0.00  0.00    +0.000 C 
ATOM      2  C   UNL     1      26.972  24.647  30.289  0.00  0.00    +0.000 C 
ATOM      3  C   UNL     1      26.716  26.044  30.736  0.00  0.00    +0.000 C 
ATOM      4  N   UNL     1      26.212  23.615  30.898  0.00  0.00    +0.000 NA
ATOM      5  C   UNL     1      26.386  22.319  30.368  0.00  0.00    +0.000 C 
ATOM      6  O   UNL     1      25.691  21.382  30.943  0.00  0.00    +0.000 OA
ATOM      7  N   UNL     1      27.231  22.108  29.327  0.00  0.00    +0.000 NA
ATOM      8  C   UNL     1      28.249  23.063  28.844  0.00  0.00    +0.000 C 
ENDROOT
BRANCH   8   9
ATOM      9  C   UNL     1      27.819  23.173  27.296  0.00  0.00    +0.000 A 
ATOM     10  C   UNL     1      26.561  23.418  26.955  0.00  0.00    +0.000 A 
ATOM     11  O   UNL     1      25.567  23.590  27.892  0.00  0.00    +0.000 OA
ATOM     12  C   UNL     1      26.291  23.492  25.578  0.00  0.00    +0.000 A 
ATOM     13  C   UNL     1      27.284  23.320  24.636  0.00  0.00    +0.000 A 
ATOM     14  C   UNL     1      28.572  23.068  25.060  0.00  0.00    +0.000 A 
ATOM     15  C   UNL     1      29.531  22.903  24.094  0.00  0.00    +0.000 A 
ATOM     16  C   UNL     1      30.822  22.652  24.487  0.00  0.00    +0.000 A 
ATOM     17  C   UNL     1      31.104  22.575  25.834  0.00  0.00    +0.000 A 
ATOM     18  C   UNL     1      30.140  22.742  26.808  0.00  0.00    +0.000 A 
ATOM     19  C   UNL     1      28.855  22.992  26.403  0.00  0.00    +0.000 A 
ENDBRANCH   8   9
BRANCH   1  20
ATOM     20  C   UNL     1      28.447  25.582  28.674  0.00  0.00    +0.000 C 
ATOM     21  O   UNL     1      29.678  25.857  28.807  0.00  0.00    +0.000 OA
BRANCH  20  22
ATOM     22  O   UNL     1      27.724  26.424  27.841  0.00  0.00    +0.000 OA
BRANCH  22  24
ATOM     23  C   UNL     1      28.566  26.688  25.578  0.00  0.00    +0.000 C 
ATOM     24  C   UNL     1      28.318  27.334  26.940  0.00  0.00    +0.000 C 
ENDBRANCH  22  24
ENDBRANCH  20  22
ENDBRANCH   1  20
TORSDOF 4
ENDMDL
MODEL 2
REMARK VINA RESULT:      -6.1      3.203      5.616
REMARK  Name = 
REMARK  4 active torsions:
REMARK  status: ('A' for Active; 'I' for Inactive)
REMARK    1  A    between atoms: C_2  and  O_3
REMARK    2  A    between atoms: O_3  and  C_4
REMARK    3  A    between atoms: C_4  and  C_6
REMARK    4  A    between atoms: C_13  and  C_14
REMARK                            x       y       z     vdW  Elec       q    Type
REMARK                         _______ _______ _______ _____ _____    ______ ____
ROOT
ATOM      1  C   UNL     1      27.913  23.276  24.362  0.00  0.00    +0.000 C 
ATOM      2  C   UNL     1      27.225  23.432  23.296  0.00  0.00    +0.000 C 
ATOM      3  C   UNL     1      25.745  23.325  23.412  0.00  0.00    +0.000 C 
ATOM      4  N   UNL     1      27.757  23.798  22.032  0.00  0.00    +0.000 NA
ATOM      5  C   UNL     1      29.151  24.013  21.983  0.00  0.00    +0.000 C 
ATOM      6  O   UNL     1      29.625  24.339  20.817  0.00  0.00    +0.000 OA
ATOM      7  N   UNL     1      29.908  23.881  23.102  0.00  0.00    +0.000 NA
ATOM      8  C   UNL     1      29.474  23.233  24.356  0.00  0.00    +0.000 C 
ENDROOT
BRANCH   8   9
ATOM      9  C   UNL     1      29.760  24.426  25.401  0.00  0.00    +0.000 A 
ATOM     10  C   UNL     1      29.374  25.667  25.138  0.00  0.00    +0.000 A 
ATOM     11  O   UNL     1      28.715  26.000  23.976  0.00  0.00    +0.000 OA
ATOM     12  C   UNL     1      29.674  26.633  26.114  0.00  0.00    +0.000 A 
ATOM     13  C   UNL     1      30.333  26.304  27.279  0.00  0.00    +0.000 A 
ATOM     14  C   UNL     1      30.707  24.992  27.488  0.00  0.00    +0.000 A 
ATOM     15  C   UNL     1      31.361  24.704  28.659  0.00  0.00    +0.000 A 
ATOM     16  C   UNL     1      31.745  23.408  28.894  0.00  0.00    +0.000 A 
ATOM     17  C   UNL     1      31.459  22.447  27.947  0.00  0.00    +0.000 A 
ATOM     18  C   UNL     1      30.800  22.736  26.769  0.00  0.00    +0.000 A 
ATOM     19  C   UNL     1      30.423  24.033  26.546  0.00  0.00    +0.000 A 
ENDBRANCH   8   9
BRANCH   1  20
ATOM     20  C   UNL     1      27.300  23.015  25.637  0.00  0.00    +0.000 C 
ATOM     21  O   UNL     1      27.437  21.934  26.284  0.00  0.00    +0.000 OA
BRANCH  20  22
ATOM     22  O   UNL     1      26.501  23.981  26.231  0.00  0.00    +0.000 OA
BRANCH  22  24
ATOM     23  C   UNL     1      27.134  24.688  28.468  0.00  0.00    +0.000 C 
ATOM     24  C   UNL     1      26.121  23.954  27.590  0.00  0.00    +0.000 C 
ENDBRANCH  22  24
ENDBRANCH  20  22
ENDBRANCH   1  20
TORSDOF 4
ENDMDL
MODEL 3
REMARK VINA RESULT:      -6.1      2.870      5.379
REMARK  Name = 
REMARK  4 active torsions:
REMARK  status: ('A' for Active; 'I' for Inactive)
REMARK    1  A    between atoms: C_2  and  O_3
REMARK    2  A    between atoms: O_3  and  C_4
REMARK    3  A    between atoms: C_4  and  C_6
REMARK    4  A    between atoms: C_13  and  C_14
REMARK                            x       y       z     vdW  Elec       q    Type
REMARK                         _______ _______ _______ _____ _____    ______ ____
ROOT
ATOM      1  C   UNL     1      27.241  25.283  24.831  0.00  0.00    +0.000 C 
ATOM      2  C   UNL     1      27.548  25.159  23.596  0.00  0.00    +0.000 C 
ATOM      3  C   UNL     1      28.724  25.927  23.100  0.00  0.00    +0.000 C 
ATOM      4  N   UNL     1      26.917  24.270  22.687  0.00  0.00    +0.000 NA
ATOM      5  C   UNL     1      25.887  23.466  23.219  0.00  0.00    +0.000 C 
ATOM      6  O   UNL     1      25.311  22.664  22.373  0.00  0.00    +0.000 OA
ATOM      7  N   UNL     1      25.551  23.554  24.531  0.00  0.00    +0.000 NA
ATOM      8  C   UNL     1      25.959  24.640  25.446  0.00  0.00    +0.000 C 
ENDROOT
BRANCH   8   9
ATOM      9  C   UNL     1      26.650  23.775  26.616  0.00  0.00    +0.000 A 
ATOM     10  C   UNL     1      27.497  22.795  26.328  0.00  0.00    +0.000 A 
ATOM     11  O   UNL     1      27.827  22.468  25.032  0.00  0.00    +0.000 OA
ATOM     12  C   UNL     1      28.043  22.101  27.421  0.00  0.00    +0.000 A 
ATOM     13  C   UNL     1      27.715  22.426  28.721  0.00  0.00    +0.000 A 
ATOM     14  C   UNL     1      26.827  23.456  28.949  0.00  0.00    +0.000 A 
ATOM     15  C   UNL     1      26.525  23.749  30.255  0.00  0.00    +0.000 A 
ATOM     16  C   UNL     1      25.646  24.770  30.512  0.00  0.00    +0.000 A 
ATOM     17  C   UNL     1      25.100  25.461  29.451  0.00  0.00    +0.000 A 
ATOM     18  C   UNL     1      25.403  25.168  28.137  0.00  0.00    +0.000 A 
ATOM     19  C   UNL     1      26.282  24.147  27.893  0.00  0.00    +0.000 A 
ENDBRANCH   8   9
BRANCH   1  20
ATOM     20  C   UNL     1      27.994  26.120  25.726  0.00  0.00    +0.000 C 
ATOM     21  O   UNL     1      27.590  27.239  26.162  0.00  0.00    +0.000 OA
BRANCH  20  22
ATOM     22  O   UNL     1      29.246  25.714  26.164  0.00  0.00    +0.000 OA
BRANCH  22  24
ATOM     23  C   UNL     1      30.655  24.642  27.828  0.00  0.00    +0.000 C 
ATOM     24  C   UNL     1      29.654  25.753  27.515  0.00  0.00    +0.000 C 
ENDBRANCH  22  24
ENDBRANCH  20  22
ENDBRANCH   1  20
TORSDOF 4
ENDMDL
MODEL 4
REMARK VINA RESULT:      -6.0     31.773     33.809
REMARK  Name = 
REMARK  4 active torsions:
REMARK  status: ('A' for Active; 'I' for Inactive)
REMARK    1  A    between atoms: C_2  and  O_3
REMARK    2  A    between atoms: O_3  and  C_4
REMARK    3  A    between atoms: C_4  and  C_6
REMARK    4  A    between atoms: C_13  and  C_14
REMARK                            x       y       z     vdW  Elec       q    Type
REMARK                         _______ _______ _______ _____ _____    ______ ____
ROOT
ATOM      1  C   UNL     1      21.248  -8.989  24.097  0.00  0.00    +0.000 C 
ATOM      2  C   UNL     1      21.853  -8.589  23.044  0.00  0.00    +0.000 C 
ATOM      3  C   UNL     1      21.344  -9.076  21.732  0.00  0.00    +0.000 C 
ATOM      4  N   UNL     1      22.908  -7.639  23.024  0.00  0.00    +0.000 NA
ATOM      5  C   UNL     1      23.284  -7.103  24.274  0.00  0.00    +0.000 C 
ATOM      6  O   UNL     1      24.258  -6.242  24.242  0.00  0.00    +0.000 OA
ATOM      7  N   UNL     1      22.646  -7.487  25.409  0.00  0.00    +0.000 NA
ATOM      8  C   UNL     1      21.758  -8.660  25.535  0.00  0.00    +0.000 C 
ENDROOT
BRANCH   8   9
ATOM      9  C   UNL     1      20.433  -7.947  26.112  0.00  0.00    +0.000 A 
ATOM     10  C   UNL     1      20.064  -6.748  25.682  0.00  0.00    +0.000 A 
ATOM     11  O   UNL     1      20.780  -6.057  24.732  0.00  0.00    +0.000 OA
ATOM     12  C   UNL     1      18.895  -6.215  26.252  0.00  0.00    +0.000 A 
ATOM     13  C   UNL     1      18.174  -6.904  27.204  0.00  0.00    +0.000 A 
ATOM     14  C   UNL     1      18.616  -8.148  27.606  0.00  0.00    +0.000 A 
ATOM     15  C   UNL     1      17.873  -8.802  28.555  0.00  0.00    +0.000 A 
ATOM     16  C   UNL     1      18.288 -10.041  28.974  0.00  0.00    +0.000 A 
ATOM     17  C   UNL     1      19.432 -10.579  28.427  0.00  0.00    +0.000 A 
ATOM     18  C   UNL     1      20.181  -9.922  27.471  0.00  0.00    +0.000 A 
ATOM     19  C   UNL     1      19.757  -8.687  27.061  0.00  0.00    +0.000 A 
ENDBRANCH   8   9
BRANCH   1  20
ATOM     20  C   UNL     1      20.111  -9.868  24.038  0.00  0.00    +0.000 C 
ATOM     21  O   UNL     1      20.170 -11.119  24.228  0.00  0.00    +0.000 OA
BRANCH  20  22
ATOM     22  O   UNL     1      18.853  -9.355  23.758  0.00  0.00    +0.000 OA
BRANCH  22  24
ATOM     23  C   UNL     1      16.632  -9.257  24.738  0.00  0.00    +0.000 C 
ATOM     24  C   UNL     1      17.654 -10.075  23.950  0.00  0.00    +0.000 C 
ENDBRANCH  22  24
ENDBRANCH  20  22
ENDBRANCH   1  20
TORSDOF 4
ENDMDL
MODEL 5
REMARK VINA RESULT:      -6.0     21.546     23.439
REMARK  Name = 
REMARK  4 active torsions:
REMARK  status: ('A' for Active; 'I' for Inactive)
REMARK    1  A    between atoms: C_2  and  O_3
REMARK    2  A    between atoms: O_3  and  C_4
REMARK    3  A    between atoms: C_4  and  C_6
REMARK    4  A    between atoms: C_13  and  C_14
REMARK                            x       y       z     vdW  Elec       q    Type
REMARK                         _______ _______ _______ _____ _____    ______ ____
ROOT
ATOM      1  C   UNL     1      26.578   5.064  15.732  0.00  0.00    +0.000 C 
ATOM      2  C   UNL     1      26.714   6.331  15.634  0.00  0.00    +0.000 C 
ATOM      3  C   UNL     1      26.273   6.973  14.365  0.00  0.00    +0.000 C 
ATOM      4  N   UNL     1      27.159   7.183  16.678  0.00  0.00    +0.000 NA
ATOM      5  C   UNL     1      27.452   6.558  17.908  0.00  0.00    +0.000 C 
ATOM      6  O   UNL     1      27.867   7.349  18.853  0.00  0.00    +0.000 OA
ATOM      7  N   UNL     1      27.295   5.217  18.055  0.00  0.00    +0.000 NA
ATOM      8  C   UNL     1      27.119   4.252  16.951  0.00  0.00    +0.000 C 
ENDROOT
BRANCH   8   9
ATOM      9  C   UNL     1      25.745   3.548  17.411  0.00  0.00    +0.000 A 
ATOM     10  C   UNL     1      24.719   4.272  17.838  0.00  0.00    +0.000 A 
ATOM     11  O   UNL     1      24.770   5.646  17.909  0.00  0.00    +0.000 OA
ATOM     12  C   UNL     1      23.569   3.560  18.217  0.00  0.00    +0.000 A 
ATOM     13  C   UNL     1      23.513   2.184  18.147  0.00  0.00    +0.000 A 
ATOM     14  C   UNL     1      24.617   1.493  17.694  0.00  0.00    +0.000 A 
ATOM     15  C   UNL     1      24.524   0.125  17.638  0.00  0.00    +0.000 A 
ATOM     16  C   UNL     1      25.607  -0.589  17.191  0.00  0.00    +0.000 A 
ATOM     17  C   UNL     1      26.744   0.093  16.815  0.00  0.00    +0.000 A 
ATOM     18  C   UNL     1      26.840   1.469  16.869  0.00  0.00    +0.000 A 
ATOM     19  C   UNL     1      25.753   2.171  17.318  0.00  0.00    +0.000 A 
ENDBRANCH   8   9
BRANCH   1  20
ATOM     20  C   UNL     1      26.015   4.271  14.672  0.00  0.00    +0.000 C 
ATOM     21  O   UNL     1      26.699   3.564  13.873  0.00  0.00    +0.000 OA
BRANCH  20  22
ATOM     22  O   UNL     1      24.642   4.250  14.478  0.00  0.00    +0.000 OA
BRANCH  22  24
ATOM     23  C   UNL     1      22.489   3.144  14.691  0.00  0.00    +0.000 C 
ATOM     24  C   UNL     1      23.915   3.086  14.146  0.00  0.00    +0.000 C 
ENDBRANCH  22  24
ENDBRANCH  20  22
ENDBRANCH   1  20
TORSDOF 4
ENDMDL
MODEL 6
REMARK VINA RESULT:      -5.9     32.117     34.051
REMARK  Name = 
REMARK  4 active torsions:
REMARK  status: ('A' for Active; 'I' for Inactive)
REMARK    1  A    between atoms: C_2  and  O_3
REMARK    2  A    between atoms: O_3  and  C_4
REMARK    3  A    between atoms: C_4  and  C_6
REMARK    4  A    between atoms: C_13  and  C_14
REMARK                            x       y       z     vdW  Elec       q    Type
REMARK                         _______ _______ _______ _____ _____    ______ ____
ROOT
ATOM      1  C   UNL     1      17.742  -9.813  27.205  0.00  0.00    +0.000 C 
ATOM      2  C   UNL     1      16.623 -10.196  27.690  0.00  0.00    +0.000 C 
ATOM      3  C   UNL     1      16.612 -10.670  29.101  0.00  0.00    +0.000 C 
ATOM      4  N   UNL     1      15.375 -10.109  27.019  0.00  0.00    +0.000 NA
ATOM      5  C   UNL     1      15.402  -9.541  25.729  0.00  0.00    +0.000 C 
ATOM      6  O   UNL     1      14.253  -9.477  25.122  0.00  0.00    +0.000 OA
ATOM      7  N   UNL     1      16.569  -9.100  25.193  0.00  0.00    +0.000 NA
ATOM      8  C   UNL     1      17.917  -9.418  25.705  0.00  0.00    +0.000 C 
ENDROOT
BRANCH   8   9
ATOM      9  C   UNL     1      18.498  -7.929  25.905  0.00  0.00    +0.000 A 
ATOM     10  C   UNL     1      17.760  -6.980  26.466  0.00  0.00    +0.000 A 
ATOM     11  O   UNL     1      16.476  -7.212  26.903  0.00  0.00    +0.000 OA
ATOM     12  C   UNL     1      18.361  -5.716  26.591  0.00  0.00    +0.000 A 
ATOM     13  C   UNL     1      19.647  -5.479  26.155  0.00  0.00    +0.000 A 
ATOM     14  C   UNL     1      20.359  -6.511  25.580  0.00  0.00    +0.000 A 
ATOM     15  C   UNL     1      21.635  -6.237  25.158  0.00  0.00    +0.000 A 
ATOM     16  C   UNL     1      22.367  -7.245  24.583  0.00  0.00    +0.000 A 
ATOM     17  C   UNL     1      21.794  -8.492  24.451  0.00  0.00    +0.000 A 
ATOM     18  C   UNL     1      20.510  -8.769  24.876  0.00  0.00    +0.000 A 
ATOM     19  C   UNL     1      19.789  -7.756  25.448  0.00  0.00    +0.000 A 
ENDBRANCH   8   9
BRANCH   1  20
ATOM     20  C   UNL     1      18.955  -9.822  27.979  0.00  0.00    +0.000 C 
ATOM     21  O   UNL     1      19.222  -8.983  28.891  0.00  0.00    +0.000 OA
BRANCH  20  22
ATOM     22  O   UNL     1      19.917 -10.793  27.746  0.00  0.00    +0.000 OA
BRANCH  22  24
ATOM     23  C   UNL     1      22.325 -10.525  27.558  0.00  0.00    +0.000 C 
ATOM     24  C   UNL     1      21.137 -10.872  28.454  0.00  0.00    +0.000 C 
ENDBRANCH  22  24
ENDBRANCH  20  22
ENDBRANCH   1  20
TORSDOF 4
ENDMDL
MODEL 7
REMARK VINA RESULT:      -5.7     32.743     34.792
REMARK  Name = 
REMARK  4 active torsions:
REMARK  status: ('A' for Active; 'I' for Inactive)
REMARK    1  A    between atoms: C_2  and  O_3
REMARK    2  A    between atoms: O_3  and  C_4
REMARK    3  A    between atoms: C_4  and  C_6
REMARK    4  A    between atoms: C_13  and  C_14
REMARK                            x       y       z     vdW  Elec       q    Type
REMARK                         _______ _______ _______ _____ _____    ______ ____
ROOT
ATOM      1  C   UNL     1      16.674 -10.099  27.547  0.00  0.00    +0.000 C 
ATOM      2  C   UNL     1      16.268 -11.239  27.959  0.00  0.00    +0.000 C 
ATOM      3  C   UNL     1      15.372 -12.015  27.059  0.00  0.00    +0.000 C 
ATOM      4  N   UNL     1      16.687 -11.863  29.163  0.00  0.00    +0.000 NA
ATOM      5  C   UNL     1      17.632 -11.154  29.934  0.00  0.00    +0.000 C 
ATOM      6  O   UNL     1      17.999 -11.733  31.039  0.00  0.00    +0.000 OA
ATOM      7  N   UNL     1      18.103  -9.953  29.514  0.00  0.00    +0.000 NA
ATOM      8  C   UNL     1      17.508  -9.129  28.442  0.00  0.00    +0.000 C 
ENDROOT
BRANCH   8   9
ATOM      9  C   UNL     1      18.790  -8.946  27.485  0.00  0.00    +0.000 A 
ATOM     10  C   UNL     1      19.579  -9.973  27.200  0.00  0.00    +0.000 A 
ATOM     11  O   UNL     1      19.349 -11.235  27.699  0.00  0.00    +0.000 OA
ATOM     12  C   UNL     1      20.672  -9.705  26.358  0.00  0.00    +0.000 A 
ATOM     13  C   UNL     1      20.906  -8.443  25.855  0.00  0.00    +0.000 A 
ATOM     14  C   UNL     1      20.045  -7.419  26.192  0.00  0.00    +0.000 A 
ATOM     15  C   UNL     1      20.311  -6.177  25.673  0.00  0.00    +0.000 A 
ATOM     16  C   UNL     1      19.471  -5.140  25.990  0.00  0.00    +0.000 A 
ATOM     17  C   UNL     1      18.395  -5.384  26.816  0.00  0.00    +0.000 A 
ATOM     18  C   UNL     1      18.125  -6.633  27.339  0.00  0.00    +0.000 A 
ATOM     19  C   UNL     1      18.971  -7.660  27.015  0.00  0.00    +0.000 A 
ENDBRANCH   8   9
BRANCH   1  20
ATOM     20  C   UNL     1      16.298  -9.572  26.262  0.00  0.00    +0.000 C 
ATOM     21  O   UNL     1      16.841  -9.913  25.168  0.00  0.00    +0.000 OA
BRANCH  20  22
ATOM     22  O   UNL     1      15.284  -8.631  26.169  0.00  0.00    +0.000 OA
BRANCH  22  24
ATOM     23  C   UNL     1      12.874  -8.325  26.202  0.00  0.00    +0.000 C 
ATOM     24  C   UNL     1      14.095  -8.832  25.435  0.00  0.00    +0.000 C 
ENDBRANCH  22  24
ENDBRANCH  20  22
ENDBRANCH   1  20
TORSDOF 4
ENDMDL
MODEL 8
REMARK VINA RESULT:      -5.7      2.603      5.582
REMARK  Name = 
REMARK  4 active torsions:
REMARK  status: ('A' for Active; 'I' for Inactive)
REMARK    1  A    between atoms: C_2  and  O_3
REMARK    2  A    between atoms: O_3  and  C_4
REMARK    3  A    between atoms: C_4  and  C_6
REMARK    4  A    between atoms: C_13  and  C_14
REMARK                            x       y       z     vdW  Elec       q    Type
REMARK                         _______ _______ _______ _____ _____    ______ ____
ROOT
ATOM      1  C   UNL     1      28.084  23.379  24.739  0.00  0.00    +0.000 C 
ATOM      2  C   UNL     1      28.644  23.560  23.605  0.00  0.00    +0.000 C 
ATOM      3  C   UNL     1      27.783  24.011  22.477  0.00  0.00    +0.000 C 
ATOM      4  N   UNL     1      30.040  23.462  23.363  0.00  0.00    +0.000 NA
ATOM      5  C   UNL     1      30.843  23.153  24.481  0.00  0.00    +0.000 C 
ATOM      6  O   UNL     1      32.118  23.056  24.243  0.00  0.00    +0.000 OA
ATOM      7  N   UNL     1      30.284  22.979  25.705  0.00  0.00    +0.000 NA
ATOM      8  C   UNL     1      28.844  22.784  25.967  0.00  0.00    +0.000 C 
ENDROOT
BRANCH   8   9
ATOM      9  C   UNL     1      28.586  23.975  27.020  0.00  0.00    +0.000 A 
ATOM     10  C   UNL     1      29.016  25.205  26.775  0.00  0.00    +0.000 A 
ATOM     11  O   UNL     1      29.694  25.529  25.621  0.00  0.00    +0.000 OA
ATOM     12  C   UNL     1      28.742  26.170  27.760  0.00  0.00    +0.000 A 
ATOM     13  C   UNL     1      28.063  25.850  28.916  0.00  0.00    +0.000 A 
ATOM     14  C   UNL     1      27.645  24.549  29.108  0.00  0.00    +0.000 A 
ATOM     15  C   UNL     1      26.972  24.270  30.271  0.00  0.00    +0.000 A 
ATOM     16  C   UNL     1      26.544  22.985  30.488  0.00  0.00    +0.000 A 
ATOM     17  C   UNL     1      26.804  22.026  29.533  0.00  0.00    +0.000 A 
ATOM     18  C   UNL     1      27.480  22.306  28.363  0.00  0.00    +0.000 A 
ATOM     19  C   UNL     1      27.903  23.592  28.156  0.00  0.00    +0.000 A 
ENDBRANCH   8   9
BRANCH   1  20
ATOM     20  C   UNL     1      26.678  23.605  24.943  0.00  0.00    +0.000 C 
ATOM     21  O   UNL     1      25.810  22.683  24.996  0.00  0.00    +0.000 OA
BRANCH  20  22
ATOM     22  O   UNL     1      26.200  24.898  25.095  0.00  0.00    +0.000 OA
BRANCH  22  24
ATOM     23  C   UNL     1      24.802  25.345  27.031  0.00  0.00    +0.000 C 
ATOM     24  C   UNL     1      24.886  25.203  25.512  0.00  0.00    +0.000 C 
ENDBRANCH  22  24
ENDBRANCH  20  22
ENDBRANCH   1  20
TORSDOF 4
ENDMDL
MODEL 9
REMARK VINA RESULT:      -5.7     20.879     22.786
REMARK  Name = 
REMARK  4 active torsions:
REMARK  status: ('A' for Active; 'I' for Inactive)
REMARK    1  A    between atoms: C_2  and  O_3
REMARK    2  A    between atoms: O_3  and  C_4
REMARK    3  A    between atoms: C_4  and  C_6
REMARK    4  A    between atoms: C_13  and  C_14
REMARK                            x       y       z     vdW  Elec       q    Type
REMARK                         _______ _______ _______ _____ _____    ______ ____
ROOT
ATOM      1  C   UNL     1      35.676   5.447  37.469  0.00  0.00    +0.000 C 
ATOM      2  C   UNL     1      35.856   6.613  37.961  0.00  0.00    +0.000 C 
ATOM      3  C   UNL     1      37.207   7.221  37.808  0.00  0.00    +0.000 C 
ATOM      4  N   UNL     1      34.842   7.412  38.551  0.00  0.00    +0.000 NA
ATOM      5  C   UNL     1      33.545   6.857  38.569  0.00  0.00    +0.000 C 
ATOM      6  O   UNL     1      32.628   7.595  39.121  0.00  0.00    +0.000 OA
ATOM      7  N   UNL     1      33.313   5.631  38.033  0.00  0.00    +0.000 NA
ATOM      8  C   UNL     1      34.352   4.645  37.673  0.00  0.00    +0.000 C 
ENDROOT
BRANCH   8   9
ATOM      9  C   UNL     1      33.974   4.391  36.128  0.00  0.00    +0.000 A 
ATOM     10  C   UNL     1      33.760   5.408  35.304  0.00  0.00    +0.000 A 
ATOM     11  O   UNL     1      33.849   6.718  35.717  0.00  0.00    +0.000 OA
ATOM     12  C   UNL     1      33.434   5.077  33.977  0.00  0.00    +0.000 A 
ATOM     13  C   UNL     1      33.343   3.766  33.560  0.00  0.00    +0.000 A 
ATOM     14  C   UNL     1      33.578   2.757  34.470  0.00  0.00    +0.000 A 
ATOM     15  C   UNL     1      33.478   1.466  34.017  0.00  0.00    +0.000 A 
ATOM     16  C   UNL     1      33.707   0.441  34.900  0.00  0.00    +0.000 A 
ATOM     17  C   UNL     1      34.027   0.747  36.206  0.00  0.00    +0.000 A 
ATOM     18  C   UNL     1      34.129   2.045  36.663  0.00  0.00    +0.000 A 
ATOM     19  C   UNL     1      33.898   3.059  35.772  0.00  0.00    +0.000 A 
ENDBRANCH   8   9
BRANCH   1  20
ATOM     20  C   UNL     1      36.721   4.736  36.783  0.00  0.00    +0.000 C 
ATOM     21  O   UNL     1      37.151   5.043  35.631  0.00  0.00    +0.000 OA
BRANCH  20  22
ATOM     22  O   UNL     1      37.323   3.641  37.384  0.00  0.00    +0.000 OA
BRANCH  22  24
ATOM     23  C   UNL     1      39.298   2.605  38.347  0.00  0.00    +0.000 C 
ATOM     24  C   UNL     1      38.281   3.742  38.416  0.00  0.00    +0.000 C 
ENDBRANCH  22  24
ENDBRANCH  20  22
ENDBRANCH   1  20
TORSDOF 4
ENDMDL
MODEL 10
REMARK VINA RESULT:      -5.6     32.554     34.712
REMARK  Name = 
REMARK  4 active torsions:
REMARK  status: ('A' for Active; 'I' for Inactive)
REMARK    1  A    between atoms: C_2  and  O_3
REMARK    2  A    between atoms: O_3  and  C_4
REMARK    3  A    between atoms: C_4  and  C_6
REMARK    4  A    between atoms: C_13  and  C_14
REMARK                            x       y       z     vdW  Elec       q    Type
REMARK                         _______ _______ _______ _____ _____    ______ ____
ROOT
ATOM      1  C   UNL     1      19.696  -8.153  26.689  0.00  0.00    +0.000 C 
ATOM      2  C   UNL     1      20.182  -7.280  25.891  0.00  0.00    +0.000 C 
ATOM      3  C   UNL     1      21.249  -7.725  24.953  0.00  0.00    +0.000 C 
ATOM      4  N   UNL     1      19.712  -5.947  25.761  0.00  0.00    +0.000 NA
ATOM      5  C   UNL     1      18.617  -5.592  26.578  0.00  0.00    +0.000 C 
ATOM      6  O   UNL     1      18.204  -4.365  26.456  0.00  0.00    +0.000 OA
ATOM      7  N   UNL     1      18.061  -6.501  27.418  0.00  0.00    +0.000 NA
ATOM      8  C   UNL     1      18.669  -7.790  27.807  0.00  0.00    +0.000 C 
ENDROOT
BRANCH   8   9
ATOM      9  C   UNL     1      17.482  -8.796  27.392  0.00  0.00    +0.000 A 
ATOM     10  C   UNL     1      16.874  -8.684  26.219  0.00  0.00    +0.000 A 
ATOM     11  O   UNL     1      17.219  -7.716  25.303  0.00  0.00    +0.000 OA
ATOM     12  C   UNL     1      15.850  -9.610  25.956  0.00  0.00    +0.000 A 
ATOM     13  C   UNL     1      15.501 -10.582  26.870  0.00  0.00    +0.000 A 
ATOM     14  C   UNL     1      16.175 -10.642  28.073  0.00  0.00    +0.000 A 
ATOM     15  C   UNL     1      15.799 -11.621  28.956  0.00  0.00    +0.000 A 
ATOM     16  C   UNL     1      16.453 -11.705  30.160  0.00  0.00    +0.000 A 
ATOM     17  C   UNL     1      17.459 -10.804  30.435  0.00  0.00    +0.000 A 
ATOM     18  C   UNL     1      17.839  -9.818  29.546  0.00  0.00    +0.000 A 
ATOM     19  C   UNL     1      17.179  -9.744  28.349  0.00  0.00    +0.000 A 
ENDBRANCH   8   9
BRANCH   1  20
ATOM     20  C   UNL     1      20.143  -9.520  26.690  0.00  0.00    +0.000 C 
ATOM     21  O   UNL     1      20.856 -10.033  27.603  0.00  0.00    +0.000 OA
BRANCH  20  22
ATOM     22  O   UNL     1      19.793 -10.364  25.647  0.00  0.00    +0.000 OA
BRANCH  22  24
ATOM     23  C   UNL     1      18.735 -12.459  26.273  0.00  0.00    +0.000 C 
ATOM     24  C   UNL     1      19.962 -11.765  25.683  0.00  0.00    +0.000 C 
ENDBRANCH  22  24
ENDBRANCH  20  22
ENDBRANCH   1  20
TORSDOF 4
ENDMDL
