MODEL 1
REMARK VINA RESULT:      -7.1      0.000      0.000
REMARK  Name = 
REMARK  1 active torsions:
REMARK  status: ('A' for Active; 'I' for Inactive)
REMARK    1  A    between atoms: C_4  and  C_5
REMARK                            x       y       z     vdW  Elec       q    Type
REMARK                         _______ _______ _______ _____ _____    ______ ____
ROOT
ATOM      1  O   UNL     1      33.985   1.011  37.688  0.00  0.00    +0.000 OA
ATOM      2  C   UNL     1      33.723   0.746  36.480  0.00  0.00    +0.000 C 
ATOM      3  N   UNL     1      33.371  -0.564  36.061  0.00  0.00    +0.000 NA
ATOM      4  C   UNL     1      32.187  -0.642  35.006  0.00  0.00    +0.000 C 
ATOM      5  N   UNL     1      33.117   0.018  33.858  0.00  0.00    +0.000 NA
ATOM      6  C   UNL     1      33.466   1.366  34.190  0.00  0.00    +0.000 A 
ATOM      7  S   UNL     1      33.623   2.794  33.234  0.00  0.00    +0.000 S 
ATOM      8  C   UNL     1      34.073   3.895  34.453  0.00  0.00    +0.000 A 
ATOM      9  C   UNL     1      34.087   3.106  35.580  0.00  0.00    +0.000 A 
ATOM     10  C   UNL     1      33.776   1.813  35.441  0.00  0.00    +0.000 A 
ATOM     11  C   UNL     1      34.471   3.890  36.827  0.00  0.00    +0.000 C 
ATOM     12  C   UNL     1      33.412   4.995  36.863  0.00  0.00    +0.000 C 
ATOM     13  C   UNL     1      33.687   5.972  35.751  0.00  0.00    +0.000 C 
ATOM     14  C   UNL     1      34.417   5.343  34.587  0.00  0.00    +0.000 C 
ENDROOT
BRANCH   4  15
ATOM     15  C   UNL     1      32.487  -2.167  34.561  0.00  0.00    +0.000 A 
ATOM     16  C   UNL     1      33.445  -2.242  33.586  0.00  0.00    +0.000 A 
ATOM     17  C   UNL     1      33.760  -3.533  33.147  0.00  0.00    +0.000 A 
ATOM     18  C   UNL     1      33.097  -4.608  33.719  0.00  0.00    +0.000 A 
ATOM     19  C   UNL     1      32.158  -4.403  34.689  0.00  0.00    +0.000 A 
ATOM     20  N   UNL     1      31.848  -3.148  35.118  0.00  0.00    +0.000 NA
ENDBRANCH   4  15
TORSDOF 1
ENDMDL
MODEL 2
REMARK VINA RESULT:      -7.0     31.621     32.992
REMARK  Name = 
REMARK  1 active torsions:
REMARK  status: ('A' for Active; 'I' for Inactive)
REMARK    1  A    between atoms: C_4  and  C_5
REMARK                            x       y       z     vdW  Elec       q    Type
REMARK                         _______ _______ _______ _____ _____    ______ ____
ROOT
ATOM      1  O   UNL     1      29.961  20.103   8.702  0.00  0.00    +0.000 OA
ATOM      2  C   UNL     1      30.393  20.924   9.560  0.00  0.00    +0.000 C 
ATOM      3  N   UNL     1      29.556  21.452  10.578  0.00  0.00    +0.000 NA
ATOM      4  C   UNL     1      30.223  21.555  12.016  0.00  0.00    +0.000 C 
ATOM      5  N   UNL     1      31.208  22.737  11.516  0.00  0.00    +0.000 NA
ATOM      6  C   UNL     1      32.121  22.260  10.522  0.00  0.00    +0.000 A 
ATOM      7  S   UNL     1      33.787  22.592  10.221  0.00  0.00    +0.000 S 
ATOM      8  C   UNL     1      34.025  21.601   8.856  0.00  0.00    +0.000 A 
ATOM      9  C   UNL     1      32.784  21.036   8.676  0.00  0.00    +0.000 A 
ATOM     10  C   UNL     1      31.813  21.375   9.530  0.00  0.00    +0.000 A 
ATOM     11  C   UNL     1      32.751  20.088   7.485  0.00  0.00    +0.000 C 
ATOM     12  C   UNL     1      33.843  19.075   7.837  0.00  0.00    +0.000 C 
ATOM     13  C   UNL     1      35.188  19.740   7.704  0.00  0.00    +0.000 C 
ATOM     14  C   UNL     1      35.124  21.236   7.913  0.00  0.00    +0.000 C 
ENDROOT
BRANCH   4  15
ATOM     15  C   UNL     1      29.108  22.557  12.623  0.00  0.00    +0.000 A 
ATOM     16  C   UNL     1      28.040  22.712  11.781  0.00  0.00    +0.000 A 
ATOM     17  C   UNL     1      27.030  23.567  12.237  0.00  0.00    +0.000 A 
ATOM     18  C   UNL     1      27.185  24.174  13.474  0.00  0.00    +0.000 A 
ATOM     19  C   UNL     1      28.300  23.938  14.224  0.00  0.00    +0.000 A 
ATOM     20  N   UNL     1      29.286  23.106  13.783  0.00  0.00    +0.000 NA
ENDBRANCH   4  15
TORSDOF 1
ENDMDL
MODEL 3
REMARK VINA RESULT:      -6.5     30.610     32.242
REMARK  Name = 
REMARK  1 active torsions:
REMARK  status: ('A' for Active; 'I' for Inactive)
REMARK    1  A    between atoms: C_4  and  C_5
REMARK                            x       y       z     vdW  Elec       q    Type
REMARK                         _______ _______ _______ _____ _____    ______ ____
ROOT
ATOM      1  O   UNL     1      29.098  20.634   9.909  0.00  0.00    +0.000 OA
ATOM      2  C   UNL     1      29.872  21.249  10.697  0.00  0.00    +0.000 C 
ATOM      3  N   UNL     1      31.282  21.089  10.637  0.00  0.00    +0.000 NA
ATOM      4  C   UNL     1      32.121  22.427  10.805  0.00  0.00    +0.000 C 
ATOM      5  N   UNL     1      31.696  22.542  12.362  0.00  0.00    +0.000 NA
ATOM      6  C   UNL     1      30.288  22.760  12.497  0.00  0.00    +0.000 A 
ATOM      7  S   UNL     1      29.362  23.738  13.575  0.00  0.00    +0.000 S 
ATOM      8  C   UNL     1      27.798  23.367  13.012  0.00  0.00    +0.000 A 
ATOM      9  C   UNL     1      28.050  22.481  11.990  0.00  0.00    +0.000 A 
ATOM     10  C   UNL     1      29.325  22.173  11.729  0.00  0.00    +0.000 A 
ATOM     11  C   UNL     1      26.771  21.999  11.318  0.00  0.00    +0.000 C 
ATOM     12  C   UNL     1      26.126  23.308  10.854  0.00  0.00    +0.000 C 
ATOM     13  C   UNL     1      25.615  24.055  12.058  0.00  0.00    +0.000 C 
ATOM     14  C   UNL     1      26.381  23.724  13.319  0.00  0.00    +0.000 C 
ENDROOT
BRANCH   4  15
ATOM     15  C   UNL     1      33.525  21.681  11.104  0.00  0.00    +0.000 A 
ATOM     16  C   UNL     1      34.594  22.371  10.597  0.00  0.00    +0.000 A 
ATOM     17  C   UNL     1      35.847  21.787  10.815  0.00  0.00    +0.000 A 
ATOM     18  C   UNL     1      35.908  20.589  11.509  0.00  0.00    +0.000 A 
ATOM     19  C   UNL     1      34.767  19.997  11.968  0.00  0.00    +0.000 A 
ATOM     20  N   UNL     1      33.544  20.562  11.757  0.00  0.00    +0.000 NA
ENDBRANCH   4  15
TORSDOF 1
ENDMDL
MODEL 4
REMARK VINA RESULT:      -6.4     21.850     24.489
REMARK  Name = 
REMARK  1 active torsions:
REMARK  status: ('A' for Active; 'I' for Inactive)
REMARK    1  A    between atoms: C_4  and  C_5
REMARK                            x       y       z     vdW  Elec       q    Type
REMARK                         _______ _______ _______ _____ _____    ______ ____
ROOT
ATOM      1  O   UNL     1      31.397  22.679  24.644  0.00  0.00    +0.000 OA
ATOM      2  C   UNL     1      30.658  22.701  25.668  0.00  0.00    +0.000 C 
ATOM      3  N   UNL     1      31.186  22.524  26.975  0.00  0.00    +0.000 NA
ATOM      4  C   UNL     1      30.580  23.486  28.084  0.00  0.00    +0.000 C 
ATOM      5  N   UNL     1      29.152  22.728  28.015  0.00  0.00    +0.000 NA
ATOM      6  C   UNL     1      28.534  22.910  26.737  0.00  0.00    +0.000 A 
ATOM      7  S   UNL     1      26.894  23.162  26.265  0.00  0.00    +0.000 S 
ATOM      8  C   UNL     1      27.102  23.259  24.577  0.00  0.00    +0.000 A 
ATOM      9  C   UNL     1      28.460  23.090  24.433  0.00  0.00    +0.000 A 
ATOM     10  C   UNL     1      29.189  22.912  25.540  0.00  0.00    +0.000 A 
ATOM     11  C   UNL     1      28.894  23.142  22.974  0.00  0.00    +0.000 C 
ATOM     12  C   UNL     1      28.394  24.517  22.527  0.00  0.00    +0.000 C 
ATOM     13  C   UNL     1      26.891  24.485  22.432  0.00  0.00    +0.000 C 
ATOM     14  C   UNL     1      26.270  23.459  23.353  0.00  0.00    +0.000 C 
ENDROOT
BRANCH   4  15
ATOM     15  C   UNL     1      31.128  22.625  29.339  0.00  0.00    +0.000 A 
ATOM     16  C   UNL     1      32.320  22.011  29.062  0.00  0.00    +0.000 A 
ATOM     17  C   UNL     1      32.860  21.245  30.102  0.00  0.00    +0.000 A 
ATOM     18  C   UNL     1      32.165  21.170  31.299  0.00  0.00    +0.000 A 
ATOM     19  C   UNL     1      30.981  21.831  31.453  0.00  0.00    +0.000 A 
ATOM     20  N   UNL     1      30.452  22.578  30.443  0.00  0.00    +0.000 NA
ENDBRANCH   4  15
TORSDOF 1
ENDMDL
MODEL 5
REMARK VINA RESULT:      -6.2      3.124      7.596
REMARK  Name = 
REMARK  1 active torsions:
REMARK  status: ('A' for Active; 'I' for Inactive)
REMARK    1  A    between atoms: C_4  and  C_5
REMARK                            x       y       z     vdW  Elec       q    Type
REMARK                         _______ _______ _______ _____ _____    ______ ____
ROOT
ATOM      1  O   UNL     1      34.189   2.721  37.956  0.00  0.00    +0.000 OA
ATOM      2  C   UNL     1      34.255   3.464  36.936  0.00  0.00    +0.000 C 
ATOM      3  N   UNL     1      34.575   4.844  37.035  0.00  0.00    +0.000 NA
ATOM      4  C   UNL     1      35.568   5.389  35.923  0.00  0.00    +0.000 C 
ATOM      5  N   UNL     1      34.438   5.219  34.777  0.00  0.00    +0.000 NA
ATOM      6  C   UNL     1      34.105   3.840  34.584  0.00  0.00    +0.000 A 
ATOM      7  S   UNL     1      33.745   2.919  33.171  0.00  0.00    +0.000 S 
ATOM      8  C   UNL     1      33.468   1.401  33.891  0.00  0.00    +0.000 A 
ATOM      9  C   UNL     1      33.667   1.663  35.227  0.00  0.00    +0.000 A 
ATOM     10  C   UNL     1      33.993   2.911  35.577  0.00  0.00    +0.000 A 
ATOM     11  C   UNL     1      33.471   0.425  36.091  0.00  0.00    +0.000 C 
ATOM     12  C   UNL     1      34.484  -0.558  35.498  0.00  0.00    +0.000 C 
ATOM     13  C   UNL     1      33.996  -1.008  34.147  0.00  0.00    +0.000 C 
ATOM     14  C   UNL     1      33.102   0.013  33.478  0.00  0.00    +0.000 C 
ENDROOT
BRANCH   4  15
ATOM     15  C   UNL     1      35.249   6.951  36.195  0.00  0.00    +0.000 A 
ATOM     16  C   UNL     1      36.062   7.778  35.467  0.00  0.00    +0.000 A 
ATOM     17  C   UNL     1      35.846   9.149  35.649  0.00  0.00    +0.000 A 
ATOM     18  C   UNL     1      34.853   9.552  36.528  0.00  0.00    +0.000 A 
ATOM     19  C   UNL     1      34.105   8.627  37.198  0.00  0.00    +0.000 A 
ATOM     20  N   UNL     1      34.312   7.292  37.023  0.00  0.00    +0.000 NA
ENDBRANCH   4  15
TORSDOF 1
ENDMDL
MODEL 6
REMARK VINA RESULT:      -6.2     24.539     27.220
REMARK  Name = 
REMARK  1 active torsions:
REMARK  status: ('A' for Active; 'I' for Inactive)
REMARK    1  A    between atoms: C_4  and  C_5
REMARK                            x       y       z     vdW  Elec       q    Type
REMARK                         _______ _______ _______ _____ _____    ______ ____
ROOT
ATOM      1  O   UNL     1      26.482  23.125  28.275  0.00  0.00    +0.000 OA
ATOM      2  C   UNL     1      26.106  23.840  27.304  0.00  0.00    +0.000 C 
ATOM      3  N   UNL     1      24.931  24.634  27.370  0.00  0.00    +0.000 NA
ATOM      4  C   UNL     1      25.058  26.084  26.736  0.00  0.00    +0.000 C 
ATOM      5  N   UNL     1      25.158  25.464  25.245  0.00  0.00    +0.000 NA
ATOM      6  C   UNL     1      26.353  24.692  25.088  0.00  0.00    +0.000 A 
ATOM      7  S   UNL     1      27.455  24.511  23.773  0.00  0.00    +0.000 S 
ATOM      8  C   UNL     1      28.548  23.409  24.475  0.00  0.00    +0.000 A 
ATOM      9  C   UNL     1      28.013  23.215  25.728  0.00  0.00    +0.000 A 
ATOM     10  C   UNL     1      26.891  23.873  26.038  0.00  0.00    +0.000 A 
ATOM     11  C   UNL     1      28.838  22.244  26.561  0.00  0.00    +0.000 C 
ATOM     12  C   UNL     1      30.216  22.909  26.577  0.00  0.00    +0.000 C 
ATOM     13  C   UNL     1      30.833  22.789  25.208  0.00  0.00    +0.000 C 
ATOM     14  C   UNL     1      29.801  22.683  24.109  0.00  0.00    +0.000 C 
ENDROOT
BRANCH   4  15
ATOM     15  C   UNL     1      23.465  26.352  26.663  0.00  0.00    +0.000 A 
ATOM     16  C   UNL     1      23.035  26.562  25.380  0.00  0.00    +0.000 A 
ATOM     17  C   UNL     1      21.664  26.802  25.235  0.00  0.00    +0.000 A 
ATOM     18  C   UNL     1      20.868  26.808  26.370  0.00  0.00    +0.000 A 
ATOM     19  C   UNL     1      21.417  26.584  27.599  0.00  0.00    +0.000 A 
ATOM     20  N   UNL     1      22.752  26.350  27.745  0.00  0.00    +0.000 NA
ENDBRANCH   4  15
TORSDOF 1
ENDMDL
MODEL 7
REMARK VINA RESULT:      -6.1     27.516     30.372
REMARK  Name = 
REMARK  1 active torsions:
REMARK  status: ('A' for Active; 'I' for Inactive)
REMARK    1  A    between atoms: C_4  and  C_5
REMARK                            x       y       z     vdW  Elec       q    Type
REMARK                         _______ _______ _______ _____ _____    ______ ____
ROOT
ATOM      1  O   UNL     1      29.572  24.095  20.915  0.00  0.00    +0.000 OA
ATOM      2  C   UNL     1      29.387  25.341  21.022  0.00  0.00    +0.000 C 
ATOM      3  N   UNL     1      30.026  26.269  20.158  0.00  0.00    +0.000 NA
ATOM      4  C   UNL     1      29.111  27.465  19.654  0.00  0.00    +0.000 C 
ATOM      5  N   UNL     1      29.069  28.108  21.138  0.00  0.00    +0.000 NA
ATOM      6  C   UNL     1      28.387  27.246  22.054  0.00  0.00    +0.000 A 
ATOM      7  S   UNL     1      27.303  27.562  23.359  0.00  0.00    +0.000 S 
ATOM      8  C   UNL     1      27.013  25.964  23.872  0.00  0.00    +0.000 A 
ATOM      9  C   UNL     1      27.780  25.226  23.001  0.00  0.00    +0.000 A 
ATOM     10  C   UNL     1      28.481  25.885  22.072  0.00  0.00    +0.000 A 
ATOM     11  C   UNL     1      27.679  23.731  23.270  0.00  0.00    +0.000 C 
ATOM     12  C   UNL     1      26.176  23.471  23.140  0.00  0.00    +0.000 C 
ATOM     13  C   UNL     1      25.470  24.077  24.325  0.00  0.00    +0.000 C 
ATOM     14  C   UNL     1      26.223  25.247  24.917  0.00  0.00    +0.000 C 
ENDROOT
BRANCH   4  15
ATOM     15  C   UNL     1      30.339  28.384  19.144  0.00  0.00    +0.000 A 
ATOM     16  C   UNL     1      31.140  27.726  18.249  0.00  0.00    +0.000 A 
ATOM     17  C   UNL     1      32.228  28.458  17.760  0.00  0.00    +0.000 A 
ATOM     18  C   UNL     1      32.406  29.757  18.207  0.00  0.00    +0.000 A 
ATOM     19  C   UNL     1      31.536  30.306  19.104  0.00  0.00    +0.000 A 
ATOM     20  N   UNL     1      30.475  29.596  19.583  0.00  0.00    +0.000 NA
ENDBRANCH   4  15
TORSDOF 1
ENDMDL
MODEL 8
REMARK VINA RESULT:      -6.0     13.990     16.020
REMARK  Name = 
REMARK  1 active torsions:
REMARK  status: ('A' for Active; 'I' for Inactive)
REMARK    1  A    between atoms: C_4  and  C_5
REMARK                            x       y       z     vdW  Elec       q    Type
REMARK                         _______ _______ _______ _____ _____    ______ ____
ROOT
ATOM      1  O   UNL     1      23.371   8.867  36.114  0.00  0.00    +0.000 OA
ATOM      2  C   UNL     1      22.603   9.705  36.666  0.00  0.00    +0.000 C 
ATOM      3  N   UNL     1      21.190   9.606  36.563  0.00  0.00    +0.000 NA
ATOM      4  C   UNL     1      20.391   9.908  37.902  0.00  0.00    +0.000 C 
ATOM      5  N   UNL     1      20.790  11.475  37.830  0.00  0.00    +0.000 NA
ATOM      6  C   UNL     1      22.202  11.654  37.984  0.00  0.00    +0.000 A 
ATOM      7  S   UNL     1      23.138  12.847  38.805  0.00  0.00    +0.000 S 
ATOM      8  C   UNL     1      24.700  12.271  38.444  0.00  0.00    +0.000 A 
ATOM      9  C   UNL     1      24.439  11.154  37.685  0.00  0.00    +0.000 A 
ATOM     10  C   UNL     1      23.160  10.841  37.452  0.00  0.00    +0.000 A 
ATOM     11  C   UNL     1      25.714  10.453  37.236  0.00  0.00    +0.000 C 
ATOM     12  C   UNL     1      26.410  10.146  38.564  0.00  0.00    +0.000 C 
ATOM     13  C   UNL     1      26.922  11.433  39.157  0.00  0.00    +0.000 C 
ATOM     14  C   UNL     1      26.122  12.638  38.716  0.00  0.00    +0.000 C 
ENDROOT
BRANCH   4  15
ATOM     15  C   UNL     1      18.959  10.101  37.177  0.00  0.00    +0.000 A 
ATOM     16  C   UNL     1      18.938   9.558  35.920  0.00  0.00    +0.000 A 
ATOM     17  C   UNL     1      17.729   9.685  35.227  0.00  0.00    +0.000 A 
ATOM     18  C   UNL     1      16.674  10.334  35.850  0.00  0.00    +0.000 A 
ATOM     19  C   UNL     1      16.818  10.834  37.112  0.00  0.00    +0.000 A 
ATOM     20  N   UNL     1      17.994  10.713  37.790  0.00  0.00    +0.000 NA
ENDBRANCH   4  15
TORSDOF 1
ENDMDL
MODEL 9
REMARK VINA RESULT:      -5.9     21.884     25.144
REMARK  Name = 
REMARK  1 active torsions:
REMARK  status: ('A' for Active; 'I' for Inactive)
REMARK    1  A    between atoms: C_4  and  C_5
REMARK                            x       y       z     vdW  Elec       q    Type
REMARK                         _______ _______ _______ _____ _____    ______ ____
ROOT
ATOM      1  O   UNL     1      22.273  22.383  36.485  0.00  0.00    +0.000 OA
ATOM      2  C   UNL     1      21.129  21.861  36.613  0.00  0.00    +0.000 C 
ATOM      3  N   UNL     1      20.011  22.318  35.866  0.00  0.00    +0.000 NA
ATOM      4  C   UNL     1      19.065  21.176  35.298  0.00  0.00    +0.000 C 
ATOM      5  N   UNL     1      18.554  20.806  36.788  0.00  0.00    +0.000 NA
ATOM      6  C   UNL     1      19.623  20.285  37.584  0.00  0.00    +0.000 A 
ATOM      7  S   UNL     1      19.688  19.023  38.759  0.00  0.00    +0.000 S 
ATOM      8  C   UNL     1      21.336  19.118  39.178  0.00  0.00    +0.000 A 
ATOM      9  C   UNL     1      21.790  20.142  38.379  0.00  0.00    +0.000 A 
ATOM     10  C   UNL     1      20.910  20.736  37.565  0.00  0.00    +0.000 A 
ATOM     11  C   UNL     1      23.274  20.416  38.582  0.00  0.00    +0.000 C 
ATOM     12  C   UNL     1      23.908  19.060  38.263  0.00  0.00    +0.000 C 
ATOM     13  C   UNL     1      23.586  18.096  39.375  0.00  0.00    +0.000 C 
ATOM     14  C   UNL     1      22.302  18.441  40.094  0.00  0.00    +0.000 C 
ENDROOT
BRANCH   4  15
ATOM     15  C   UNL     1      17.826  22.161  34.971  0.00  0.00    +0.000 A 
ATOM     16  C   UNL     1      16.879  21.558  34.188  0.00  0.00    +0.000 A 
ATOM     17  C   UNL     1      15.772  22.350  33.861  0.00  0.00    +0.000 A 
ATOM     18  C   UNL     1      15.721  23.648  34.343  0.00  0.00    +0.000 A 
ATOM     19  C   UNL     1      16.731  24.138  35.119  0.00  0.00    +0.000 A 
ATOM     20  N   UNL     1      17.811  23.370  35.439  0.00  0.00    +0.000 NA
ENDBRANCH   4  15
TORSDOF 1
ENDMDL
MODEL 10
REMARK VINA RESULT:      -5.8     22.484     24.706
REMARK  Name = 
REMARK  1 active torsions:
REMARK  status: ('A' for Active; 'I' for Inactive)
REMARK    1  A    between atoms: C_4  and  C_5
REMARK                            x       y       z     vdW  Elec       q    Type
REMARK                         _______ _______ _______ _____ _____    ______ ____
ROOT
ATOM      1  O   UNL     1      27.662  23.957  28.239  0.00  0.00    +0.000 OA
ATOM      2  C   UNL     1      28.717  23.598  27.644  0.00  0.00    +0.000 C 
ATOM      3  N   UNL     1      29.908  23.291  28.354  0.00  0.00    +0.000 NA
ATOM      4  C   UNL     1      30.700  22.018  27.828  0.00  0.00    +0.000 C 
ATOM      5  N   UNL     1      31.113  22.791  26.467  0.00  0.00    +0.000 NA
ATOM      6  C   UNL     1      29.960  23.084  25.672  0.00  0.00    +0.000 A 
ATOM      7  S   UNL     1      29.686  23.058  23.969  0.00  0.00    +0.000 S 
ATOM      8  C   UNL     1      28.057  23.553  23.941  0.00  0.00    +0.000 A 
ATOM      9  C   UNL     1      27.774  23.725  25.277  0.00  0.00    +0.000 A 
ATOM     10  C   UNL     1      28.749  23.484  26.159  0.00  0.00    +0.000 A 
ATOM     11  C   UNL     1      26.338  24.176  25.507  0.00  0.00    +0.000 C 
ATOM     12  C   UNL     1      25.528  23.059  24.845  0.00  0.00    +0.000 C 
ATOM     13  C   UNL     1      25.681  23.163  23.351  0.00  0.00    +0.000 C 
ATOM     14  C   UNL     1      26.980  23.817  22.940  0.00  0.00    +0.000 C 
ENDROOT
BRANCH   4  15
ATOM     15  C   UNL     1      32.074  22.370  28.604  0.00  0.00    +0.000 A 
ATOM     16  C   UNL     1      32.379  21.439  29.561  0.00  0.00    +0.000 A 
ATOM     17  C   UNL     1      33.558  21.674  30.278  0.00  0.00    +0.000 A 
ATOM     18  C   UNL     1      34.305  22.801  29.973  0.00  0.00    +0.000 A 
ATOM     19  C   UNL     1      33.894  23.658  28.993  0.00  0.00    +0.000 A 
ATOM     20  N   UNL     1      32.747  23.432  28.292  0.00  0.00    +0.000 NA
ENDBRANCH   4  15
TORSDOF 1
ENDMDL
