MODEL 1
REMARK VINA RESULT:      -5.8      0.000      0.000
REMARK  Name = 
REMARK  4 active torsions:
REMARK  status: ('A' for Active; 'I' for Inactive)
REMARK    1  A    between atoms: C_5  and  S_6
REMARK    2  A    between atoms: S_6  and  C_7
REMARK    3  A    between atoms: C_7  and  C_8
REMARK    4  A    between atoms: C_8  and  N_9
REMARK                            x       y       z     vdW  Elec       q    Type
REMARK                         _______ _______ _______ _____ _____    ______ ____
ROOT
ATOM      1  C   UNL     1      25.706  24.743  24.820  0.00  0.00    +0.000 C 
ENDROOT
BRANCH   1   2
ATOM      2  N   UNL     1      26.444  24.520  23.594  0.00  0.00    +0.000 N 
ATOM      3  C   UNL     1      26.178  23.541  22.586  0.00  0.00    +0.000 C 
ATOM      4  O   UNL     1      25.231  22.692  22.603  0.00  0.00    +0.000 OA
ATOM      5  N   UNL     1      27.158  23.664  21.535  0.00  0.00    +0.000 NA
ATOM      6  C   UNL     1      28.302  24.286  22.218  0.00  0.00    +0.000 C 
ATOM      7  C   UNL     1      28.988  23.256  23.094  0.00  0.00    +0.000 C 
ATOM      8  C   UNL     1      29.246  24.951  21.276  0.00  0.00    +0.000 C 
ATOM      9  C   UNL     1      27.600  25.227  23.122  0.00  0.00    +0.000 C 
ATOM     10  O   UNL     1      27.889  26.410  23.455  0.00  0.00    +0.000 OA
ENDBRANCH   1   2
BRANCH   1  11
ATOM     11  C   UNL     1      26.583  24.562  26.040  0.00  0.00    +0.000 C 
BRANCH  11  12
ATOM     12  S   UNL     1      27.028  22.823  26.261  0.00  0.00    +0.000 S 
BRANCH  12  17
ATOM     13  C   UNL     1      32.315  22.304  29.246  0.00  0.00    +0.000 C 
ATOM     14  C   UNL     1      31.001  22.442  28.548  0.00  0.00    +0.000 A 
ATOM     15  C   UNL     1      29.845  22.833  29.196  0.00  0.00    +0.000 A 
ATOM     16  C   UNL     1      28.644  22.947  28.494  0.00  0.00    +0.000 A 
ATOM     17  C   UNL     1      28.572  22.676  27.146  0.00  0.00    +0.000 A 
ATOM     18  C   UNL     1      29.715  22.285  26.487  0.00  0.00    +0.000 A 
ATOM     19  C   UNL     1      30.896  22.178  27.198  0.00  0.00    +0.000 A 
ENDBRANCH  12  17
ENDBRANCH  11  12
ENDBRANCH   1  11
TORSDOF 4
ENDMDL
MODEL 2
REMARK VINA RESULT:      -5.8     27.221     29.051
REMARK  Name = 
REMARK  4 active torsions:
REMARK  status: ('A' for Active; 'I' for Inactive)
REMARK    1  A    between atoms: C_5  and  S_6
REMARK    2  A    between atoms: S_6  and  C_7
REMARK    3  A    between atoms: C_7  and  C_8
REMARK    4  A    between atoms: C_8  and  N_9
REMARK                            x       y       z     vdW  Elec       q    Type
REMARK                         _______ _______ _______ _____ _____    ______ ____
ROOT
ATOM      1  C   UNL     1      33.339  -5.307  32.957  0.00  0.00    +0.000 C 
ENDROOT
BRANCH   1   2
ATOM      2  N   UNL     1      33.785  -6.119  31.844  0.00  0.00    +0.000 N 
ATOM      3  C   UNL     1      35.124  -6.520  31.544  0.00  0.00    +0.000 C 
ATOM      4  O   UNL     1      36.161  -6.222  32.219  0.00  0.00    +0.000 OA
ATOM      5  N   UNL     1      35.122  -7.322  30.345  0.00  0.00    +0.000 NA
ATOM      6  C   UNL     1      33.903  -6.879  29.652  0.00  0.00    +0.000 C 
ATOM      7  C   UNL     1      34.135  -5.508  29.047  0.00  0.00    +0.000 C 
ATOM      8  C   UNL     1      33.418  -7.869  28.648  0.00  0.00    +0.000 C 
ATOM      9  C   UNL     1      32.987  -6.698  30.802  0.00  0.00    +0.000 C 
ATOM     10  O   UNL     1      31.760  -6.969  30.920  0.00  0.00    +0.000 OA
ENDBRANCH   1   2
BRANCH   1  11
ATOM     11  C   UNL     1      33.584  -3.834  32.706  0.00  0.00    +0.000 C 
BRANCH  11  12
ATOM     12  S   UNL     1      33.267  -2.865  34.200  0.00  0.00    +0.000 S 
BRANCH  12  17
ATOM     13  C   UNL     1      33.595   3.106  33.035  0.00  0.00    +0.000 C 
ATOM     14  C   UNL     1      33.544   1.635  33.295  0.00  0.00    +0.000 A 
ATOM     15  C   UNL     1      34.369   0.732  32.653  0.00  0.00    +0.000 A 
ATOM     16  C   UNL     1      34.278  -0.633  32.935  0.00  0.00    +0.000 A 
ATOM     17  C   UNL     1      33.373  -1.118  33.852  0.00  0.00    +0.000 A 
ATOM     18  C   UNL     1      32.545  -0.229  34.498  0.00  0.00    +0.000 A 
ATOM     19  C   UNL     1      32.648   1.118  34.207  0.00  0.00    +0.000 A 
ENDBRANCH  12  17
ENDBRANCH  11  12
ENDBRANCH   1  11
TORSDOF 4
ENDMDL
MODEL 3
REMARK VINA RESULT:      -5.6     26.977     28.951
REMARK  Name = 
REMARK  4 active torsions:
REMARK  status: ('A' for Active; 'I' for Inactive)
REMARK    1  A    between atoms: C_5  and  S_6
REMARK    2  A    between atoms: S_6  and  C_7
REMARK    3  A    between atoms: C_7  and  C_8
REMARK    4  A    between atoms: C_8  and  N_9
REMARK                            x       y       z     vdW  Elec       q    Type
REMARK                         _______ _______ _______ _____ _____    ______ ____
ROOT
ATOM      1  C   UNL     1      34.347  -2.831  36.535  0.00  0.00    +0.000 C 
ENDROOT
BRANCH   1   2
ATOM      2  N   UNL     1      33.701  -1.730  35.852  0.00  0.00    +0.000 N 
ATOM      3  C   UNL     1      32.429  -1.739  35.201  0.00  0.00    +0.000 C 
ATOM      4  O   UNL     1      31.642  -2.735  35.114  0.00  0.00    +0.000 OA
ATOM      5  N   UNL     1      32.168  -0.431  34.648  0.00  0.00    +0.000 NA
ATOM      6  C   UNL     1      33.517   0.125  34.465  0.00  0.00    +0.000 C 
ATOM      7  C   UNL     1      34.178  -0.535  33.270  0.00  0.00    +0.000 C 
ATOM      8  C   UNL     1      33.519   1.613  34.367  0.00  0.00    +0.000 C 
ATOM      9  C   UNL     1      34.193  -0.393  35.677  0.00  0.00    +0.000 C 
ATOM     10  O   UNL     1      35.029   0.158  36.446  0.00  0.00    +0.000 OA
ENDBRANCH   1   2
BRANCH   1  11
ATOM     11  C   UNL     1      35.225  -3.632  35.597  0.00  0.00    +0.000 C 
BRANCH  11  12
ATOM     12  S   UNL     1      34.417  -5.179  35.122  0.00  0.00    +0.000 S 
BRANCH  12  17
ATOM     13  C   UNL     1      34.200  -5.723  29.057  0.00  0.00    +0.000 C 
ATOM     14  C   UNL     1      34.289  -5.608  30.545  0.00  0.00    +0.000 A 
ATOM     15  C   UNL     1      35.360  -6.091  31.272  0.00  0.00    +0.000 A 
ATOM     16  C   UNL     1      35.390  -5.955  32.661  0.00  0.00    +0.000 A 
ATOM     17  C   UNL     1      34.365  -5.343  33.346  0.00  0.00    +0.000 A 
ATOM     18  C   UNL     1      33.291  -4.857  32.634  0.00  0.00    +0.000 A 
ATOM     19  C   UNL     1      33.277  -5.000  31.259  0.00  0.00    +0.000 A 
ENDBRANCH  12  17
ENDBRANCH  11  12
ENDBRANCH   1  11
TORSDOF 4
ENDMDL
MODEL 4
REMARK VINA RESULT:      -5.4     17.688     19.702
REMARK  Name = 
REMARK  4 active torsions:
REMARK  status: ('A' for Active; 'I' for Inactive)
REMARK    1  A    between atoms: C_5  and  S_6
REMARK    2  A    between atoms: S_6  and  C_7
REMARK    3  A    between atoms: C_7  and  C_8
REMARK    4  A    between atoms: C_8  and  N_9
REMARK                            x       y       z     vdW  Elec       q    Type
REMARK                         _______ _______ _______ _____ _____    ______ ____
ROOT
ATOM      1  C   UNL     1      20.941  10.354  38.482  0.00  0.00    +0.000 C 
ENDROOT
BRANCH   1   2
ATOM      2  N   UNL     1      22.137  10.903  37.877  0.00  0.00    +0.000 N 
ATOM      3  C   UNL     1      22.957  10.299  36.873  0.00  0.00    +0.000 C 
ATOM      4  O   UNL     1      22.765   9.161  36.338  0.00  0.00    +0.000 OA
ATOM      5  N   UNL     1      24.049  11.186  36.555  0.00  0.00    +0.000 NA
ATOM      6  C   UNL     1      24.185  11.995  37.776  0.00  0.00    +0.000 C 
ATOM      7  C   UNL     1      24.834  11.163  38.865  0.00  0.00    +0.000 C 
ATOM      8  C   UNL     1      24.901  13.281  37.540  0.00  0.00    +0.000 C 
ATOM      9  C   UNL     1      22.762  12.165  38.150  0.00  0.00    +0.000 C 
ATOM     10  O   UNL     1      22.152  13.169  38.612  0.00  0.00    +0.000 OA
ENDBRANCH   1   2
BRANCH   1  11
ATOM     11  C   UNL     1      19.687  10.959  37.886  0.00  0.00    +0.000 C 
BRANCH  11  12
ATOM     12  S   UNL     1      18.610   9.672  37.211  0.00  0.00    +0.000 S 
BRANCH  12  17
ATOM     13  C   UNL     1      15.263  11.854  32.611  0.00  0.00    +0.000 C 
ATOM     14  C   UNL     1      16.064  11.342  33.764  0.00  0.00    +0.000 A 
ATOM     15  C   UNL     1      15.848  11.751  35.066  0.00  0.00    +0.000 A 
ATOM     16  C   UNL     1      16.627  11.238  36.106  0.00  0.00    +0.000 A 
ATOM     17  C   UNL     1      17.623  10.317  35.871  0.00  0.00    +0.000 A 
ATOM     18  C   UNL     1      17.848   9.901  34.579  0.00  0.00    +0.000 A 
ATOM     19  C   UNL     1      17.068  10.419  33.561  0.00  0.00    +0.000 A 
ENDBRANCH  12  17
ENDBRANCH  11  12
ENDBRANCH   1  11
TORSDOF 4
ENDMDL
MODEL 5
REMARK VINA RESULT:      -5.3      2.308      3.431
REMARK  Name = 
REMARK  4 active torsions:
REMARK  status: ('A' for Active; 'I' for Inactive)
REMARK    1  A    between atoms: C_5  and  S_6
REMARK    2  A    between atoms: S_6  and  C_7
REMARK    3  A    between atoms: C_7  and  C_8
REMARK    4  A    between atoms: C_8  and  N_9
REMARK                            x       y       z     vdW  Elec       q    Type
REMARK                         _______ _______ _______ _____ _____    ______ ____
ROOT
ATOM      1  C   UNL     1      30.620  23.873  23.939  0.00  0.00    +0.000 C 
ENDROOT
BRANCH   1   2
ATOM      2  N   UNL     1      29.286  23.713  23.397  0.00  0.00    +0.000 N 
ATOM      3  C   UNL     1      28.873  23.890  22.040  0.00  0.00    +0.000 C 
ATOM      4  O   UNL     1      29.625  24.224  21.069  0.00  0.00    +0.000 OA
ATOM      5  N   UNL     1      27.458  23.631  21.937  0.00  0.00    +0.000 NA
ATOM      6  C   UNL     1      26.972  23.895  23.300  0.00  0.00    +0.000 C 
ATOM      7  C   UNL     1      26.946  25.391  23.545  0.00  0.00    +0.000 C 
ATOM      8  C   UNL     1      25.658  23.249  23.580  0.00  0.00    +0.000 C 
ATOM      9  C   UNL     1      28.090  23.343  24.099  0.00  0.00    +0.000 C 
ATOM     10  O   UNL     1      28.078  22.679  25.173  0.00  0.00    +0.000 OA
ENDBRANCH   1   2
BRANCH   1  11
ATOM     11  C   UNL     1      30.721  25.100  24.819  0.00  0.00    +0.000 C 
BRANCH  11  12
ATOM     12  S   UNL     1      31.997  24.883  26.082  0.00  0.00    +0.000 S 
BRANCH  12  17
ATOM     13  C   UNL     1      29.618  22.388  31.107  0.00  0.00    +0.000 C 
ATOM     14  C   UNL     1      30.229  22.971  29.873  0.00  0.00    +0.000 A 
ATOM     15  C   UNL     1      31.317  22.405  29.236  0.00  0.00    +0.000 A 
ATOM     16  C   UNL     1      31.846  22.993  28.085  0.00  0.00    +0.000 A 
ATOM     17  C   UNL     1      31.308  24.142  27.553  0.00  0.00    +0.000 A 
ATOM     18  C   UNL     1      30.223  24.716  28.177  0.00  0.00    +0.000 A 
ATOM     19  C   UNL     1      29.712  24.121  29.316  0.00  0.00    +0.000 A 
ENDBRANCH  12  17
ENDBRANCH  11  12
ENDBRANCH   1  11
TORSDOF 4
ENDMDL
MODEL 6
REMARK VINA RESULT:      -5.3     18.111     20.090
REMARK  Name = 
REMARK  4 active torsions:
REMARK  status: ('A' for Active; 'I' for Inactive)
REMARK    1  A    between atoms: C_5  and  S_6
REMARK    2  A    between atoms: S_6  and  C_7
REMARK    3  A    between atoms: C_7  and  C_8
REMARK    4  A    between atoms: C_8  and  N_9
REMARK                            x       y       z     vdW  Elec       q    Type
REMARK                         _______ _______ _______ _____ _____    ______ ____
ROOT
ATOM      1  C   UNL     1      20.787  10.670  38.483  0.00  0.00    +0.000 C 
ENDROOT
BRANCH   1   2
ATOM      2  N   UNL     1      22.214  10.887  38.367  0.00  0.00    +0.000 N 
ATOM      3  C   UNL     1      22.903  12.139  38.347  0.00  0.00    +0.000 C 
ATOM      4  O   UNL     1      22.364  13.288  38.432  0.00  0.00    +0.000 OA
ATOM      5  N   UNL     1      24.320  11.899  38.216  0.00  0.00    +0.000 NA
ATOM      6  C   UNL     1      24.374  10.580  37.567  0.00  0.00    +0.000 C 
ATOM      7  C   UNL     1      23.997  10.720  36.105  0.00  0.00    +0.000 C 
ATOM      8  C   UNL     1      25.687   9.899  37.754  0.00  0.00    +0.000 C 
ATOM      9  C   UNL     1      23.247   9.898  38.244  0.00  0.00    +0.000 C 
ATOM     10  O   UNL     1      23.139   8.710  38.657  0.00  0.00    +0.000 OA
ENDBRANCH   1   2
BRANCH   1  11
ATOM     11  C   UNL     1      20.252   9.842  37.335  0.00  0.00    +0.000 C 
BRANCH  11  12
ATOM     12  S   UNL     1      18.472   9.576  37.507  0.00  0.00    +0.000 S 
BRANCH  12  17
ATOM     13  C   UNL     1      15.520  11.742  32.636  0.00  0.00    +0.000 C 
ATOM     14  C   UNL     1      16.223  11.234  33.854  0.00  0.00    +0.000 A 
ATOM     15  C   UNL     1      15.937  11.688  35.127  0.00  0.00    +0.000 A 
ATOM     16  C   UNL     1      16.625  11.178  36.230  0.00  0.00    +0.000 A 
ATOM     17  C   UNL     1      17.599  10.217  36.087  0.00  0.00    +0.000 A 
ATOM     18  C   UNL     1      17.895   9.756  34.824  0.00  0.00    +0.000 A 
ATOM     19  C   UNL     1      17.204  10.272  33.743  0.00  0.00    +0.000 A 
ENDBRANCH  12  17
ENDBRANCH  11  12
ENDBRANCH   1  11
TORSDOF 4
ENDMDL
MODEL 7
REMARK VINA RESULT:      -5.3      1.328      2.438
REMARK  Name = 
REMARK  4 active torsions:
REMARK  status: ('A' for Active; 'I' for Inactive)
REMARK    1  A    between atoms: C_5  and  S_6
REMARK    2  A    between atoms: S_6  and  C_7
REMARK    3  A    between atoms: C_7  and  C_8
REMARK    4  A    between atoms: C_8  and  N_9
REMARK                            x       y       z     vdW  Elec       q    Type
REMARK                         _______ _______ _______ _____ _____    ______ ____
ROOT
ATOM      1  C   UNL     1      25.760  24.502  24.545  0.00  0.00    +0.000 C 
ENDROOT
BRANCH   1   2
ATOM      2  N   UNL     1      26.988  24.869  23.871  0.00  0.00    +0.000 N 
ATOM      3  C   UNL     1      28.020  25.731  24.356  0.00  0.00    +0.000 C 
ATOM      4  O   UNL     1      28.028  26.326  25.481  0.00  0.00    +0.000 OA
ATOM      5  N   UNL     1      29.065  25.826  23.365  0.00  0.00    +0.000 NA
ATOM      6  C   UNL     1      28.361  25.516  22.111  0.00  0.00    +0.000 C 
ATOM      7  C   UNL     1      27.508  26.701  21.704  0.00  0.00    +0.000 C 
ATOM      8  C   UNL     1      29.284  25.078  21.025  0.00  0.00    +0.000 C 
ATOM      9  C   UNL     1      27.438  24.454  22.574  0.00  0.00    +0.000 C 
ATOM     10  O   UNL     1      27.075  23.383  22.010  0.00  0.00    +0.000 OA
ENDBRANCH   1   2
BRANCH   1  11
ATOM     11  C   UNL     1      25.917  23.218  25.330  0.00  0.00    +0.000 C 
BRANCH  11  12
ATOM     12  S   UNL     1      26.257  23.566  27.072  0.00  0.00    +0.000 S 
BRANCH  12  17
ATOM     13  C   UNL     1      31.982  22.070  28.527  0.00  0.00    +0.000 C 
ATOM     14  C   UNL     1      30.584  22.423  28.133  0.00  0.00    +0.000 A 
ATOM     15  C   UNL     1      30.079  22.186  26.869  0.00  0.00    +0.000 A 
ATOM     16  C   UNL     1      28.764  22.536  26.557  0.00  0.00    +0.000 A 
ATOM     17  C   UNL     1      27.936  23.122  27.487  0.00  0.00    +0.000 A 
ATOM     18  C   UNL     1      28.426  23.364  28.751  0.00  0.00    +0.000 A 
ATOM     19  C   UNL     1      29.730  23.011  29.043  0.00  0.00    +0.000 A 
ENDBRANCH  12  17
ENDBRANCH  11  12
ENDBRANCH   1  11
TORSDOF 4
ENDMDL
MODEL 8
REMARK VINA RESULT:      -5.2      4.232      5.082
REMARK  Name = 
REMARK  4 active torsions:
REMARK  status: ('A' for Active; 'I' for Inactive)
REMARK    1  A    between atoms: C_5  and  S_6
REMARK    2  A    between atoms: S_6  and  C_7
REMARK    3  A    between atoms: C_7  and  C_8
REMARK    4  A    between atoms: C_8  and  N_9
REMARK                            x       y       z     vdW  Elec       q    Type
REMARK                         _______ _______ _______ _____ _____    ______ ____
ROOT
ATOM      1  C   UNL     1      30.665  23.894  23.877  0.00  0.00    +0.000 C 
ENDROOT
BRANCH   1   2
ATOM      2  N   UNL     1      29.321  23.732  23.363  0.00  0.00    +0.000 N 
ATOM      3  C   UNL     1      28.879  23.913  22.015  0.00  0.00    +0.000 C 
ATOM      4  O   UNL     1      29.609  24.253  21.030  0.00  0.00    +0.000 OA
ATOM      5  N   UNL     1      27.462  23.651  21.940  0.00  0.00    +0.000 NA
ATOM      6  C   UNL     1      27.004  23.909  23.314  0.00  0.00    +0.000 C 
ATOM      7  C   UNL     1      26.979  25.404  23.567  0.00  0.00    +0.000 C 
ATOM      8  C   UNL     1      25.699  23.258  23.619  0.00  0.00    +0.000 C 
ATOM      9  C   UNL     1      28.141  23.357  24.087  0.00  0.00    +0.000 C 
ATOM     10  O   UNL     1      28.153  22.688  25.159  0.00  0.00    +0.000 OA
ENDBRANCH   1   2
BRANCH   1  11
ATOM     11  C   UNL     1      30.659  24.328  25.327  0.00  0.00    +0.000 C 
BRANCH  11  12
ATOM     12  S   UNL     1      31.572  25.875  25.539  0.00  0.00    +0.000 S 
BRANCH  12  17
ATOM     13  C   UNL     1      37.435  25.083  24.080  0.00  0.00    +0.000 C 
ATOM     14  C   UNL     1      36.003  25.316  24.442  0.00  0.00    +0.000 A 
ATOM     15  C   UNL     1      35.501  26.568  24.747  0.00  0.00    +0.000 A 
ATOM     16  C   UNL     1      34.154  26.727  25.079  0.00  0.00    +0.000 A 
ATOM     17  C   UNL     1      33.291  25.656  25.111  0.00  0.00    +0.000 A 
ATOM     18  C   UNL     1      33.777  24.404  24.810  0.00  0.00    +0.000 A 
ATOM     19  C   UNL     1      35.114  24.264  24.484  0.00  0.00    +0.000 A 
ENDBRANCH  12  17
ENDBRANCH  11  12
ENDBRANCH   1  11
TORSDOF 4
ENDMDL
MODEL 9
REMARK VINA RESULT:      -5.0     21.997     24.156
REMARK  Name = 
REMARK  4 active torsions:
REMARK  status: ('A' for Active; 'I' for Inactive)
REMARK    1  A    between atoms: C_5  and  S_6
REMARK    2  A    between atoms: S_6  and  C_7
REMARK    3  A    between atoms: C_7  and  C_8
REMARK    4  A    between atoms: C_8  and  N_9
REMARK                            x       y       z     vdW  Elec       q    Type
REMARK                         _______ _______ _______ _____ _____    ______ ____
ROOT
ATOM      1  C   UNL     1      18.416   8.391  39.089  0.00  0.00    +0.000 C 
ENDROOT
BRANCH   1   2
ATOM      2  N   UNL     1      18.392   7.991  40.480  0.00  0.00    +0.000 N 
ATOM      3  C   UNL     1      19.514   7.767  41.338  0.00  0.00    +0.000 C 
ATOM      4  O   UNL     1      20.738   7.885  41.011  0.00  0.00    +0.000 OA
ATOM      5  N   UNL     1      19.043   7.382  42.646  0.00  0.00    +0.000 NA
ATOM      6  C   UNL     1      17.716   6.813  42.365  0.00  0.00    +0.000 C 
ATOM      7  C   UNL     1      17.875   5.445  41.732  0.00  0.00    +0.000 C 
ATOM      8  C   UNL     1      16.834   6.785  43.567  0.00  0.00    +0.000 C 
ATOM      9  C   UNL     1      17.246   7.731  41.302  0.00  0.00    +0.000 C 
ATOM     10  O   UNL     1      16.102   8.226  41.096  0.00  0.00    +0.000 OA
ENDBRANCH   1   2
BRANCH   1  11
ATOM     11  C   UNL     1      18.445   9.896  38.941  0.00  0.00    +0.000 C 
BRANCH  11  12
ATOM     12  S   UNL     1      18.181  10.380  37.218  0.00  0.00    +0.000 S 
BRANCH  12  17
ATOM     13  C   UNL     1      12.661  12.870  36.546  0.00  0.00    +0.000 C 
ATOM     14  C   UNL     1      14.025  12.274  36.676  0.00  0.00    +0.000 A 
ATOM     15  C   UNL     1      15.005  12.429  35.713  0.00  0.00    +0.000 A 
ATOM     16  C   UNL     1      16.264  11.850  35.887  0.00  0.00    +0.000 A 
ATOM     17  C   UNL     1      16.568  11.115  37.011  0.00  0.00    +0.000 A 
ATOM     18  C   UNL     1      15.601  10.953  37.978  0.00  0.00    +0.000 A 
ATOM     19  C   UNL     1      14.360  11.532  37.789  0.00  0.00    +0.000 A 
ENDBRANCH  12  17
ENDBRANCH  11  12
ENDBRANCH   1  11
TORSDOF 4
ENDMDL
MODEL 10
REMARK VINA RESULT:      -5.0     31.487     32.536
REMARK  Name = 
REMARK  4 active torsions:
REMARK  status: ('A' for Active; 'I' for Inactive)
REMARK    1  A    between atoms: C_5  and  S_6
REMARK    2  A    between atoms: S_6  and  C_7
REMARK    3  A    between atoms: C_7  and  C_8
REMARK    4  A    between atoms: C_8  and  N_9
REMARK                            x       y       z     vdW  Elec       q    Type
REMARK                         _______ _______ _______ _____ _____    ______ ____
ROOT
ATOM      1  C   UNL     1      21.072  -7.844  25.641  0.00  0.00    +0.000 C 
ENDROOT
BRANCH   1   2
ATOM      2  N   UNL     1      19.675  -7.491  25.779  0.00  0.00    +0.000 N 
ATOM      3  C   UNL     1      19.133  -6.219  26.143  0.00  0.00    +0.000 C 
ATOM      4  O   UNL     1      19.803  -5.171  26.410  0.00  0.00    +0.000 OA
ATOM      5  N   UNL     1      17.693  -6.305  26.163  0.00  0.00    +0.000 NA
ATOM      6  C   UNL     1      17.449  -7.736  26.399  0.00  0.00    +0.000 C 
ATOM      7  C   UNL     1      17.750  -8.068  27.848  0.00  0.00    +0.000 C 
ATOM      8  C   UNL     1      16.081  -8.164  25.989  0.00  0.00    +0.000 C 
ATOM      9  C   UNL     1      18.531  -8.334  25.583  0.00  0.00    +0.000 C 
ATOM     10  O   UNL     1      18.527  -9.359  24.845  0.00  0.00    +0.000 OA
ENDBRANCH   1   2
BRANCH   1  11
ATOM     11  C   UNL     1      21.696  -7.190  24.427  0.00  0.00    +0.000 C 
BRANCH  11  12
ATOM     12  S   UNL     1      22.226  -8.435  23.227  0.00  0.00    +0.000 S 
BRANCH  12  17
ATOM     13  C   UNL     1      28.235  -8.124  22.264  0.00  0.00    +0.000 C 
ATOM     14  C   UNL     1      26.763  -8.165  22.518  0.00  0.00    +0.000 A 
ATOM     15  C   UNL     1      26.085  -7.147  23.162  0.00  0.00    +0.000 A 
ATOM     16  C   UNL     1      24.707  -7.238  23.371  0.00  0.00    +0.000 A 
ATOM     17  C   UNL     1      23.987  -8.332  22.949  0.00  0.00    +0.000 A 
ATOM     18  C   UNL     1      24.649  -9.353  22.307  0.00  0.00    +0.000 A 
ATOM     19  C   UNL     1      26.013  -9.247  22.107  0.00  0.00    +0.000 A 
ENDBRANCH  12  17
ENDBRANCH  11  12
ENDBRANCH   1  11
TORSDOF 4
ENDMDL
