MODEL 1
REMARK VINA RESULT:      -8.1      0.000      0.000
REMARK  Name = 
REMARK  6 active torsions:
REMARK  status: ('A' for Active; 'I' for Inactive)
REMARK    1  A    between atoms: C_2  and  N_3
REMARK    2  A    between atoms: N_3  and  C_4
REMARK    3  A    between atoms: N_3  and  C_6
REMARK    4  A    between atoms: C_6  and  C_7
REMARK    5  A    between atoms: C_9  and  N_10
REMARK    6  A    between atoms: N_10  and  C_11
REMARK                            x       y       z     vdW  Elec       q    Type
REMARK                         _______ _______ _______ _____ _____    ______ ____
ROOT
ATOM      1  C   UNL     1      38.122  -1.808  15.944  0.00  0.00    +0.000 A 
ATOM      2  C   UNL     1      38.130  -2.229  17.296  0.00  0.00    +0.000 A 
ATOM      3  C   UNL     1      38.890  -3.308  17.662  0.00  0.00    +0.000 A 
ATOM      4  C   UNL     1      38.909  -3.748  18.994  0.00  0.00    +0.000 A 
ATOM      5  C   UNL     1      38.165  -3.096  19.933  0.00  0.00    +0.000 A 
ATOM      6  C   UNL     1      37.396  -2.009  19.588  0.00  0.00    +0.000 A 
ATOM      7  C   UNL     1      37.399  -1.607  18.281  0.00  0.00    +0.000 A 
ATOM      8  N   UNL     1      36.639  -0.545  17.965  0.00  0.00    +0.000 NA
ATOM      9  C   UNL     1      36.576  -0.084  16.736  0.00  0.00    +0.000 A 
ATOM     10  C   UNL     1      35.871   0.991  16.225  0.00  0.00    +0.000 A 
ATOM     11  C   UNL     1      35.040   1.978  16.711  0.00  0.00    +0.000 A 
ATOM     12  C   UNL     1      34.558   2.935  15.895  0.00  0.00    +0.000 A 
ATOM     13  C   UNL     1      34.835   3.004  14.538  0.00  0.00    +0.000 A 
ATOM     14  C   UNL     1      35.660   2.017  14.071  0.00  0.00    +0.000 A 
ATOM     15  C   UNL     1      36.168   1.029  14.905  0.00  0.00    +0.000 A 
ATOM     16  N   UNL     1      37.018   0.023  14.640  0.00  0.00    +0.000 N 
ATOM     17  C   UNL     1      37.484  -0.206  13.273  0.00  0.00    +0.000 C 
ATOM     18  C   UNL     1      37.313  -0.701  15.696  0.00  0.00    +0.000 A 
ENDROOT
BRANCH   1  19
ATOM     19  N   UNL     1      38.852  -2.482  15.047  0.00  0.00    +0.000 NA
BRANCH  19  22
ATOM     20  C   UNL     1      42.342  -2.070  14.025  0.00  0.00    +0.000 A 
ATOM     21  C   UNL     1      41.211  -1.986  14.752  0.00  0.00    +0.000 A 
ATOM     22  C   UNL     1      39.973  -2.456  14.266  0.00  0.00    +0.000 A 
ATOM     23  C   UNL     1      39.970  -3.004  13.011  0.00  0.00    +0.000 A 
ATOM     24  C   UNL     1      41.122  -3.111  12.234  0.00  0.00    +0.000 A 
ATOM     25  C   UNL     1      42.298  -2.667  12.694  0.00  0.00    +0.000 A 
ATOM     26  O   UNL     1      43.501  -2.720  12.019  0.00  0.00    +0.000 OA
BRANCH  20  27
ATOM     27  C   UNL     1      43.753  -1.792  14.354  0.00  0.00    +0.000 C 
BRANCH  27  28
ATOM     28  N   UNL     1      43.925  -0.410  14.930  0.00  0.00    +0.000 NA
BRANCH  28  30
ATOM     29  C   UNL     1      45.465   0.087  13.045  0.00  0.00    +0.000 C 
ATOM     30  C   UNL     1      44.120   0.432  13.662  0.00  0.00    +0.000 C 
ENDBRANCH  28  30
BRANCH  28  31
ATOM     31  C   UNL     1      45.394  -0.471  15.350  0.00  0.00    +0.000 C 
ATOM     32  C   UNL     1      45.484  -0.147  16.820  0.00  0.00    +0.000 C 
ENDBRANCH  28  31
ENDBRANCH  27  28
ENDBRANCH  20  27
ENDBRANCH  19  22
ENDBRANCH   1  19
TORSDOF 6
ENDMDL
MODEL 2
REMARK VINA RESULT:      -7.8      1.672      3.386
REMARK  Name = 
REMARK  6 active torsions:
REMARK  status: ('A' for Active; 'I' for Inactive)
REMARK    1  A    between atoms: C_2  and  N_3
REMARK    2  A    between atoms: N_3  and  C_4
REMARK    3  A    between atoms: N_3  and  C_6
REMARK    4  A    between atoms: C_6  and  C_7
REMARK    5  A    between atoms: C_9  and  N_10
REMARK    6  A    between atoms: N_10  and  C_11
REMARK                            x       y       z     vdW  Elec       q    Type
REMARK                         _______ _______ _______ _____ _____    ______ ____
ROOT
ATOM      1  C   UNL     1      38.169  -1.768  15.808  0.00  0.00    +0.000 A 
ATOM      2  C   UNL     1      38.171  -2.228  17.147  0.00  0.00    +0.000 A 
ATOM      3  C   UNL     1      38.930  -3.315  17.487  0.00  0.00    +0.000 A 
ATOM      4  C   UNL     1      38.944  -3.792  18.806  0.00  0.00    +0.000 A 
ATOM      5  C   UNL     1      38.194  -3.169  19.759  0.00  0.00    +0.000 A 
ATOM      6  C   UNL     1      37.425  -2.073  19.441  0.00  0.00    +0.000 A 
ATOM      7  C   UNL     1      37.434  -1.634  18.146  0.00  0.00    +0.000 A 
ATOM      8  N   UNL     1      36.674  -0.565  17.857  0.00  0.00    +0.000 NA
ATOM      9  C   UNL     1      36.617  -0.070  16.640  0.00  0.00    +0.000 A 
ATOM     10  C   UNL     1      35.913   1.019  16.157  0.00  0.00    +0.000 A 
ATOM     11  C   UNL     1      35.078   1.990  16.666  0.00  0.00    +0.000 A 
ATOM     12  C   UNL     1      34.599   2.970  15.876  0.00  0.00    +0.000 A 
ATOM     13  C   UNL     1      34.883   3.078  14.522  0.00  0.00    +0.000 A 
ATOM     14  C   UNL     1      35.712   2.105  14.032  0.00  0.00    +0.000 A 
ATOM     15  C   UNL     1      36.217   1.095  14.840  0.00  0.00    +0.000 A 
ATOM     16  N   UNL     1      37.069   0.097  14.551  0.00  0.00    +0.000 N 
ATOM     17  C   UNL     1      37.542  -0.091  13.181  0.00  0.00    +0.000 C 
ATOM     18  C   UNL     1      37.359  -0.656  15.587  0.00  0.00    +0.000 A 
ENDROOT
BRANCH   1  19
ATOM     19  N   UNL     1      38.904  -2.415  14.896  0.00  0.00    +0.000 NA
BRANCH  19  22
ATOM     20  C   UNL     1      41.424  -2.789  12.268  0.00  0.00    +0.000 A 
ATOM     21  C   UNL     1      40.244  -2.840  12.916  0.00  0.00    +0.000 A 
ATOM     22  C   UNL     1      40.119  -2.478  14.273  0.00  0.00    +0.000 A 
ATOM     23  C   UNL     1      41.260  -2.071  14.911  0.00  0.00    +0.000 A 
ATOM     24  C   UNL     1      42.496  -2.000  14.270  0.00  0.00    +0.000 A 
ATOM     25  C   UNL     1      42.616  -2.342  12.981  0.00  0.00    +0.000 A 
ATOM     26  O   UNL     1      43.782  -2.312  12.244  0.00  0.00    +0.000 OA
BRANCH  20  27
ATOM     27  C   UNL     1      41.783  -2.969  10.849  0.00  0.00    +0.000 C 
BRANCH  27  28
ATOM     28  N   UNL     1      40.576  -3.307  10.011  0.00  0.00    +0.000 NA
BRANCH  28  30
ATOM     29  C   UNL     1      41.954  -5.333   9.599  0.00  0.00    +0.000 C 
ATOM     30  C   UNL     1      41.191  -4.203   8.928  0.00  0.00    +0.000 C 
ENDBRANCH  28  30
BRANCH  28  31
ATOM     31  C   UNL     1      40.464  -2.035   9.170  0.00  0.00    +0.000 C 
ATOM     32  C   UNL     1      40.706  -2.397   7.725  0.00  0.00    +0.000 C 
ENDBRANCH  28  31
ENDBRANCH  27  28
ENDBRANCH  20  27
ENDBRANCH  19  22
ENDBRANCH   1  19
TORSDOF 6
ENDMDL
MODEL 3
REMARK VINA RESULT:      -7.7      4.372      7.180
REMARK  Name = 
REMARK  6 active torsions:
REMARK  status: ('A' for Active; 'I' for Inactive)
REMARK    1  A    between atoms: C_2  and  N_3
REMARK    2  A    between atoms: N_3  and  C_4
REMARK    3  A    between atoms: N_3  and  C_6
REMARK    4  A    between atoms: C_6  and  C_7
REMARK    5  A    between atoms: C_9  and  N_10
REMARK    6  A    between atoms: N_10  and  C_11
REMARK                            x       y       z     vdW  Elec       q    Type
REMARK                         _______ _______ _______ _____ _____    ______ ____
ROOT
ATOM      1  C   UNL     1      37.515   1.146  15.162  0.00  0.00    +0.000 A 
ATOM      2  C   UNL     1      36.628   0.327  15.902  0.00  0.00    +0.000 A 
ATOM      3  C   UNL     1      35.413   0.826  16.289  0.00  0.00    +0.000 A 
ATOM      4  C   UNL     1      34.519   0.035  17.027  0.00  0.00    +0.000 A 
ATOM      5  C   UNL     1      34.863  -1.240  17.363  0.00  0.00    +0.000 A 
ATOM      6  C   UNL     1      36.078  -1.762  16.984  0.00  0.00    +0.000 A 
ATOM      7  C   UNL     1      36.925  -0.965  16.265  0.00  0.00    +0.000 A 
ATOM      8  N   UNL     1      38.108  -1.494  15.907  0.00  0.00    +0.000 NA
ATOM      9  C   UNL     1      38.989  -0.806  15.217  0.00  0.00    +0.000 A 
ATOM     10  C   UNL     1      40.237  -1.177  14.749  0.00  0.00    +0.000 A 
ATOM     11  C   UNL     1      41.024  -2.309  14.756  0.00  0.00    +0.000 A 
ATOM     12  C   UNL     1      42.215  -2.324  14.126  0.00  0.00    +0.000 A 
ATOM     13  C   UNL     1      42.742  -1.235  13.447  0.00  0.00    +0.000 A 
ATOM     14  C   UNL     1      41.949  -0.119  13.450  0.00  0.00    +0.000 A 
ATOM     15  C   UNL     1      40.717  -0.095  14.091  0.00  0.00    +0.000 A 
ATOM     16  N   UNL     1      39.793   0.878  14.159  0.00  0.00    +0.000 N 
ATOM     17  C   UNL     1      40.059   2.186  13.564  0.00  0.00    +0.000 C 
ATOM     18  C   UNL     1      38.718   0.528  14.827  0.00  0.00    +0.000 A 
ENDROOT
BRANCH   1  19
ATOM     19  N   UNL     1      37.150   2.399  14.864  0.00  0.00    +0.000 NA
BRANCH  19  22
ATOM     20  C   UNL     1      38.619   5.468  16.214  0.00  0.00    +0.000 A 
ATOM     21  C   UNL     1      38.366   4.160  16.013  0.00  0.00    +0.000 A 
ATOM     22  C   UNL     1      37.330   3.721  15.162  0.00  0.00    +0.000 A 
ATOM     23  C   UNL     1      36.585   4.690  14.545  0.00  0.00    +0.000 A 
ATOM     24  C   UNL     1      36.823   6.051  14.726  0.00  0.00    +0.000 A 
ATOM     25  C   UNL     1      37.806   6.470  15.532  0.00  0.00    +0.000 A 
ATOM     26  O   UNL     1      38.135   7.786  15.787  0.00  0.00    +0.000 OA
BRANCH  20  27
ATOM     27  C   UNL     1      39.708   6.168  16.921  0.00  0.00    +0.000 C 
BRANCH  27  28
ATOM     28  N   UNL     1      39.798   5.738  18.363  0.00  0.00    +0.000 NA
BRANCH  28  30
ATOM     29  C   UNL     1      39.634   7.274  20.309  0.00  0.00    +0.000 C 
ATOM     30  C   UNL     1      38.923   6.791  19.055  0.00  0.00    +0.000 C 
ENDBRANCH  28  30
BRANCH  28  31
ATOM     31  C   UNL     1      41.154   6.335  18.741  0.00  0.00    +0.000 C 
ATOM     32  C   UNL     1      41.974   6.488  17.483  0.00  0.00    +0.000 C 
ENDBRANCH  28  31
ENDBRANCH  27  28
ENDBRANCH  20  27
ENDBRANCH  19  22
ENDBRANCH   1  19
TORSDOF 6
ENDMDL
MODEL 4
REMARK VINA RESULT:      -7.6      4.766      7.383
REMARK  Name = 
REMARK  6 active torsions:
REMARK  status: ('A' for Active; 'I' for Inactive)
REMARK    1  A    between atoms: C_2  and  N_3
REMARK    2  A    between atoms: N_3  and  C_4
REMARK    3  A    between atoms: N_3  and  C_6
REMARK    4  A    between atoms: C_6  and  C_7
REMARK    5  A    between atoms: C_9  and  N_10
REMARK    6  A    between atoms: N_10  and  C_11
REMARK                            x       y       z     vdW  Elec       q    Type
REMARK                         _______ _______ _______ _____ _____    ______ ____
ROOT
ATOM      1  C   UNL     1      38.173   2.056  14.689  0.00  0.00    +0.000 A 
ATOM      2  C   UNL     1      39.378   1.481  14.218  0.00  0.00    +0.000 A 
ATOM      3  C   UNL     1      40.310   2.275  13.606  0.00  0.00    +0.000 A 
ATOM      4  C   UNL     1      41.510   1.728  13.126  0.00  0.00    +0.000 A 
ATOM      5  C   UNL     1      41.750   0.393  13.270  0.00  0.00    +0.000 A 
ATOM      6  C   UNL     1      40.828  -0.423  13.883  0.00  0.00    +0.000 A 
ATOM      7  C   UNL     1      39.669   0.142  14.339  0.00  0.00    +0.000 A 
ATOM      8  N   UNL     1      38.782  -0.674  14.932  0.00  0.00    +0.000 NA
ATOM      9  C   UNL     1      37.639  -0.224  15.402  0.00  0.00    +0.000 A 
ATOM     10  C   UNL     1      36.618  -0.897  16.049  0.00  0.00    +0.000 A 
ATOM     11  C   UNL     1      36.368  -2.182  16.480  0.00  0.00    +0.000 A 
ATOM     12  C   UNL     1      35.239  -2.475  17.153  0.00  0.00    +0.000 A 
ATOM     13  C   UNL     1      34.255  -1.544  17.452  0.00  0.00    +0.000 A 
ATOM     14  C   UNL     1      34.517  -0.273  17.015  0.00  0.00    +0.000 A 
ATOM     15  C   UNL     1      35.682   0.041  16.327  0.00  0.00    +0.000 A 
ATOM     16  N   UNL     1      36.127   1.223  15.870  0.00  0.00    +0.000 N 
ATOM     17  C   UNL     1      35.298   2.420  15.998  0.00  0.00    +0.000 C 
ATOM     18  C   UNL     1      37.305   1.148  15.293  0.00  0.00    +0.000 A 
ENDROOT
BRANCH   1  19
ATOM     19  N   UNL     1      37.964   3.366  14.516  0.00  0.00    +0.000 NA
BRANCH  19  22
ATOM     20  C   UNL     1      38.324   5.993  17.039  0.00  0.00    +0.000 A 
ATOM     21  C   UNL     1      38.309   4.775  16.464  0.00  0.00    +0.000 A 
ATOM     22  C   UNL     1      37.867   4.579  15.139  0.00  0.00    +0.000 A 
ATOM     23  C   UNL     1      37.447   5.689  14.457  0.00  0.00    +0.000 A 
ATOM     24  C   UNL     1      37.455   6.965  15.019  0.00  0.00    +0.000 A 
ATOM     25  C   UNL     1      37.876   7.154  16.276  0.00  0.00    +0.000 A 
ATOM     26  O   UNL     1      37.929   8.365  16.935  0.00  0.00    +0.000 OA
BRANCH  20  27
ATOM     27  C   UNL     1      38.863   6.474  18.325  0.00  0.00    +0.000 C 
BRANCH  27  28
ATOM     28  N   UNL     1      40.262   5.965  18.564  0.00  0.00    +0.000 NA
BRANCH  28  30
ATOM     29  C   UNL     1      39.516   7.484  20.383  0.00  0.00    +0.000 C 
ATOM     30  C   UNL     1      40.498   6.383  20.021  0.00  0.00    +0.000 C 
ENDBRANCH  28  30
BRANCH  28  31
ATOM     31  C   UNL     1      41.074   7.082  17.908  0.00  0.00    +0.000 C 
ATOM     32  C   UNL     1      42.087   6.454  16.983  0.00  0.00    +0.000 C 
ENDBRANCH  28  31
ENDBRANCH  27  28
ENDBRANCH  20  27
ENDBRANCH  19  22
ENDBRANCH   1  19
TORSDOF 6
ENDMDL
MODEL 5
REMARK VINA RESULT:      -7.6     27.949     31.737
REMARK  Name = 
REMARK  6 active torsions:
REMARK  status: ('A' for Active; 'I' for Inactive)
REMARK    1  A    between atoms: C_2  and  N_3
REMARK    2  A    between atoms: N_3  and  C_4
REMARK    3  A    between atoms: N_3  and  C_6
REMARK    4  A    between atoms: C_6  and  C_7
REMARK    5  A    between atoms: C_9  and  N_10
REMARK    6  A    between atoms: N_10  and  C_11
REMARK                            x       y       z     vdW  Elec       q    Type
REMARK                         _______ _______ _______ _____ _____    ______ ____
ROOT
ATOM      1  C   UNL     1      25.088  17.752  35.320  0.00  0.00    +0.000 A 
ATOM      2  C   UNL     1      25.272  16.640  34.463  0.00  0.00    +0.000 A 
ATOM      3  C   UNL     1      25.837  15.495  34.957  0.00  0.00    +0.000 A 
ATOM      4  C   UNL     1      26.034  14.381  34.126  0.00  0.00    +0.000 A 
ATOM      5  C   UNL     1      25.659  14.439  32.816  0.00  0.00    +0.000 A 
ATOM      6  C   UNL     1      25.088  15.579  32.300  0.00  0.00    +0.000 A 
ATOM      7  C   UNL     1      24.911  16.646  33.136  0.00  0.00    +0.000 A 
ATOM      8  N   UNL     1      24.353  17.750  32.610  0.00  0.00    +0.000 NA
ATOM      9  C   UNL     1      24.143  18.827  33.334  0.00  0.00    +0.000 A 
ATOM     10  C   UNL     1      23.576  20.038  32.981  0.00  0.00    +0.000 A 
ATOM     11  C   UNL     1      23.006  20.598  31.858  0.00  0.00    +0.000 A 
ATOM     12  C   UNL     1      22.486  21.840  31.895  0.00  0.00    +0.000 A 
ATOM     13  C   UNL     1      22.489  22.643  33.026  0.00  0.00    +0.000 A 
ATOM     14  C   UNL     1      23.059  22.074  34.132  0.00  0.00    +0.000 A 
ATOM     15  C   UNL     1      23.592  20.791  34.106  0.00  0.00    +0.000 A 
ATOM     16  N   UNL     1      24.140  20.059  35.090  0.00  0.00    +0.000 N 
ATOM     17  C   UNL     1      24.323  20.636  36.420  0.00  0.00    +0.000 C 
ATOM     18  C   UNL     1      24.504  18.857  34.703  0.00  0.00    +0.000 A 
ENDROOT
BRANCH   1  19
ATOM     19  N   UNL     1      25.483  17.665  36.596  0.00  0.00    +0.000 NA
BRANCH  19  22
ATOM     20  C   UNL     1      25.804  15.870  39.768  0.00  0.00    +0.000 A 
ATOM     21  C   UNL     1      26.038  16.270  38.504  0.00  0.00    +0.000 A 
ATOM     22  C   UNL     1      25.182  17.167  37.832  0.00  0.00    +0.000 A 
ATOM     23  C   UNL     1      24.090  17.615  38.525  0.00  0.00    +0.000 A 
ATOM     24  C   UNL     1      23.820  17.226  39.836  0.00  0.00    +0.000 A 
ATOM     25  C   UNL     1      24.632  16.376  40.476  0.00  0.00    +0.000 A 
ATOM     26  O   UNL     1      24.468  15.922  41.770  0.00  0.00    +0.000 OA
BRANCH  20  27
ATOM     27  C   UNL     1      26.603  15.075  40.720  0.00  0.00    +0.000 C 
BRANCH  27  28
ATOM     28  N   UNL     1      27.028  13.758  40.121  0.00  0.00    +0.000 NA
BRANCH  28  30
ATOM     29  C   UNL     1      26.963  11.409  40.925  0.00  0.00    +0.000 C 
ATOM     30  C   UNL     1      26.268  12.758  41.001  0.00  0.00    +0.000 C 
ENDBRANCH  28  30
BRANCH  28  31
ATOM     31  C   UNL     1      28.399  13.591  40.777  0.00  0.00    +0.000 C 
ATOM     32  C   UNL     1      29.454  14.050  39.801  0.00  0.00    +0.000 C 
ENDBRANCH  28  31
ENDBRANCH  27  28
ENDBRANCH  20  27
ENDBRANCH  19  22
ENDBRANCH   1  19
TORSDOF 6
ENDMDL
MODEL 6
REMARK VINA RESULT:      -7.5     28.273     32.602
REMARK  Name = 
REMARK  6 active torsions:
REMARK  status: ('A' for Active; 'I' for Inactive)
REMARK    1  A    between atoms: C_2  and  N_3
REMARK    2  A    between atoms: N_3  and  C_4
REMARK    3  A    between atoms: N_3  and  C_6
REMARK    4  A    between atoms: C_6  and  C_7
REMARK    5  A    between atoms: C_9  and  N_10
REMARK    6  A    between atoms: N_10  and  C_11
REMARK                            x       y       z     vdW  Elec       q    Type
REMARK                         _______ _______ _______ _____ _____    ______ ____
ROOT
ATOM      1  C   UNL     1      25.199  17.575  35.415  0.00  0.00    +0.000 A 
ATOM      2  C   UNL     1      25.285  16.535  34.458  0.00  0.00    +0.000 A 
ATOM      3  C   UNL     1      25.817  15.326  34.820  0.00  0.00    +0.000 A 
ATOM      4  C   UNL     1      25.917  14.283  33.888  0.00  0.00    +0.000 A 
ATOM      5  C   UNL     1      25.483  14.474  32.609  0.00  0.00    +0.000 A 
ATOM      6  C   UNL     1      24.945  15.679  32.224  0.00  0.00    +0.000 A 
ATOM      7  C   UNL     1      24.861  16.675  33.157  0.00  0.00    +0.000 A 
ATOM      8  N   UNL     1      24.335  17.845  32.758  0.00  0.00    +0.000 NA
ATOM      9  C   UNL     1      24.214  18.863  33.583  0.00  0.00    +0.000 A 
ATOM     10  C   UNL     1      23.692  20.125  33.365  0.00  0.00    +0.000 A 
ATOM     11  C   UNL     1      23.097  20.807  32.326  0.00  0.00    +0.000 A 
ATOM     12  C   UNL     1      22.642  22.064  32.498  0.00  0.00    +0.000 A 
ATOM     13  C   UNL     1      22.739  22.762  33.692  0.00  0.00    +0.000 A 
ATOM     14  C   UNL     1      23.333  22.072  34.714  0.00  0.00    +0.000 A 
ATOM     15  C   UNL     1      23.799  20.774  34.549  0.00  0.00    +0.000 A 
ATOM     16  N   UNL     1      24.358  19.933  35.435  0.00  0.00    +0.000 N 
ATOM     17  C   UNL     1      24.633  20.381  36.799  0.00  0.00    +0.000 C 
ATOM     18  C   UNL     1      24.642  18.755  34.928  0.00  0.00    +0.000 A 
ENDROOT
BRANCH   1  19
ATOM     19  N   UNL     1      25.651  17.357  36.657  0.00  0.00    +0.000 NA
BRANCH  19  22
ATOM     20  C   UNL     1      24.091  15.926  39.642  0.00  0.00    +0.000 A 
ATOM     21  C   UNL     1      24.312  16.727  38.582  0.00  0.00    +0.000 A 
ATOM     22  C   UNL     1      25.482  16.628  37.800  0.00  0.00    +0.000 A 
ATOM     23  C   UNL     1      26.393  15.676  38.170  0.00  0.00    +0.000 A 
ATOM     24  C   UNL     1      26.195  14.827  39.257  0.00  0.00    +0.000 A 
ATOM     25  C   UNL     1      25.084  14.918  40.000  0.00  0.00    +0.000 A 
ATOM     26  O   UNL     1      24.779  14.134  41.094  0.00  0.00    +0.000 OA
BRANCH  20  27
ATOM     27  C   UNL     1      22.914  15.734  40.511  0.00  0.00    +0.000 C 
BRANCH  27  28
ATOM     28  N   UNL     1      22.412  17.046  41.059  0.00  0.00    +0.000 NA
BRANCH  28  30
ATOM     29  C   UNL     1      23.896  18.691  42.183  0.00  0.00    +0.000 C 
ATOM     30  C   UNL     1      23.361  17.270  42.243  0.00  0.00    +0.000 C 
ENDBRANCH  28  30
BRANCH  28  31
ATOM     31  C   UNL     1      21.207  16.560  41.865  0.00  0.00    +0.000 C 
ATOM     32  C   UNL     1      21.689  15.558  42.885  0.00  0.00    +0.000 C 
ENDBRANCH  28  31
ENDBRANCH  27  28
ENDBRANCH  20  27
ENDBRANCH  19  22
ENDBRANCH   1  19
TORSDOF 6
ENDMDL
MODEL 7
REMARK VINA RESULT:      -7.4      4.544      7.293
REMARK  Name = 
REMARK  6 active torsions:
REMARK  status: ('A' for Active; 'I' for Inactive)
REMARK    1  A    between atoms: C_2  and  N_3
REMARK    2  A    between atoms: N_3  and  C_4
REMARK    3  A    between atoms: N_3  and  C_6
REMARK    4  A    between atoms: C_6  and  C_7
REMARK    5  A    between atoms: C_9  and  N_10
REMARK    6  A    between atoms: N_10  and  C_11
REMARK                            x       y       z     vdW  Elec       q    Type
REMARK                         _______ _______ _______ _____ _____    ______ ____
ROOT
ATOM      1  C   UNL     1      38.136   4.140  15.260  0.00  0.00    +0.000 A 
ATOM      2  C   UNL     1      38.829   4.776  16.318  0.00  0.00    +0.000 A 
ATOM      3  C   UNL     1      38.329   4.705  17.591  0.00  0.00    +0.000 A 
ATOM      4  C   UNL     1      38.996   5.331  18.655  0.00  0.00    +0.000 A 
ATOM      5  C   UNL     1      40.150   6.017  18.420  0.00  0.00    +0.000 A 
ATOM      6  C   UNL     1      40.671   6.100  17.150  0.00  0.00    +0.000 A 
ATOM      7  C   UNL     1      39.997   5.479  16.135  0.00  0.00    +0.000 A 
ATOM      8  N   UNL     1      40.522   5.575  14.902  0.00  0.00    +0.000 NA
ATOM      9  C   UNL     1      39.946   5.012  13.863  0.00  0.00    +0.000 A 
ATOM     10  C   UNL     1      40.336   4.989  12.536  0.00  0.00    +0.000 A 
ATOM     11  C   UNL     1      41.394   5.453  11.785  0.00  0.00    +0.000 A 
ATOM     12  C   UNL     1      41.475   5.184  10.467  0.00  0.00    +0.000 A 
ATOM     13  C   UNL     1      40.526   4.450   9.771  0.00  0.00    +0.000 A 
ATOM     14  C   UNL     1      39.481   3.997  10.530  0.00  0.00    +0.000 A 
ATOM     15  C   UNL     1      39.392   4.263  11.890  0.00  0.00    +0.000 A 
ATOM     16  N   UNL     1      38.481   3.868  12.794  0.00  0.00    +0.000 N 
ATOM     17  C   UNL     1      37.315   3.094  12.372  0.00  0.00    +0.000 C 
ATOM     18  C   UNL     1      38.742   4.283  14.013  0.00  0.00    +0.000 A 
ENDROOT
BRANCH   1  19
ATOM     19  N   UNL     1      36.996   3.489  15.525  0.00  0.00    +0.000 NA
BRANCH  19  22
ATOM     20  C   UNL     1      36.642  -0.116  16.047  0.00  0.00    +0.000 A 
ATOM     21  C   UNL     1      37.141   1.068  15.642  0.00  0.00    +0.000 A 
ATOM     22  C   UNL     1      36.440   2.278  15.825  0.00  0.00    +0.000 A 
ATOM     23  C   UNL     1      35.217   2.197  16.436  0.00  0.00    +0.000 A 
ATOM     24  C   UNL     1      34.673   0.990  16.873  0.00  0.00    +0.000 A 
ATOM     25  C   UNL     1      35.338  -0.159  16.701  0.00  0.00    +0.000 A 
ATOM     26  O   UNL     1      34.902  -1.410  17.091  0.00  0.00    +0.000 OA
BRANCH  20  27
ATOM     27  C   UNL     1      37.225  -1.469  16.103  0.00  0.00    +0.000 C 
BRANCH  27  28
ATOM     28  N   UNL     1      38.520  -1.482  16.875  0.00  0.00    +0.000 NA
BRANCH  28  30
ATOM     29  C   UNL     1      40.095  -1.544  14.955  0.00  0.00    +0.000 C 
ATOM     30  C   UNL     1      39.393  -2.393  16.002  0.00  0.00    +0.000 C 
ENDBRANCH  28  30
BRANCH  28  31
ATOM     31  C   UNL     1      38.183  -2.514  17.953  0.00  0.00    +0.000 C 
ATOM     32  C   UNL     1      37.760  -1.778  19.201  0.00  0.00    +0.000 C 
ENDBRANCH  28  31
ENDBRANCH  27  28
ENDBRANCH  20  27
ENDBRANCH  19  22
ENDBRANCH   1  19
TORSDOF 6
ENDMDL
MODEL 8
REMARK VINA RESULT:      -7.4      1.569      4.639
REMARK  Name = 
REMARK  6 active torsions:
REMARK  status: ('A' for Active; 'I' for Inactive)
REMARK    1  A    between atoms: C_2  and  N_3
REMARK    2  A    between atoms: N_3  and  C_4
REMARK    3  A    between atoms: N_3  and  C_6
REMARK    4  A    between atoms: C_6  and  C_7
REMARK    5  A    between atoms: C_9  and  N_10
REMARK    6  A    between atoms: N_10  and  C_11
REMARK                            x       y       z     vdW  Elec       q    Type
REMARK                         _______ _______ _______ _____ _____    ______ ____
ROOT
ATOM      1  C   UNL     1      37.361  -0.475  15.113  0.00  0.00    +0.000 A 
ATOM      2  C   UNL     1      36.482   0.621  15.288  0.00  0.00    +0.000 A 
ATOM      3  C   UNL     1      36.141   1.391  14.208  0.00  0.00    +0.000 A 
ATOM      4  C   UNL     1      35.275   2.485  14.356  0.00  0.00    +0.000 A 
ATOM      5  C   UNL     1      34.770   2.786  15.587  0.00  0.00    +0.000 A 
ATOM      6  C   UNL     1      35.099   2.026  16.685  0.00  0.00    +0.000 A 
ATOM      7  C   UNL     1      35.944   0.967  16.506  0.00  0.00    +0.000 A 
ATOM      8  N   UNL     1      36.254   0.239  17.592  0.00  0.00    +0.000 NA
ATOM      9  C   UNL     1      37.060  -0.797  17.520  0.00  0.00    +0.000 A 
ATOM     10  C   UNL     1      37.480  -1.665  18.512  0.00  0.00    +0.000 A 
ATOM     11  C   UNL     1      37.252  -1.849  19.858  0.00  0.00    +0.000 A 
ATOM     12  C   UNL     1      37.815  -2.879  20.519  0.00  0.00    +0.000 A 
ATOM     13  C   UNL     1      38.656  -3.809  19.924  0.00  0.00    +0.000 A 
ATOM     14  C   UNL     1      38.874  -3.612  18.587  0.00  0.00    +0.000 A 
ATOM     15  C   UNL     1      38.292  -2.557  17.896  0.00  0.00    +0.000 A 
ATOM     16  N   UNL     1      38.350  -2.237  16.593  0.00  0.00    +0.000 N 
ATOM     17  C   UNL     1      39.192  -3.011  15.683  0.00  0.00    +0.000 C 
ATOM     18  C   UNL     1      37.633  -1.180  16.284  0.00  0.00    +0.000 A 
ENDROOT
BRANCH   1  19
ATOM     19  N   UNL     1      37.851  -0.731  13.894  0.00  0.00    +0.000 NA
BRANCH  19  22
ATOM     20  C   UNL     1      41.266  -0.569  12.589  0.00  0.00    +0.000 A 
ATOM     21  C   UNL     1      40.238  -0.654  13.455  0.00  0.00    +0.000 A 
ATOM     22  C   UNL     1      38.896  -0.524  13.039  0.00  0.00    +0.000 A 
ATOM     23  C   UNL     1      38.682  -0.302  11.705  0.00  0.00    +0.000 A 
ATOM     24  C   UNL     1      39.722  -0.214  10.781  0.00  0.00    +0.000 A 
ATOM     25  C   UNL     1      40.996  -0.338  11.174  0.00  0.00    +0.000 A 
ATOM     26  O   UNL     1      42.104  -0.270  10.353  0.00  0.00    +0.000 OA
BRANCH  20  27
ATOM     27  C   UNL     1      42.713  -0.809  12.744  0.00  0.00    +0.000 C 
BRANCH  27  28
ATOM     28  N   UNL     1      42.986  -1.956  13.684  0.00  0.00    +0.000 NA
BRANCH  28  30
ATOM     29  C   UNL     1      44.272  -0.238  14.936  0.00  0.00    +0.000 C 
ATOM     30  C   UNL     1      44.369  -1.582  14.234  0.00  0.00    +0.000 C 
ENDBRANCH  28  30
BRANCH  28  31
ATOM     31  C   UNL     1      43.456  -3.017  12.688  0.00  0.00    +0.000 C 
ATOM     32  C   UNL     1      44.798  -2.598  12.141  0.00  0.00    +0.000 C 
ENDBRANCH  28  31
ENDBRANCH  27  28
ENDBRANCH  20  27
ENDBRANCH  19  22
ENDBRANCH   1  19
TORSDOF 6
ENDMDL
MODEL 9
REMARK VINA RESULT:      -7.4      4.849      8.303
REMARK  Name = 
REMARK  6 active torsions:
REMARK  status: ('A' for Active; 'I' for Inactive)
REMARK    1  A    between atoms: C_2  and  N_3
REMARK    2  A    between atoms: N_3  and  C_4
REMARK    3  A    between atoms: N_3  and  C_6
REMARK    4  A    between atoms: C_6  and  C_7
REMARK    5  A    between atoms: C_9  and  N_10
REMARK    6  A    between atoms: N_10  and  C_11
REMARK                            x       y       z     vdW  Elec       q    Type
REMARK                         _______ _______ _______ _____ _____    ______ ____
ROOT
ATOM      1  C   UNL     1      37.204   5.170  15.123  0.00  0.00    +0.000 A 
ATOM      2  C   UNL     1      36.735   5.986  14.065  0.00  0.00    +0.000 A 
ATOM      3  C   UNL     1      36.196   5.401  12.950  0.00  0.00    +0.000 A 
ATOM      4  C   UNL     1      35.728   6.189  11.887  0.00  0.00    +0.000 A 
ATOM      5  C   UNL     1      35.812   7.547  11.963  0.00  0.00    +0.000 A 
ATOM      6  C   UNL     1      36.348   8.156  13.074  0.00  0.00    +0.000 A 
ATOM      7  C   UNL     1      36.794   7.360  14.092  0.00  0.00    +0.000 A 
ATOM      8  N   UNL     1      37.317   7.975  15.167  0.00  0.00    +0.000 NA
ATOM      9  C   UNL     1      37.773   7.295  16.195  0.00  0.00    +0.000 A 
ATOM     10  C   UNL     1      38.326   7.744  17.381  0.00  0.00    +0.000 A 
ATOM     11  C   UNL     1      38.591   8.957  17.978  0.00  0.00    +0.000 A 
ATOM     12  C   UNL     1      39.110   9.016  19.220  0.00  0.00    +0.000 A 
ATOM     13  C   UNL     1      39.424   7.897  19.978  0.00  0.00    +0.000 A 
ATOM     14  C   UNL     1      39.157   6.700  19.371  0.00  0.00    +0.000 A 
ATOM     15  C   UNL     1      38.616   6.629  18.094  0.00  0.00    +0.000 A 
ATOM     16  N   UNL     1      38.246   5.562  17.366  0.00  0.00    +0.000 N 
ATOM     17  C   UNL     1      38.478   4.211  17.873  0.00  0.00    +0.000 C 
ATOM     18  C   UNL     1      37.730   5.880  16.201  0.00  0.00    +0.000 A 
ENDROOT
BRANCH   1  19
ATOM     19  N   UNL     1      37.121   3.840  15.006  0.00  0.00    +0.000 NA
BRANCH  19  22
ATOM     20  C   UNL     1      36.565   0.347  15.947  0.00  0.00    +0.000 A 
ATOM     21  C   UNL     1      37.119   1.442  15.392  0.00  0.00    +0.000 A 
ATOM     22  C   UNL     1      36.504   2.710  15.463  0.00  0.00    +0.000 A 
ATOM     23  C   UNL     1      35.307   2.779  16.124  0.00  0.00    +0.000 A 
ATOM     24  C   UNL     1      34.708   1.667  16.715  0.00  0.00    +0.000 A 
ATOM     25  C   UNL     1      35.291   0.464  16.650  0.00  0.00    +0.000 A 
ATOM     26  O   UNL     1      34.796  -0.703  17.195  0.00  0.00    +0.000 OA
BRANCH  20  27
ATOM     27  C   UNL     1      37.064  -1.028  16.134  0.00  0.00    +0.000 C 
BRANCH  27  28
ATOM     28  N   UNL     1      38.500  -1.038  16.592  0.00  0.00    +0.000 NA
BRANCH  28  30
ATOM     29  C   UNL     1      40.128  -0.816  14.728  0.00  0.00    +0.000 C 
ATOM     30  C   UNL     1      39.189  -1.777  15.437  0.00  0.00    +0.000 C 
ENDBRANCH  28  30
BRANCH  28  31
ATOM     31  C   UNL     1      38.464  -2.208  17.576  0.00  0.00    +0.000 C 
ATOM     32  C   UNL     1      37.776  -1.749  18.837  0.00  0.00    +0.000 C 
ENDBRANCH  28  31
ENDBRANCH  27  28
ENDBRANCH  20  27
ENDBRANCH  19  22
ENDBRANCH   1  19
TORSDOF 6
ENDMDL
MODEL 10
REMARK VINA RESULT:      -7.2      4.410      6.382
REMARK  Name = 
REMARK  6 active torsions:
REMARK  status: ('A' for Active; 'I' for Inactive)
REMARK    1  A    between atoms: C_2  and  N_3
REMARK    2  A    between atoms: N_3  and  C_4
REMARK    3  A    between atoms: N_3  and  C_6
REMARK    4  A    between atoms: C_6  and  C_7
REMARK    5  A    between atoms: C_9  and  N_10
REMARK    6  A    between atoms: N_10  and  C_11
REMARK                            x       y       z     vdW  Elec       q    Type
REMARK                         _______ _______ _______ _____ _____    ______ ____
ROOT
ATOM      1  C   UNL     1      39.381   0.911  14.263  0.00  0.00    +0.000 A 
ATOM      2  C   UNL     1      40.487   0.027  14.227  0.00  0.00    +0.000 A 
ATOM      3  C   UNL     1      41.637   0.410  13.591  0.00  0.00    +0.000 A 
ATOM      4  C   UNL     1      42.744  -0.451  13.539  0.00  0.00    +0.000 A 
ATOM      5  C   UNL     1      42.673  -1.680  14.124  0.00  0.00    +0.000 A 
ATOM      6  C   UNL     1      41.528  -2.085  14.769  0.00  0.00    +0.000 A 
ATOM      7  C   UNL     1      40.468  -1.223  14.803  0.00  0.00    +0.000 A 
ATOM      8  N   UNL     1      39.359  -1.640  15.436  0.00  0.00    +0.000 NA
ATOM      9  C   UNL     1      38.288  -0.882  15.519  0.00  0.00    +0.000 A 
ATOM     10  C   UNL     1      37.072  -1.127  16.133  0.00  0.00    +0.000 A 
ATOM     11  C   UNL     1      36.501  -2.135  16.879  0.00  0.00    +0.000 A 
ATOM     12  C   UNL     1      35.259  -2.002  17.382  0.00  0.00    +0.000 A 
ATOM     13  C   UNL     1      34.465  -0.880  17.190  0.00  0.00    +0.000 A 
ATOM     14  C   UNL     1      35.046   0.112  16.446  0.00  0.00    +0.000 A 
ATOM     15  C   UNL     1      36.329  -0.013  15.929  0.00  0.00    +0.000 A 
ATOM     16  N   UNL     1      37.071   0.860  15.228  0.00  0.00    +0.000 N 
ATOM     17  C   UNL     1      36.506   2.147  14.826  0.00  0.00    +0.000 C 
ATOM     18  C   UNL     1      38.270   0.409  14.937  0.00  0.00    +0.000 A 
ENDROOT
BRANCH   1  19
ATOM     19  N   UNL     1      39.480   2.103  13.663  0.00  0.00    +0.000 NA
BRANCH  19  22
ATOM     20  C   UNL     1      40.074   5.434  15.059  0.00  0.00    +0.000 A 
ATOM     21  C   UNL     1      39.544   4.210  14.869  0.00  0.00    +0.000 A 
ATOM     22  C   UNL     1      39.927   3.388  13.788  0.00  0.00    +0.000 A 
ATOM     23  C   UNL     1      40.867   3.894  12.931  0.00  0.00    +0.000 A 
ATOM     24  C   UNL     1      41.440   5.153  13.100  0.00  0.00    +0.000 A 
ATOM     25  C   UNL     1      41.079   5.934  14.126  0.00  0.00    +0.000 A 
ATOM     26  O   UNL     1      41.576   7.193  14.396  0.00  0.00    +0.000 OA
BRANCH  20  27
ATOM     27  C   UNL     1      39.954   6.404  16.163  0.00  0.00    +0.000 C 
BRANCH  27  28
ATOM     28  N   UNL     1      40.256   5.765  17.495  0.00  0.00    +0.000 NA
BRANCH  28  30
ATOM     29  C   UNL     1      39.467   6.597  19.699  0.00  0.00    +0.000 C 
ATOM     30  C   UNL     1      39.020   6.159  18.315  0.00  0.00    +0.000 C 
ENDBRANCH  28  30
BRANCH  28  31
ATOM     31  C   UNL     1      41.215   6.802  18.082  0.00  0.00    +0.000 C 
ATOM     32  C   UNL     1      42.604   6.510  17.570  0.00  0.00    +0.000 C 
ENDBRANCH  28  31
ENDBRANCH  27  28
ENDBRANCH  20  27
ENDBRANCH  19  22
ENDBRANCH   1  19
TORSDOF 6
ENDMDL
