MODEL 1
REMARK VINA RESULT:      -6.4      0.000      0.000
REMARK  Name = 
REMARK  3 active torsions:
REMARK  status: ('A' for Active; 'I' for Inactive)
REMARK    1  A    between atoms: N_6  and  N_7
REMARK    2  A    between atoms: C_8  and  C_9
REMARK    3  A    between atoms: C_18  and  C_19
REMARK                            x       y       z     vdW  Elec       q    Type
REMARK                         _______ _______ _______ _____ _____    ______ ____
ROOT
ATOM      1  C   UNL     1      17.061  -9.476  28.277  0.00  0.00    +0.000 C 
ATOM      2  C   UNL     1      18.337  -9.086  27.591  0.00  0.00    +0.000 A 
ATOM      3  C   UNL     1      19.467  -9.851  27.786  0.00  0.00    +0.000 A 
ATOM      4  C   UNL     1      20.632  -9.484  27.152  0.00  0.00    +0.000 A 
ATOM      5  C   UNL     1      21.820 -10.368  27.416  0.00  0.00    +0.000 C 
ATOM      6  N   UNL     1      20.708  -8.417  26.357  0.00  0.00    +0.000 N 
ATOM      7  C   UNL     1      19.621  -7.669  26.160  0.00  0.00    +0.000 A 
ATOM      8  O   UNL     1      19.641  -6.632  25.406  0.00  0.00    +0.000 OA
ATOM      9  C   UNL     1      18.421  -7.990  26.772  0.00  0.00    +0.000 A 
ENDROOT
BRANCH   9  10
ATOM     10  C   UNL     1      17.238  -7.164  26.550  0.00  0.00    +0.000 C 
ATOM     11  N   UNL     1      16.295  -7.507  25.551  0.00  0.00    +0.000 NA
ATOM     12  O   UNL     1      17.067  -6.129  27.270  0.00  0.00    +0.000 OA
ENDBRANCH   9  10
BRANCH   6  13
ATOM     13  N   UNL     1      21.912  -8.099  25.746  0.00  0.00    +0.000 NA
ATOM     14  C   UNL     1      22.298  -8.559  24.607  0.00  0.00    +0.000 C 
BRANCH  14  15
ATOM     15  C   UNL     1      23.585  -8.156  24.058  0.00  0.00    +0.000 A 
ATOM     16  C   UNL     1      24.009  -6.846  24.048  0.00  0.00    +0.000 A 
ATOM     17  C   UNL     1      25.235  -6.495  23.520  0.00  0.00    +0.000 A 
ATOM     18  C   UNL     1      26.088  -7.436  22.980  0.00  0.00    +0.000 A 
ATOM     19  F   UNL     1      27.301  -7.083  22.459  0.00  0.00    +0.000 F 
ATOM     20  C   UNL     1      25.660  -8.748  22.992  0.00  0.00    +0.000 A 
ATOM     21  C   UNL     1      24.430  -9.103  23.521  0.00  0.00    +0.000 A 
ENDBRANCH  14  15
ENDBRANCH   6  13
TORSDOF 3
ENDMDL
MODEL 2
REMARK VINA RESULT:      -6.3     21.167     22.283
REMARK  Name = 
REMARK  3 active torsions:
REMARK  status: ('A' for Active; 'I' for Inactive)
REMARK    1  A    between atoms: N_6  and  N_7
REMARK    2  A    between atoms: C_8  and  C_9
REMARK    3  A    between atoms: C_18  and  C_19
REMARK                            x       y       z     vdW  Elec       q    Type
REMARK                         _______ _______ _______ _____ _____    ______ ____
ROOT
ATOM      1  C   UNL     1      13.371  11.688  37.408  0.00  0.00    +0.000 C 
ATOM      2  C   UNL     1      14.797  11.221  37.399  0.00  0.00    +0.000 A 
ATOM      3  C   UNL     1      15.332  10.669  38.543  0.00  0.00    +0.000 A 
ATOM      4  C   UNL     1      16.641  10.245  38.523  0.00  0.00    +0.000 A 
ATOM      5  C   UNL     1      17.151   9.655  39.810  0.00  0.00    +0.000 C 
ATOM      6  N   UNL     1      17.410  10.347  37.439  0.00  0.00    +0.000 N 
ATOM      7  C   UNL     1      16.904  10.880  36.326  0.00  0.00    +0.000 A 
ATOM      8  O   UNL     1      17.601  11.002  35.257  0.00  0.00    +0.000 OA
ATOM      9  C   UNL     1      15.593  11.324  36.287  0.00  0.00    +0.000 A 
ENDROOT
BRANCH   9  10
ATOM     10  C   UNL     1      15.049  11.905  35.063  0.00  0.00    +0.000 C 
ATOM     11  N   UNL     1      14.749  13.287  34.993  0.00  0.00    +0.000 NA
ATOM     12  O   UNL     1      14.849  11.149  34.059  0.00  0.00    +0.000 OA
ENDBRANCH   9  10
BRANCH   6  13
ATOM     13  N   UNL     1      18.723   9.901  37.482  0.00  0.00    +0.000 NA
ATOM     14  C   UNL     1      19.743  10.652  37.714  0.00  0.00    +0.000 C 
BRANCH  14  15
ATOM     15  C   UNL     1      21.080  10.075  37.737  0.00  0.00    +0.000 A 
ATOM     16  C   UNL     1      21.710   9.711  38.906  0.00  0.00    +0.000 A 
ATOM     17  C   UNL     1      22.979   9.166  38.894  0.00  0.00    +0.000 A 
ATOM     18  C   UNL     1      23.670   8.964  37.717  0.00  0.00    +0.000 A 
ATOM     19  F   UNL     1      24.926   8.425  37.711  0.00  0.00    +0.000 F 
ATOM     20  C   UNL     1      23.036   9.331  36.548  0.00  0.00    +0.000 A 
ATOM     21  C   UNL     1      21.763   9.877  36.556  0.00  0.00    +0.000 A 
ENDBRANCH  14  15
ENDBRANCH   6  13
TORSDOF 3
ENDMDL
MODEL 3
REMARK VINA RESULT:      -5.9     31.906     32.438
REMARK  Name = 
REMARK  3 active torsions:
REMARK  status: ('A' for Active; 'I' for Inactive)
REMARK    1  A    between atoms: N_6  and  N_7
REMARK    2  A    between atoms: C_8  and  C_9
REMARK    3  A    between atoms: C_18  and  C_19
REMARK                            x       y       z     vdW  Elec       q    Type
REMARK                         _______ _______ _______ _____ _____    ______ ____
ROOT
ATOM      1  C   UNL     1      24.197  25.286  26.959  0.00  0.00    +0.000 C 
ATOM      2  C   UNL     1      25.402  24.589  27.518  0.00  0.00    +0.000 A 
ATOM      3  C   UNL     1      25.635  24.630  28.875  0.00  0.00    +0.000 A 
ATOM      4  C   UNL     1      26.745  23.988  29.376  0.00  0.00    +0.000 A 
ATOM      5  C   UNL     1      26.929  24.078  30.866  0.00  0.00    +0.000 C 
ATOM      6  N   UNL     1      27.601  23.327  28.597  0.00  0.00    +0.000 N 
ATOM      7  C   UNL     1      27.387  23.281  27.281  0.00  0.00    +0.000 A 
ATOM      8  O   UNL     1      28.180  22.660  26.488  0.00  0.00    +0.000 OA
ATOM      9  C   UNL     1      26.287  23.909  26.721  0.00  0.00    +0.000 A 
ENDROOT
BRANCH   9  10
ATOM     10  C   UNL     1      26.062  23.852  25.280  0.00  0.00    +0.000 C 
ATOM     11  N   UNL     1      26.563  24.867  24.430  0.00  0.00    +0.000 NA
ATOM     12  O   UNL     1      25.407  22.872  24.798  0.00  0.00    +0.000 OA
ENDBRANCH   9  10
BRANCH   6  13
ATOM     13  N   UNL     1      28.702  22.699  29.161  0.00  0.00    +0.000 NA
ATOM     14  C   UNL     1      29.874  23.223  29.255  0.00  0.00    +0.000 C 
BRANCH  14  15
ATOM     15  C   UNL     1      30.960  22.472  29.869  0.00  0.00    +0.000 A 
ATOM     16  C   UNL     1      32.118  22.157  29.194  0.00  0.00    +0.000 A 
ATOM     17  C   UNL     1      33.130  21.443  29.804  0.00  0.00    +0.000 A 
ATOM     18  C   UNL     1      33.027  21.013  31.111  0.00  0.00    +0.000 A 
ATOM     19  F   UNL     1      34.032  20.306  31.710  0.00  0.00    +0.000 F 
ATOM     20  C   UNL     1      31.866  21.330  31.784  0.00  0.00    +0.000 A 
ATOM     21  C   UNL     1      30.849  22.047  31.175  0.00  0.00    +0.000 A 
ENDBRANCH  14  15
ENDBRANCH   6  13
TORSDOF 3
ENDMDL
MODEL 4
REMARK VINA RESULT:      -5.8     31.922     32.565
REMARK  Name = 
REMARK  3 active torsions:
REMARK  status: ('A' for Active; 'I' for Inactive)
REMARK    1  A    between atoms: N_6  and  N_7
REMARK    2  A    between atoms: C_8  and  C_9
REMARK    3  A    between atoms: C_18  and  C_19
REMARK                            x       y       z     vdW  Elec       q    Type
REMARK                         _______ _______ _______ _____ _____    ______ ____
ROOT
ATOM      1  C   UNL     1      30.650  22.543  32.071  0.00  0.00    +0.000 C 
ATOM      2  C   UNL     1      30.092  22.581  30.679  0.00  0.00    +0.000 A 
ATOM      3  C   UNL     1      28.729  22.676  30.502  0.00  0.00    +0.000 A 
ATOM      4  C   UNL     1      28.229  22.708  29.220  0.00  0.00    +0.000 A 
ATOM      5  C   UNL     1      26.732  22.813  29.110  0.00  0.00    +0.000 C 
ATOM      6  N   UNL     1      29.014  22.652  28.144  0.00  0.00    +0.000 N 
ATOM      7  C   UNL     1      30.335  22.560  28.303  0.00  0.00    +0.000 A 
ATOM      8  O   UNL     1      31.134  22.502  27.302  0.00  0.00    +0.000 OA
ATOM      9  C   UNL     1      30.895  22.523  29.569  0.00  0.00    +0.000 A 
ENDROOT
BRANCH   9  10
ATOM     10  C   UNL     1      32.342  22.422  29.731  0.00  0.00    +0.000 C 
ATOM     11  N   UNL     1      33.141  23.587  29.827  0.00  0.00    +0.000 NA
ATOM     12  O   UNL     1      32.876  21.267  29.785  0.00  0.00    +0.000 OA
ENDBRANCH   9  10
BRANCH   6  13
ATOM     13  N   UNL     1      28.450  22.690  26.878  0.00  0.00    +0.000 NA
ATOM     14  C   UNL     1      28.305  23.758  26.173  0.00  0.00    +0.000 C 
BRANCH  14  15
ATOM     15  C   UNL     1      27.698  23.681  24.852  0.00  0.00    +0.000 A 
ATOM     16  C   UNL     1      28.406  23.920  23.696  0.00  0.00    +0.000 A 
ATOM     17  C   UNL     1      27.802  23.839  22.457  0.00  0.00    +0.000 A 
ATOM     18  C   UNL     1      26.467  23.517  22.322  0.00  0.00    +0.000 A 
ATOM     19  F   UNL     1      25.874  23.438  21.093  0.00  0.00    +0.000 F 
ATOM     20  C   UNL     1      25.760  23.279  23.482  0.00  0.00    +0.000 A 
ATOM     21  C   UNL     1      26.363  23.359  24.726  0.00  0.00    +0.000 A 
ENDBRANCH  14  15
ENDBRANCH   6  13
TORSDOF 3
ENDMDL
MODEL 5
REMARK VINA RESULT:      -5.8     21.370     22.892
REMARK  Name = 
REMARK  3 active torsions:
REMARK  status: ('A' for Active; 'I' for Inactive)
REMARK    1  A    between atoms: N_6  and  N_7
REMARK    2  A    between atoms: C_8  and  C_9
REMARK    3  A    between atoms: C_18  and  C_19
REMARK                            x       y       z     vdW  Elec       q    Type
REMARK                         _______ _______ _______ _____ _____    ______ ____
ROOT
ATOM      1  C   UNL     1      20.874   9.079  41.890  0.00  0.00    +0.000 C 
ATOM      2  C   UNL     1      20.152   9.528  40.654  0.00  0.00    +0.000 A 
ATOM      3  C   UNL     1      18.774   9.544  40.647  0.00  0.00    +0.000 A 
ATOM      4  C   UNL     1      18.122   9.957  39.508  0.00  0.00    +0.000 A 
ATOM      5  C   UNL     1      16.620   9.946  39.580  0.00  0.00    +0.000 C 
ATOM      6  N   UNL     1      18.774  10.344  38.412  0.00  0.00    +0.000 N 
ATOM      7  C   UNL     1      20.108  10.333  38.406  0.00  0.00    +0.000 A 
ATOM      8  O   UNL     1      20.783  10.695  37.377  0.00  0.00    +0.000 OA
ATOM      9  C   UNL     1      20.817   9.927  39.523  0.00  0.00    +0.000 A 
ENDROOT
BRANCH   9  10
ATOM     10  C   UNL     1      22.277   9.919  39.506  0.00  0.00    +0.000 C 
ATOM     11  N   UNL     1      22.987   8.781  39.053  0.00  0.00    +0.000 NA
ATOM     12  O   UNL     1      22.903  10.953  39.904  0.00  0.00    +0.000 OA
ENDBRANCH   9  10
BRANCH   6  13
ATOM     13  N   UNL     1      18.060  10.751  37.295  0.00  0.00    +0.000 NA
ATOM     14  C   UNL     1      17.749   9.986  36.307  0.00  0.00    +0.000 C 
BRANCH  14  15
ATOM     15  C   UNL     1      16.995  10.520  35.182  0.00  0.00    +0.000 A 
ATOM     16  C   UNL     1      17.288  10.203  33.875  0.00  0.00    +0.000 A 
ATOM     17  C   UNL     1      16.553  10.725  32.829  0.00  0.00    +0.000 A 
ATOM     18  C   UNL     1      15.497  11.586  33.046  0.00  0.00    +0.000 A 
ATOM     19  F   UNL     1      14.773  12.101  32.007  0.00  0.00    +0.000 F 
ATOM     20  C   UNL     1      15.205  11.902  34.356  0.00  0.00    +0.000 A 
ATOM     21  C   UNL     1      15.940  11.379  35.407  0.00  0.00    +0.000 A 
ENDBRANCH  14  15
ENDBRANCH   6  13
TORSDOF 3
ENDMDL
MODEL 6
REMARK VINA RESULT:      -5.8     31.860     32.596
REMARK  Name = 
REMARK  3 active torsions:
REMARK  status: ('A' for Active; 'I' for Inactive)
REMARK    1  A    between atoms: N_6  and  N_7
REMARK    2  A    between atoms: C_8  and  C_9
REMARK    3  A    between atoms: C_18  and  C_19
REMARK                            x       y       z     vdW  Elec       q    Type
REMARK                         _______ _______ _______ _____ _____    ______ ____
ROOT
ATOM      1  C   UNL     1      27.502  24.568  22.777  0.00  0.00    +0.000 C 
ATOM      2  C   UNL     1      28.321  24.006  23.901  0.00  0.00    +0.000 A 
ATOM      3  C   UNL     1      29.688  23.911  23.758  0.00  0.00    +0.000 A 
ATOM      4  C   UNL     1      30.429  23.393  24.795  0.00  0.00    +0.000 A 
ATOM      5  C   UNL     1      31.913  23.322  24.561  0.00  0.00    +0.000 C 
ATOM      6  N   UNL     1      29.873  22.980  25.934  0.00  0.00    +0.000 N 
ATOM      7  C   UNL     1      28.550  23.067  26.086  0.00  0.00    +0.000 A 
ATOM      8  O   UNL     1      27.966  22.683  27.161  0.00  0.00    +0.000 OA
ATOM      9  C   UNL     1      27.755  23.579  25.075  0.00  0.00    +0.000 A 
ENDROOT
BRANCH   9  10
ATOM     10  C   UNL     1      26.308  23.670  25.252  0.00  0.00    +0.000 C 
ATOM     11  N   UNL     1      25.719  24.835  25.798  0.00  0.00    +0.000 NA
ATOM     12  O   UNL     1      25.584  22.682  24.906  0.00  0.00    +0.000 OA
ENDBRANCH   9  10
BRANCH   6  13
ATOM     13  N   UNL     1      30.673  22.468  26.944  0.00  0.00    +0.000 NA
ATOM     14  C   UNL     1      31.065  23.132  27.975  0.00  0.00    +0.000 C 
BRANCH  14  15
ATOM     15  C   UNL     1      31.906  22.492  28.977  0.00  0.00    +0.000 A 
ATOM     16  C   UNL     1      33.281  22.557  28.942  0.00  0.00    +0.000 A 
ATOM     17  C   UNL     1      34.051  21.939  29.907  0.00  0.00    +0.000 A 
ATOM     18  C   UNL     1      33.481  21.230  30.945  0.00  0.00    +0.000 A 
ATOM     19  F   UNL     1      34.248  20.620  31.898  0.00  0.00    +0.000 F 
ATOM     20  C   UNL     1      32.103  21.166  30.976  0.00  0.00    +0.000 A 
ATOM     21  C   UNL     1      31.328  21.786  30.010  0.00  0.00    +0.000 A 
ENDBRANCH  14  15
ENDBRANCH   6  13
TORSDOF 3
ENDMDL
MODEL 7
REMARK VINA RESULT:      -5.7     32.215     33.570
REMARK  Name = 
REMARK  3 active torsions:
REMARK  status: ('A' for Active; 'I' for Inactive)
REMARK    1  A    between atoms: N_6  and  N_7
REMARK    2  A    between atoms: C_8  and  C_9
REMARK    3  A    between atoms: C_18  and  C_19
REMARK                            x       y       z     vdW  Elec       q    Type
REMARK                         _______ _______ _______ _____ _____    ______ ____
ROOT
ATOM      1  C   UNL     1      27.211  26.266  22.870  0.00  0.00    +0.000 C 
ATOM      2  C   UNL     1      28.052  25.524  23.866  0.00  0.00    +0.000 A 
ATOM      3  C   UNL     1      28.118  25.980  25.165  0.00  0.00    +0.000 A 
ATOM      4  C   UNL     1      28.893  25.292  26.070  0.00  0.00    +0.000 A 
ATOM      5  C   UNL     1      28.913  25.853  27.466  0.00  0.00    +0.000 C 
ATOM      6  N   UNL     1      29.582  24.201  25.737  0.00  0.00    +0.000 N 
ATOM      7  C   UNL     1      29.527  23.749  24.483  0.00  0.00    +0.000 A 
ATOM      8  O   UNL     1      30.171  22.704  24.112  0.00  0.00    +0.000 OA
ATOM      9  C   UNL     1      28.763  24.401  23.530  0.00  0.00    +0.000 A 
ENDROOT
BRANCH   9  10
ATOM     10  C   UNL     1      28.710  23.898  22.160  0.00  0.00    +0.000 C 
ATOM     11  N   UNL     1      29.674  24.302  21.206  0.00  0.00    +0.000 NA
ATOM     12  O   UNL     1      27.782  23.089  21.838  0.00  0.00    +0.000 OA
ENDBRANCH   9  10
BRANCH   6  13
ATOM     13  N   UNL     1      30.345  23.550  26.696  0.00  0.00    +0.000 NA
ATOM     14  C   UNL     1      31.478  23.973  27.139  0.00  0.00    +0.000 C 
BRANCH  14  15
ATOM     15  C   UNL     1      32.195  23.208  28.149  0.00  0.00    +0.000 A 
ATOM     16  C   UNL     1      31.640  22.122  28.789  0.00  0.00    +0.000 A 
ATOM     17  C   UNL     1      32.347  21.417  29.743  0.00  0.00    +0.000 A 
ATOM     18  C   UNL     1      33.634  21.766  30.097  0.00  0.00    +0.000 A 
ATOM     19  F   UNL     1      34.328  21.064  31.042  0.00  0.00    +0.000 F 
ATOM     20  C   UNL     1      34.186  22.854  29.454  0.00  0.00    +0.000 A 
ATOM     21  C   UNL     1      33.481  23.564  28.496  0.00  0.00    +0.000 A 
ENDBRANCH  14  15
ENDBRANCH   6  13
TORSDOF 3
ENDMDL
MODEL 8
REMARK VINA RESULT:      -5.6     31.782     32.568
REMARK  Name = 
REMARK  3 active torsions:
REMARK  status: ('A' for Active; 'I' for Inactive)
REMARK    1  A    between atoms: N_6  and  N_7
REMARK    2  A    between atoms: C_8  and  C_9
REMARK    3  A    between atoms: C_18  and  C_19
REMARK                            x       y       z     vdW  Elec       q    Type
REMARK                         _______ _______ _______ _____ _____    ______ ____
ROOT
ATOM      1  C   UNL     1      26.362  23.223  27.576  0.00  0.00    +0.000 C 
ATOM      2  C   UNL     1      27.685  23.110  28.275  0.00  0.00    +0.000 A 
ATOM      3  C   UNL     1      28.846  23.198  27.538  0.00  0.00    +0.000 A 
ATOM      4  C   UNL     1      30.054  23.093  28.189  0.00  0.00    +0.000 A 
ATOM      5  C   UNL     1      31.273  23.198  27.315  0.00  0.00    +0.000 C 
ATOM      6  N   UNL     1      30.142  22.911  29.507  0.00  0.00    +0.000 N 
ATOM      7  C   UNL     1      29.025  22.824  30.231  0.00  0.00    +0.000 A 
ATOM      8  O   UNL     1      29.055  22.649  31.501  0.00  0.00    +0.000 OA
ATOM      9  C   UNL     1      27.782  22.923  29.629  0.00  0.00    +0.000 A 
ENDROOT
BRANCH   9  10
ATOM     10  C   UNL     1      26.567  22.827  30.432  0.00  0.00    +0.000 C 
ATOM     11  N   UNL     1      25.967  21.570  30.686  0.00  0.00    +0.000 NA
ATOM     12  O   UNL     1      26.054  23.893  30.902  0.00  0.00    +0.000 OA
ENDBRANCH   9  10
BRANCH   6  13
ATOM     13  N   UNL     1      31.389  22.813  30.105  0.00  0.00    +0.000 NA
ATOM     14  C   UNL     1      31.941  21.708  30.469  0.00  0.00    +0.000 C 
BRANCH  14  15
ATOM     15  C   UNL     1      33.258  21.722  31.090  0.00  0.00    +0.000 A 
ATOM     16  C   UNL     1      34.116  22.794  30.983  0.00  0.00    +0.000 A 
ATOM     17  C   UNL     1      35.359  22.778  31.584  0.00  0.00    +0.000 A 
ATOM     18  C   UNL     1      35.797  21.692  32.314  0.00  0.00    +0.000 A 
ATOM     19  F   UNL     1      37.028  21.681  32.906  0.00  0.00    +0.000 F 
ATOM     20  C   UNL     1      34.935  20.620  32.419  0.00  0.00    +0.000 A 
ATOM     21  C   UNL     1      33.687  20.633  31.818  0.00  0.00    +0.000 A 
ENDBRANCH  14  15
ENDBRANCH   6  13
TORSDOF 3
ENDMDL
MODEL 9
REMARK VINA RESULT:      -5.6     31.934     32.566
REMARK  Name = 
REMARK  3 active torsions:
REMARK  status: ('A' for Active; 'I' for Inactive)
REMARK    1  A    between atoms: N_6  and  N_7
REMARK    2  A    between atoms: C_8  and  C_9
REMARK    3  A    between atoms: C_18  and  C_19
REMARK                            x       y       z     vdW  Elec       q    Type
REMARK                         _______ _______ _______ _____ _____    ______ ____
ROOT
ATOM      1  C   UNL     1      31.434  21.746  33.520  0.00  0.00    +0.000 C 
ATOM      2  C   UNL     1      31.046  22.070  32.108  0.00  0.00    +0.000 A 
ATOM      3  C   UNL     1      29.713  22.220  31.793  0.00  0.00    +0.000 A 
ATOM      4  C   UNL     1      29.369  22.517  30.494  0.00  0.00    +0.000 A 
ATOM      5  C   UNL     1      27.896  22.665  30.230  0.00  0.00    +0.000 C 
ATOM      6  N   UNL     1      30.278  22.666  29.530  0.00  0.00    +0.000 N 
ATOM      7  C   UNL     1      31.571  22.524  29.822  0.00  0.00    +0.000 A 
ATOM      8  O   UNL     1      32.485  22.656  28.932  0.00  0.00    +0.000 OA
ATOM      9  C   UNL     1      31.976  22.225  31.112  0.00  0.00    +0.000 A 
ENDROOT
BRANCH   9  10
ATOM     10  C   UNL     1      33.395  22.070  31.421  0.00  0.00    +0.000 C 
ATOM     11  N   UNL     1      33.996  20.789  31.428  0.00  0.00    +0.000 NA
ATOM     12  O   UNL     1      34.083  23.108  31.685  0.00  0.00    +0.000 OA
ENDBRANCH   9  10
BRANCH   6  13
ATOM     13  N   UNL     1      29.868  22.966  28.239  0.00  0.00    +0.000 NA
ATOM     14  C   UNL     1      29.512  22.092  27.363  0.00  0.00    +0.000 C 
BRANCH  14  15
ATOM     15  C   UNL     1      29.099  22.521  26.034  0.00  0.00    +0.000 A 
ATOM     16  C   UNL     1      29.989  22.673  24.994  0.00  0.00    +0.000 A 
ATOM     17  C   UNL     1      29.566  23.081  23.745  0.00  0.00    +0.000 A 
ATOM     18  C   UNL     1      28.239  23.354  23.483  0.00  0.00    +0.000 A 
ATOM     19  F   UNL     1      27.825  23.757  22.244  0.00  0.00    +0.000 F 
ATOM     20  C   UNL     1      27.350  23.200  24.527  0.00  0.00    +0.000 A 
ATOM     21  C   UNL     1      27.771  22.791  25.781  0.00  0.00    +0.000 A 
ENDBRANCH  14  15
ENDBRANCH   6  13
TORSDOF 3
ENDMDL
MODEL 10
REMARK VINA RESULT:      -5.3      2.074      2.834
REMARK  Name = 
REMARK  3 active torsions:
REMARK  status: ('A' for Active; 'I' for Inactive)
REMARK    1  A    between atoms: N_6  and  N_7
REMARK    2  A    between atoms: C_8  and  C_9
REMARK    3  A    between atoms: C_18  and  C_19
REMARK                            x       y       z     vdW  Elec       q    Type
REMARK                         _______ _______ _______ _____ _____    ______ ____
ROOT
ATOM      1  C   UNL     1      17.194  -9.452  28.293  0.00  0.00    +0.000 C 
ATOM      2  C   UNL     1      18.505  -9.138  27.635  0.00  0.00    +0.000 A 
ATOM      3  C   UNL     1      18.651  -7.948  26.955  0.00  0.00    +0.000 A 
ATOM      4  C   UNL     1      19.858  -7.672  26.355  0.00  0.00    +0.000 A 
ATOM      5  C   UNL     1      19.936  -6.354  25.633  0.00  0.00    +0.000 C 
ATOM      6  N   UNL     1      20.892  -8.511  26.409  0.00  0.00    +0.000 N 
ATOM      7  C   UNL     1      20.764  -9.666  27.064  0.00  0.00    +0.000 A 
ATOM      8  O   UNL     1      21.727 -10.508  27.144  0.00  0.00    +0.000 OA
ATOM      9  C   UNL     1      19.573  -9.998  27.686  0.00  0.00    +0.000 A 
ENDROOT
BRANCH   9  10
ATOM     10  C   UNL     1      19.443 -11.265  28.401  0.00  0.00    +0.000 C 
ATOM     11  N   UNL     1      18.993 -12.428  27.731  0.00  0.00    +0.000 NA
ATOM     12  O   UNL     1      19.743 -11.307  29.637  0.00  0.00    +0.000 OA
ENDBRANCH   9  10
BRANCH   6  13
ATOM     13  N   UNL     1      22.084  -8.175  25.784  0.00  0.00    +0.000 NA
ATOM     14  C   UNL     1      22.533  -8.737  24.716  0.00  0.00    +0.000 C 
BRANCH  14  15
ATOM     15  C   UNL     1      23.800  -8.303  24.144  0.00  0.00    +0.000 A 
ATOM     16  C   UNL     1      24.125  -6.974  23.986  0.00  0.00    +0.000 A 
ATOM     17  C   UNL     1      25.335  -6.593  23.440  0.00  0.00    +0.000 A 
ATOM     18  C   UNL     1      26.268  -7.523  23.029  0.00  0.00    +0.000 A 
ATOM     19  F   UNL     1      27.464  -7.141  22.489  0.00  0.00    +0.000 F 
ATOM     20  C   UNL     1      25.939  -8.853  23.188  0.00  0.00    +0.000 A 
ATOM     21  C   UNL     1      24.727  -9.238  23.736  0.00  0.00    +0.000 A 
ENDBRANCH  14  15
ENDBRANCH   6  13
TORSDOF 3
ENDMDL
