MODEL 1
REMARK VINA RESULT:      -6.5      0.000      0.000
REMARK  Name = 
REMARK  1 active torsions:
REMARK  status: ('A' for Active; 'I' for Inactive)
REMARK    1  A    between atoms: C_2  and  C_5
REMARK                            x       y       z     vdW  Elec       q    Type
REMARK                         _______ _______ _______ _____ _____    ______ ____
ROOT
ATOM      1  C   UNL     1      26.053  23.777  28.104  0.00  0.00    +0.000 C 
ATOM      2  C   UNL     1      25.243  24.976  27.859  0.00  0.00    +0.000 C 
ATOM      3  C   UNL     1      25.683  25.881  26.779  0.00  0.00    +0.000 C 
ATOM      4  C   UNL     1      26.429  25.260  25.665  0.00  0.00    +0.000 C 
ATOM      5  C   UNL     1      27.556  24.394  26.234  0.00  0.00    +0.000 C 
ATOM      6  C   UNL     1      26.894  23.285  27.000  0.00  0.00    +0.000 C 
ATOM      7  N   UNL     1      25.647  24.417  24.804  0.00  0.00    +0.000 NA
ATOM      8  C   UNL     1      26.263  23.882  23.642  0.00  0.00    +0.000 C 
ATOM      9  O   UNL     1      25.905  22.808  23.105  0.00  0.00    +0.000 OA
ATOM     10  C   UNL     1      27.379  24.645  23.050  0.00  0.00    +0.000 A 
ATOM     11  C   UNL     1      28.019  24.186  21.929  0.00  0.00    +0.000 A 
ATOM     12  C   UNL     1      29.059  24.905  21.385  0.00  0.00    +0.000 A 
ATOM     13  C   UNL     1      29.429  26.081  21.997  0.00  0.00    +0.000 A 
ATOM     14  C   UNL     1      28.781  26.537  23.125  0.00  0.00    +0.000 A 
ATOM     15  C   UNL     1      27.737  25.821  23.674  0.00  0.00    +0.000 A 
ATOM     16  N   UNL     1      27.055  26.275  24.841  0.00  0.00    +0.000 NA
ENDROOT
BRANCH   1  18
ATOM     17  C   UNL     1      28.111  23.987  29.468  0.00  0.00    +0.000 C 
ATOM     18  C   UNL     1      26.640  23.652  29.473  0.00  0.00    +0.000 C 
ATOM     19  C   UNL     1      25.865  24.594  30.395  0.00  0.00    +0.000 C 
ATOM     20  C   UNL     1      26.424  22.244  29.985  0.00  0.00    +0.000 C 
ENDBRANCH   1  18
TORSDOF 1
ENDMDL
MODEL 2
REMARK VINA RESULT:      -6.4      3.699      5.794
REMARK  Name = 
REMARK  1 active torsions:
REMARK  status: ('A' for Active; 'I' for Inactive)
REMARK    1  A    between atoms: C_2  and  C_5
REMARK                            x       y       z     vdW  Elec       q    Type
REMARK                         _______ _______ _______ _____ _____    ______ ____
ROOT
ATOM      1  C   UNL     1      32.515  25.712  24.958  0.00  0.00    +0.000 C 
ATOM      2  C   UNL     1      32.842  24.325  25.310  0.00  0.00    +0.000 C 
ATOM      3  C   UNL     1      31.716  23.422  25.619  0.00  0.00    +0.000 C 
ATOM      4  C   UNL     1      30.430  23.728  24.958  0.00  0.00    +0.000 C 
ATOM      5  C   UNL     1      30.098  25.209  25.161  0.00  0.00    +0.000 C 
ATOM      6  C   UNL     1      31.164  25.984  24.440  0.00  0.00    +0.000 C 
ATOM      7  N   UNL     1      30.398  23.480  23.544  0.00  0.00    +0.000 NA
ATOM      8  C   UNL     1      29.163  23.633  22.859  0.00  0.00    +0.000 C 
ATOM      9  O   UNL     1      29.081  23.929  21.645  0.00  0.00    +0.000 OA
ATOM     10  C   UNL     1      27.924  23.426  23.634  0.00  0.00    +0.000 A 
ATOM     11  C   UNL     1      26.699  23.558  23.037  0.00  0.00    +0.000 A 
ATOM     12  C   UNL     1      25.549  23.363  23.768  0.00  0.00    +0.000 A 
ATOM     13  C   UNL     1      25.672  23.038  25.100  0.00  0.00    +0.000 A 
ATOM     14  C   UNL     1      26.908  22.907  25.696  0.00  0.00    +0.000 A 
ATOM     15  C   UNL     1      28.064  23.100  24.967  0.00  0.00    +0.000 A 
ATOM     16  N   UNL     1      29.352  22.971  25.564  0.00  0.00    +0.000 NA
ENDROOT
BRANCH   1  18
ATOM     17  C   UNL     1      33.117  26.318  27.283  0.00  0.00    +0.000 C 
ATOM     18  C   UNL     1      33.096  26.767  25.843  0.00  0.00    +0.000 C 
ATOM     19  C   UNL     1      34.508  27.065  25.339  0.00  0.00    +0.000 C 
ATOM     20  C   UNL     1      32.290  28.041  25.702  0.00  0.00    +0.000 C 
ENDBRANCH   1  18
TORSDOF 1
ENDMDL
MODEL 3
REMARK VINA RESULT:      -6.4      3.225      5.572
REMARK  Name = 
REMARK  1 active torsions:
REMARK  status: ('A' for Active; 'I' for Inactive)
REMARK    1  A    between atoms: C_2  and  C_5
REMARK                            x       y       z     vdW  Elec       q    Type
REMARK                         _______ _______ _______ _____ _____    ______ ____
ROOT
ATOM      1  C   UNL     1      31.791  24.354  24.549  0.00  0.00    +0.000 C 
ATOM      2  C   UNL     1      31.505  22.916  24.609  0.00  0.00    +0.000 C 
ATOM      3  C   UNL     1      30.244  22.503  25.256  0.00  0.00    +0.000 C 
ATOM      4  C   UNL     1      29.129  23.470  25.196  0.00  0.00    +0.000 C 
ATOM      5  C   UNL     1      29.628  24.844  25.652  0.00  0.00    +0.000 C 
ATOM      6  C   UNL     1      30.650  25.281  24.642  0.00  0.00    +0.000 C 
ATOM      7  N   UNL     1      28.544  23.646  23.896  0.00  0.00    +0.000 NA
ATOM      8  C   UNL     1      27.390  24.466  23.780  0.00  0.00    +0.000 C 
ATOM      9  O   UNL     1      27.087  25.084  22.733  0.00  0.00    +0.000 OA
ATOM     10  C   UNL     1      26.515  24.582  24.962  0.00  0.00    +0.000 A 
ATOM     11  C   UNL     1      25.386  25.356  24.920  0.00  0.00    +0.000 A 
ATOM     12  C   UNL     1      24.576  25.458  26.028  0.00  0.00    +0.000 A 
ATOM     13  C   UNL     1      24.935  24.766  27.163  0.00  0.00    +0.000 A 
ATOM     14  C   UNL     1      26.073  23.989  27.200  0.00  0.00    +0.000 A 
ATOM     15  C   UNL     1      26.888  23.883  26.091  0.00  0.00    +0.000 A 
ATOM     16  N   UNL     1      28.070  23.085  26.108  0.00  0.00    +0.000 NA
ENDROOT
BRANCH   1  18
ATOM     17  C   UNL     1      34.266  24.255  24.521  0.00  0.00    +0.000 C 
ATOM     18  C   UNL     1      33.048  24.801  25.223  0.00  0.00    +0.000 C 
ATOM     19  C   UNL     1      33.051  26.330  25.222  0.00  0.00    +0.000 C 
ATOM     20  C   UNL     1      33.029  24.353  26.669  0.00  0.00    +0.000 C 
ENDBRANCH   1  18
TORSDOF 1
ENDMDL
MODEL 4
REMARK VINA RESULT:      -6.4      1.631      6.196
REMARK  Name = 
REMARK  1 active torsions:
REMARK  status: ('A' for Active; 'I' for Inactive)
REMARK    1  A    between atoms: C_2  and  C_5
REMARK                            x       y       z     vdW  Elec       q    Type
REMARK                         _______ _______ _______ _____ _____    ______ ____
ROOT
ATOM      1  C   UNL     1      27.355  25.441  22.997  0.00  0.00    +0.000 C 
ATOM      2  C   UNL     1      26.991  24.053  22.690  0.00  0.00    +0.000 C 
ATOM      3  C   UNL     1      27.100  23.067  23.782  0.00  0.00    +0.000 C 
ATOM      4  C   UNL     1      26.922  23.586  25.155  0.00  0.00    +0.000 C 
ATOM      5  C   UNL     1      27.815  24.815  25.349  0.00  0.00    +0.000 C 
ATOM      6  C   UNL     1      27.301  25.865  24.406  0.00  0.00    +0.000 C 
ATOM      7  N   UNL     1      25.582  23.983  25.486  0.00  0.00    +0.000 NA
ATOM      8  C   UNL     1      25.306  24.378  26.822  0.00  0.00    +0.000 C 
ATOM      9  O   UNL     1      24.389  25.174  27.130  0.00  0.00    +0.000 OA
ATOM     10  C   UNL     1      26.151  23.808  27.889  0.00  0.00    +0.000 A 
ATOM     11  C   UNL     1      25.940  24.145  29.200  0.00  0.00    +0.000 A 
ATOM     12  C   UNL     1      26.734  23.609  30.188  0.00  0.00    +0.000 A 
ATOM     13  C   UNL     1      27.733  22.737  29.819  0.00  0.00    +0.000 A 
ATOM     14  C   UNL     1      27.941  22.401  28.499  0.00  0.00    +0.000 A 
ATOM     15  C   UNL     1      27.147  22.935  27.504  0.00  0.00    +0.000 A 
ATOM     16  N   UNL     1      27.346  22.602  26.132  0.00  0.00    +0.000 NA
ENDROOT
BRANCH   1  18
ATOM     17  C   UNL     1      29.429  26.795  23.056  0.00  0.00    +0.000 C 
ATOM     18  C   UNL     1      28.471  26.020  22.187  0.00  0.00    +0.000 C 
ATOM     19  C   UNL     1      29.179  24.861  21.485  0.00  0.00    +0.000 C 
ATOM     20  C   UNL     1      27.897  26.915  21.110  0.00  0.00    +0.000 C 
ENDBRANCH   1  18
TORSDOF 1
ENDMDL
MODEL 5
REMARK VINA RESULT:      -6.4      2.373      6.152
REMARK  Name = 
REMARK  1 active torsions:
REMARK  status: ('A' for Active; 'I' for Inactive)
REMARK    1  A    between atoms: C_2  and  C_5
REMARK                            x       y       z     vdW  Elec       q    Type
REMARK                         _______ _______ _______ _____ _____    ______ ____
ROOT
ATOM      1  C   UNL     1      27.368  26.108  22.195  0.00  0.00    +0.000 C 
ATOM      2  C   UNL     1      27.543  24.860  21.444  0.00  0.00    +0.000 C 
ATOM      3  C   UNL     1      28.333  23.790  22.084  0.00  0.00    +0.000 C 
ATOM      4  C   UNL     1      28.323  23.762  23.562  0.00  0.00    +0.000 C 
ATOM      5  C   UNL     1      28.644  25.161  24.096  0.00  0.00    +0.000 C 
ATOM      6  C   UNL     1      27.514  26.049  23.660  0.00  0.00    +0.000 C 
ATOM      7  N   UNL     1      27.077  23.361  24.154  0.00  0.00    +0.000 NA
ATOM      8  C   UNL     1      27.023  23.192  25.563  0.00  0.00    +0.000 C 
ATOM      9  O   UNL     1      25.975  23.334  26.234  0.00  0.00    +0.000 OA
ATOM     10  C   UNL     1      28.275  22.828  26.254  0.00  0.00    +0.000 A 
ATOM     11  C   UNL     1      28.295  22.649  27.612  0.00  0.00    +0.000 A 
ATOM     12  C   UNL     1      29.468  22.310  28.247  0.00  0.00    +0.000 A 
ATOM     13  C   UNL     1      30.603  22.161  27.483  0.00  0.00    +0.000 A 
ATOM     14  C   UNL     1      30.577  22.343  26.117  0.00  0.00    +0.000 A 
ATOM     15  C   UNL     1      29.403  22.682  25.475  0.00  0.00    +0.000 A 
ATOM     16  N   UNL     1      29.355  22.876  24.063  0.00  0.00    +0.000 NA
ENDROOT
BRANCH   1  18
ATOM     17  C   UNL     1      29.240  27.105  20.916  0.00  0.00    +0.000 C 
ATOM     18  C   UNL     1      27.888  27.347  21.540  0.00  0.00    +0.000 C 
ATOM     19  C   UNL     1      26.866  27.775  20.487  0.00  0.00    +0.000 C 
ATOM     20  C   UNL     1      27.974  28.459  22.564  0.00  0.00    +0.000 C 
ENDBRANCH   1  18
TORSDOF 1
ENDMDL
MODEL 6
REMARK VINA RESULT:      -6.2      1.689      6.180
REMARK  Name = 
REMARK  1 active torsions:
REMARK  status: ('A' for Active; 'I' for Inactive)
REMARK    1  A    between atoms: C_2  and  C_5
REMARK                            x       y       z     vdW  Elec       q    Type
REMARK                         _______ _______ _______ _____ _____    ______ ____
ROOT
ATOM      1  C   UNL     1      27.770  25.024  23.470  0.00  0.00    +0.000 C 
ATOM      2  C   UNL     1      27.177  23.683  23.403  0.00  0.00    +0.000 C 
ATOM      3  C   UNL     1      26.853  23.021  24.681  0.00  0.00    +0.000 C 
ATOM      4  C   UNL     1      26.528  23.910  25.816  0.00  0.00    +0.000 C 
ATOM      5  C   UNL     1      27.612  24.984  25.942  0.00  0.00    +0.000 C 
ATOM      6  C   UNL     1      27.535  25.812  24.692  0.00  0.00    +0.000 C 
ATOM      7  N   UNL     1      25.269  24.594  25.713  0.00  0.00    +0.000 NA
ATOM      8  C   UNL     1      24.830  25.370  26.818  0.00  0.00    +0.000 C 
ATOM      9  O   UNL     1      24.068  26.358  26.706  0.00  0.00    +0.000 OA
ATOM     10  C   UNL     1      25.305  24.977  28.159  0.00  0.00    +0.000 A 
ATOM     11  C   UNL     1      24.921  25.683  29.268  0.00  0.00    +0.000 A 
ATOM     12  C   UNL     1      25.370  25.308  30.514  0.00  0.00    +0.000 A 
ATOM     13  C   UNL     1      26.206  24.218  30.605  0.00  0.00    +0.000 A 
ATOM     14  C   UNL     1      26.589  23.513  29.485  0.00  0.00    +0.000 A 
ATOM     15  C   UNL     1      26.142  23.884  28.233  0.00  0.00    +0.000 A 
ATOM     16  N   UNL     1      26.527  23.168  27.062  0.00  0.00    +0.000 NA
ENDROOT
BRANCH   1  18
ATOM     17  C   UNL     1      30.183  24.513  23.688  0.00  0.00    +0.000 C 
ATOM     18  C   UNL     1      29.121  25.176  22.849  0.00  0.00    +0.000 C 
ATOM     19  C   UNL     1      29.057  24.558  21.452  0.00  0.00    +0.000 C 
ATOM     20  C   UNL     1      29.431  26.648  22.676  0.00  0.00    +0.000 C 
ENDBRANCH   1  18
TORSDOF 1
ENDMDL
MODEL 7
REMARK VINA RESULT:      -6.2     22.013     23.794
REMARK  Name = 
REMARK  1 active torsions:
REMARK  status: ('A' for Active; 'I' for Inactive)
REMARK    1  A    between atoms: C_2  and  C_5
REMARK                            x       y       z     vdW  Elec       q    Type
REMARK                         _______ _______ _______ _____ _____    ______ ____
ROOT
ATOM      1  C   UNL     1      26.336   4.550  16.936  0.00  0.00    +0.000 C 
ATOM      2  C   UNL     1      26.228   4.293  18.377  0.00  0.00    +0.000 C 
ATOM      3  C   UNL     1      24.908   3.884  18.895  0.00  0.00    +0.000 C 
ATOM      4  C   UNL     1      24.030   3.158  17.953  0.00  0.00    +0.000 C 
ATOM      5  C   UNL     1      23.956   3.933  16.635  0.00  0.00    +0.000 C 
ATOM      6  C   UNL     1      25.341   3.916  16.054  0.00  0.00    +0.000 C 
ATOM      7  N   UNL     1      24.452   1.823  17.633  0.00  0.00    +0.000 NA
ATOM      8  C   UNL     1      23.598   1.020  16.832  0.00  0.00    +0.000 C 
ATOM      9  O   UNL     1      24.013   0.094  16.097  0.00  0.00    +0.000 OA
ATOM     10  C   UNL     1      22.151   1.304  16.882  0.00  0.00    +0.000 A 
ATOM     11  C   UNL     1      21.270   0.567  16.135  0.00  0.00    +0.000 A 
ATOM     12  C   UNL     1      19.922   0.840  16.188  0.00  0.00    +0.000 A 
ATOM     13  C   UNL     1      19.497   1.863  17.005  0.00  0.00    +0.000 A 
ATOM     14  C   UNL     1      20.387   2.601  17.755  0.00  0.00    +0.000 A 
ATOM     15  C   UNL     1      21.740   2.331  17.705  0.00  0.00    +0.000 A 
ATOM     16  N   UNL     1      22.678   3.083  18.471  0.00  0.00    +0.000 NA
ENDROOT
BRANCH   1  18
ATOM     17  C   UNL     1      26.047   6.973  17.360  0.00  0.00    +0.000 C 
ATOM     18  C   UNL     1      26.766   5.927  16.546  0.00  0.00    +0.000 C 
ATOM     19  C   UNL     1      28.278   6.013  16.753  0.00  0.00    +0.000 C 
ATOM     20  C   UNL     1      26.501   6.137  15.070  0.00  0.00    +0.000 C 
ENDBRANCH   1  18
TORSDOF 1
ENDMDL
MODEL 8
REMARK VINA RESULT:      -6.1     17.789     20.610
REMARK  Name = 
REMARK  1 active torsions:
REMARK  status: ('A' for Active; 'I' for Inactive)
REMARK    1  A    between atoms: C_2  and  C_5
REMARK                            x       y       z     vdW  Elec       q    Type
REMARK                         _______ _______ _______ _____ _____    ______ ____
ROOT
ATOM      1  C   UNL     1      18.020   9.089  39.674  0.00  0.00    +0.000 C 
ATOM      2  C   UNL     1      17.401   9.880  38.605  0.00  0.00    +0.000 C 
ATOM      3  C   UNL     1      18.086  11.123  38.200  0.00  0.00    +0.000 C 
ATOM      4  C   UNL     1      19.553  11.152  38.379  0.00  0.00    +0.000 C 
ATOM      5  C   UNL     1      19.896  10.701  39.802  0.00  0.00    +0.000 C 
ATOM      6  C   UNL     1      19.463   9.267  39.907  0.00  0.00    +0.000 C 
ATOM      7  N   UNL     1      20.293  10.310  37.481  0.00  0.00    +0.000 NA
ATOM      8  C   UNL     1      21.711  10.374  37.509  0.00  0.00    +0.000 C 
ATOM      9  O   UNL     1      22.451   9.418  37.182  0.00  0.00    +0.000 OA
ATOM     10  C   UNL     1      22.327  11.642  37.947  0.00  0.00    +0.000 A 
ATOM     11  C   UNL     1      23.690  11.773  37.998  0.00  0.00    +0.000 A 
ATOM     12  C   UNL     1      24.254  12.960  38.408  0.00  0.00    +0.000 A 
ATOM     13  C   UNL     1      23.415  13.993  38.761  0.00  0.00    +0.000 A 
ATOM     14  C   UNL     1      22.045  13.855  38.707  0.00  0.00    +0.000 A 
ATOM     15  C   UNL     1      21.474  12.667  38.296  0.00  0.00    +0.000 A 
ATOM     16  N   UNL     1      20.059  12.503  38.235  0.00  0.00    +0.000 NA
ENDROOT
BRANCH   1  18
ATOM     17  C   UNL     1      17.857   9.444  42.120  0.00  0.00    +0.000 C 
ATOM     18  C   UNL     1      17.186   8.873  40.896  0.00  0.00    +0.000 C 
ATOM     19  C   UNL     1      15.831   9.538  40.652  0.00  0.00    +0.000 C 
ATOM     20  C   UNL     1      16.935   7.391  41.078  0.00  0.00    +0.000 C 
ENDBRANCH   1  18
TORSDOF 1
ENDMDL
MODEL 9
REMARK VINA RESULT:      -6.1     25.039     26.755
REMARK  Name = 
REMARK  1 active torsions:
REMARK  status: ('A' for Active; 'I' for Inactive)
REMARK    1  A    between atoms: C_2  and  C_5
REMARK                            x       y       z     vdW  Elec       q    Type
REMARK                         _______ _______ _______ _____ _____    ______ ____
ROOT
ATOM      1  C   UNL     1      17.422   5.966  41.867  0.00  0.00    +0.000 C 
ATOM      2  C   UNL     1      17.947   6.643  40.676  0.00  0.00    +0.000 C 
ATOM      3  C   UNL     1      19.374   6.443  40.357  0.00  0.00    +0.000 C 
ATOM      4  C   UNL     1      19.971   5.165  40.798  0.00  0.00    +0.000 C 
ATOM      5  C   UNL     1      19.637   4.935  42.274  0.00  0.00    +0.000 C 
ATOM      6  C   UNL     1      18.145   4.778  42.351  0.00  0.00    +0.000 C 
ATOM      7  N   UNL     1      19.525   4.004  40.080  0.00  0.00    +0.000 NA
ATOM      8  C   UNL     1      20.142   2.756  40.362  0.00  0.00    +0.000 C 
ATOM      9  O   UNL     1      19.568   1.654  40.209  0.00  0.00    +0.000 OA
ATOM     10  C   UNL     1      21.531   2.781  40.858  0.00  0.00    +0.000 A 
ATOM     11  C   UNL     1      22.187   1.614  41.151  0.00  0.00    +0.000 A 
ATOM     12  C   UNL     1      23.483   1.647  41.613  0.00  0.00    +0.000 A 
ATOM     13  C   UNL     1      24.087   2.874  41.770  0.00  0.00    +0.000 A 
ATOM     14  C   UNL     1      23.423   4.045  41.475  0.00  0.00    +0.000 A 
ATOM     15  C   UNL     1      22.123   4.017  41.010  0.00  0.00    +0.000 A 
ATOM     16  N   UNL     1      21.417   5.216  40.700  0.00  0.00    +0.000 NA
ENDROOT
BRANCH   1  18
ATOM     17  C   UNL     1      15.736   7.709  42.373  0.00  0.00    +0.000 C 
ATOM     18  C   UNL     1      16.848   6.853  42.925  0.00  0.00    +0.000 C 
ATOM     19  C   UNL     1      16.342   5.955  44.054  0.00  0.00    +0.000 C 
ATOM     20  C   UNL     1      17.945   7.724  43.500  0.00  0.00    +0.000 C 
ENDBRANCH   1  18
TORSDOF 1
ENDMDL
MODEL 10
REMARK VINA RESULT:      -6.0     32.913     35.071
REMARK  Name = 
REMARK  1 active torsions:
REMARK  status: ('A' for Active; 'I' for Inactive)
REMARK    1  A    between atoms: C_2  and  C_5
REMARK                            x       y       z     vdW  Elec       q    Type
REMARK                         _______ _______ _______ _____ _____    ______ ____
ROOT
ATOM      1  C   UNL     1      17.753 -11.440  29.624  0.00  0.00    +0.000 C 
ATOM      2  C   UNL     1      16.555 -11.386  28.778  0.00  0.00    +0.000 C 
ATOM      3  C   UNL     1      16.321 -10.145  28.015  0.00  0.00    +0.000 C 
ATOM      4  C   UNL     1      17.522  -9.371  27.637  0.00  0.00    +0.000 C 
ATOM      5  C   UNL     1      18.403  -9.171  28.873  0.00  0.00    +0.000 C 
ATOM      6  C   UNL     1      18.867 -10.538  29.288  0.00  0.00    +0.000 C 
ATOM      7  N   UNL     1      18.344  -9.978  26.628  0.00  0.00    +0.000 NA
ATOM      8  C   UNL     1      19.449  -9.241  26.124  0.00  0.00    +0.000 C 
ATOM      9  O   UNL     1      20.479  -9.777  25.655  0.00  0.00    +0.000 OA
ATOM     10  C   UNL     1      19.359  -7.768  26.162  0.00  0.00    +0.000 A 
ATOM     11  C   UNL     1      20.388  -6.995  25.692  0.00  0.00    +0.000 A 
ATOM     12  C   UNL     1      20.295  -5.623  25.732  0.00  0.00    +0.000 A 
ATOM     13  C   UNL     1      19.151  -5.062  26.253  0.00  0.00    +0.000 A 
ATOM     14  C   UNL     1      18.118  -5.845  26.724  0.00  0.00    +0.000 A 
ATOM     15  C   UNL     1      18.207  -7.222  26.686  0.00  0.00    +0.000 A 
ATOM     16  N   UNL     1      17.151  -8.050  27.169  0.00  0.00    +0.000 NA
ENDROOT
BRANCH   1  18
ATOM     17  C   UNL     1      16.873 -13.005  31.331  0.00  0.00    +0.000 C 
ATOM     18  C   UNL     1      17.515 -11.663  31.083  0.00  0.00    +0.000 C 
ATOM     19  C   UNL     1      18.866 -11.560  31.791  0.00  0.00    +0.000 C 
ATOM     20  C   UNL     1      16.638 -10.553  31.624  0.00  0.00    +0.000 C 
ENDBRANCH   1  18
TORSDOF 1
ENDMDL
