MODEL 1
REMARK VINA RESULT:      -6.1      0.000      0.000
REMARK  Name = 
REMARK  4 active torsions:
REMARK  status: ('A' for Active; 'I' for Inactive)
REMARK    1  A    between atoms: C_2  and  C_3
REMARK    2  A    between atoms: C_11  and  C_12
REMARK    3  A    between atoms: N_14  and  C_15
REMARK    4  A    between atoms: C_15  and  C_16
REMARK                            x       y       z     vdW  Elec       q    Type
REMARK                         _______ _______ _______ _____ _____    ______ ____
ROOT
ATOM      1  C   UNL     1      25.242   9.696  37.178  0.00  0.00    +0.000 C 
ATOM      2  C   UNL     1      24.140   9.496  35.989  0.00  0.00    +0.000 C 
ATOM      3  C   UNL     1      22.828   9.245  36.503  0.00  0.00    +0.000 C 
ATOM      4  C   UNL     1      22.380  10.492  37.273  0.00  0.00    +0.000 A 
ATOM      5  C   UNL     1      23.367  11.311  37.629  0.00  0.00    +0.000 A 
ATOM      6  S   UNL     1      22.541  12.568  38.456  0.00  0.00    +0.000 S 
ATOM      7  C   UNL     1      20.950  11.995  38.316  0.00  0.00    +0.000 A 
ATOM      8  N   UNL     1      19.710  12.573  38.801  0.00  0.00    +0.000 NA
ATOM      9  C   UNL     1      21.095  10.821  37.619  0.00  0.00    +0.000 A 
ATOM     10  C   UNL     1      24.822  11.253  37.415  0.00  0.00    +0.000 C 
ENDROOT
BRANCH   9  11
ATOM     11  C   UNL     1      19.895   9.977  37.277  0.00  0.00    +0.000 C 
ATOM     12  O   UNL     1      19.386   9.226  38.110  0.00  0.00    +0.000 OA
ATOM     13  N   UNL     1      19.305  10.014  35.989  0.00  0.00    +0.000 NA
BRANCH  13  14
ATOM     14  C   UNL     1      18.179   9.263  35.568  0.00  0.00    +0.000 C 
BRANCH  14  15
ATOM     15  C   UNL     1      17.133  10.085  34.898  0.00  0.00    +0.000 A 
ATOM     16  C   UNL     1      16.396  11.035  35.589  0.00  0.00    +0.000 A 
ATOM     17  C   UNL     1      15.526  11.613  34.702  0.00  0.00    +0.000 A 
ATOM     18  C   UNL     1      15.769  10.983  33.483  0.00  0.00    +0.000 A 
ATOM     19  O   UNL     1      16.720  10.103  33.673  0.00  0.00    +0.000 OA
ENDBRANCH  14  15
ENDBRANCH  13  14
ENDBRANCH   9  11
BRANCH   1  21
ATOM     20  C   UNL     1      25.380   8.133  39.048  0.00  0.00    +0.000 C 
ATOM     21  C   UNL     1      24.367   9.108  38.432  0.00  0.00    +0.000 C 
ENDBRANCH   1  21
TORSDOF 4
ENDMDL
MODEL 2
REMARK VINA RESULT:      -5.6     17.933     19.116
REMARK  Name = 
REMARK  4 active torsions:
REMARK  status: ('A' for Active; 'I' for Inactive)
REMARK    1  A    between atoms: C_2  and  C_3
REMARK    2  A    between atoms: C_11  and  C_12
REMARK    3  A    between atoms: N_14  and  C_15
REMARK    4  A    between atoms: C_15  and  C_16
REMARK                            x       y       z     vdW  Elec       q    Type
REMARK                         _______ _______ _______ _____ _____    ______ ____
ROOT
ATOM      1  C   UNL     1      27.376  23.265  30.599  0.00  0.00    +0.000 C 
ATOM      2  C   UNL     1      28.466  23.423  29.392  0.00  0.00    +0.000 C 
ATOM      3  C   UNL     1      27.920  23.064  28.119  0.00  0.00    +0.000 C 
ATOM      4  C   UNL     1      26.800  24.057  27.793  0.00  0.00    +0.000 A 
ATOM      5  C   UNL     1      26.328  24.728  28.840  0.00  0.00    +0.000 A 
ATOM      6  S   UNL     1      25.115  25.723  28.143  0.00  0.00    +0.000 S 
ATOM      7  C   UNL     1      25.258  25.240  26.522  0.00  0.00    +0.000 A 
ATOM      8  N   UNL     1      24.520  25.685  25.354  0.00  0.00    +0.000 NA
ATOM      9  C   UNL     1      26.259  24.303  26.556  0.00  0.00    +0.000 A 
ATOM     10  C   UNL     1      26.684  24.704  30.269  0.00  0.00    +0.000 C 
ENDROOT
BRANCH   9  11
ATOM     11  C   UNL     1      26.706  23.609  25.296  0.00  0.00    +0.000 C 
ATOM     12  O   UNL     1      26.017  22.732  24.774  0.00  0.00    +0.000 OA
ATOM     13  N   UNL     1      27.931  23.935  24.663  0.00  0.00    +0.000 NA
BRANCH  13  14
ATOM     14  C   UNL     1      28.440  23.344  23.480  0.00  0.00    +0.000 C 
BRANCH  14  15
ATOM     15  C   UNL     1      28.733  24.330  22.402  0.00  0.00    +0.000 A 
ATOM     16  C   UNL     1      28.226  25.619  22.433  0.00  0.00    +0.000 A 
ATOM     17  C   UNL     1      28.672  26.271  21.313  0.00  0.00    +0.000 A 
ATOM     18  C   UNL     1      29.448  25.336  20.628  0.00  0.00    +0.000 A 
ATOM     19  O   UNL     1      29.437  24.226  21.323  0.00  0.00    +0.000 OA
ENDBRANCH  14  15
ENDBRANCH  13  14
ENDBRANCH   9  11
BRANCH   1  21
ATOM     20  C   UNL     1      26.130  21.172  30.758  0.00  0.00    +0.000 C 
ATOM     21  C   UNL     1      26.254  22.371  29.807  0.00  0.00    +0.000 C 
ENDBRANCH   1  21
TORSDOF 4
ENDMDL
MODEL 3
REMARK VINA RESULT:      -5.5     16.843     18.808
REMARK  Name = 
REMARK  4 active torsions:
REMARK  status: ('A' for Active; 'I' for Inactive)
REMARK    1  A    between atoms: C_2  and  C_3
REMARK    2  A    between atoms: C_11  and  C_12
REMARK    3  A    between atoms: N_14  and  C_15
REMARK    4  A    between atoms: C_15  and  C_16
REMARK                            x       y       z     vdW  Elec       q    Type
REMARK                         _______ _______ _______ _____ _____    ______ ____
ROOT
ATOM      1  C   UNL     1      30.751  23.648  24.133  0.00  0.00    +0.000 C 
ATOM      2  C   UNL     1      30.520  22.252  24.950  0.00  0.00    +0.000 C 
ATOM      3  C   UNL     1      30.122  22.479  26.306  0.00  0.00    +0.000 C 
ATOM      4  C   UNL     1      28.756  23.173  26.284  0.00  0.00    +0.000 A 
ATOM      5  C   UNL     1      28.441  23.745  25.124  0.00  0.00    +0.000 A 
ATOM      6  S   UNL     1      26.892  24.417  25.437  0.00  0.00    +0.000 S 
ATOM      7  C   UNL     1      26.703  23.938  27.054  0.00  0.00    +0.000 A 
ATOM      8  N   UNL     1      25.599  24.172  27.968  0.00  0.00    +0.000 NA
ATOM      9  C   UNL     1      27.863  23.255  27.322  0.00  0.00    +0.000 A 
ATOM     10  C   UNL     1      29.158  23.834  23.841  0.00  0.00    +0.000 C 
ENDROOT
BRANCH   9  11
ATOM     11  C   UNL     1      28.104  22.651  28.680  0.00  0.00    +0.000 C 
ATOM     12  O   UNL     1      27.455  21.678  29.068  0.00  0.00    +0.000 OA
ATOM     13  N   UNL     1      29.081  23.173  29.563  0.00  0.00    +0.000 NA
BRANCH  13  14
ATOM     14  C   UNL     1      29.384  22.679  30.856  0.00  0.00    +0.000 C 
BRANCH  14  15
ATOM     15  C   UNL     1      30.746  22.086  30.962  0.00  0.00    +0.000 A 
ATOM     16  C   UNL     1      31.611  22.042  29.880  0.00  0.00    +0.000 A 
ATOM     17  C   UNL     1      32.771  21.443  30.295  0.00  0.00    +0.000 A 
ATOM     18  C   UNL     1      32.566  21.138  31.640  0.00  0.00    +0.000 A 
ATOM     19  O   UNL     1      31.362  21.542  31.960  0.00  0.00    +0.000 OA
ENDBRANCH  14  15
ENDBRANCH  13  14
ENDBRANCH   9  11
BRANCH   1  21
ATOM     20  C   UNL     1      31.542  25.865  24.779  0.00  0.00    +0.000 C 
ATOM     21  C   UNL     1      30.796  24.679  25.405  0.00  0.00    +0.000 C 
ENDBRANCH   1  21
TORSDOF 4
ENDMDL
MODEL 4
REMARK VINA RESULT:      -5.5     18.171     19.995
REMARK  Name = 
REMARK  4 active torsions:
REMARK  status: ('A' for Active; 'I' for Inactive)
REMARK    1  A    between atoms: C_2  and  C_3
REMARK    2  A    between atoms: C_11  and  C_12
REMARK    3  A    between atoms: N_14  and  C_15
REMARK    4  A    between atoms: C_15  and  C_16
REMARK                            x       y       z     vdW  Elec       q    Type
REMARK                         _______ _______ _______ _____ _____    ______ ____
ROOT
ATOM      1  C   UNL     1      26.403  23.921  29.806  0.00  0.00    +0.000 C 
ATOM      2  C   UNL     1      27.835  24.586  29.387  0.00  0.00    +0.000 C 
ATOM      3  C   UNL     1      28.567  23.765  28.472  0.00  0.00    +0.000 C 
ATOM      4  C   UNL     1      27.759  23.676  27.173  0.00  0.00    +0.000 A 
ATOM      5  C   UNL     1      26.475  24.001  27.293  0.00  0.00    +0.000 A 
ATOM      6  S   UNL     1      25.877  23.795  25.696  0.00  0.00    +0.000 S 
ATOM      7  C   UNL     1      27.305  23.296  24.927  0.00  0.00    +0.000 A 
ATOM      8  N   UNL     1      27.535  22.941  23.538  0.00  0.00    +0.000 NA
ATOM      9  C   UNL     1      28.230  23.300  25.941  0.00  0.00    +0.000 A 
ATOM     10  C   UNL     1      25.672  24.442  28.445  0.00  0.00    +0.000 C 
ENDROOT
BRANCH   9  11
ATOM     11  C   UNL     1      29.661  22.908  25.677  0.00  0.00    +0.000 C 
ATOM     12  O   UNL     1      30.131  21.867  26.138  0.00  0.00    +0.000 OA
ATOM     13  N   UNL     1      30.519  23.717  24.892  0.00  0.00    +0.000 NA
BRANCH  13  14
ATOM     14  C   UNL     1      31.875  23.439  24.586  0.00  0.00    +0.000 C 
BRANCH  14  15
ATOM     15  C   UNL     1      32.785  24.596  24.814  0.00  0.00    +0.000 A 
ATOM     16  C   UNL     1      34.160  24.480  24.688  0.00  0.00    +0.000 A 
ATOM     17  C   UNL     1      34.710  25.706  24.959  0.00  0.00    +0.000 A 
ATOM     18  C   UNL     1      33.628  26.538  25.247  0.00  0.00    +0.000 A 
ATOM     19  O   UNL     1      32.537  25.821  25.143  0.00  0.00    +0.000 OA
ENDBRANCH  14  15
ENDBRANCH  13  14
ENDBRANCH   9  11
BRANCH   1  21
ATOM     20  C   UNL     1      26.365  21.591  30.535  0.00  0.00    +0.000 C 
ATOM     21  C   UNL     1      26.668  22.397  29.264  0.00  0.00    +0.000 C 
ENDBRANCH   1  21
TORSDOF 4
ENDMDL
MODEL 5
REMARK VINA RESULT:      -5.4     17.421     18.830
REMARK  Name = 
REMARK  4 active torsions:
REMARK  status: ('A' for Active; 'I' for Inactive)
REMARK    1  A    between atoms: C_2  and  C_3
REMARK    2  A    between atoms: C_11  and  C_12
REMARK    3  A    between atoms: N_14  and  C_15
REMARK    4  A    between atoms: C_15  and  C_16
REMARK                            x       y       z     vdW  Elec       q    Type
REMARK                         _______ _______ _______ _____ _____    ______ ____
ROOT
ATOM      1  C   UNL     1      25.702  24.871  29.686  0.00  0.00    +0.000 C 
ATOM      2  C   UNL     1      25.891  24.060  28.280  0.00  0.00    +0.000 C 
ATOM      3  C   UNL     1      27.202  24.227  27.731  0.00  0.00    +0.000 C 
ATOM      4  C   UNL     1      28.203  23.598  28.706  0.00  0.00    +0.000 A 
ATOM      5  C   UNL     1      27.738  23.416  29.939  0.00  0.00    +0.000 A 
ATOM      6  S   UNL     1      29.079  22.716  30.754  0.00  0.00    +0.000 S 
ATOM      7  C   UNL     1      30.194  22.683  29.476  0.00  0.00    +0.000 A 
ATOM      8  N   UNL     1      31.566  22.208  29.454  0.00  0.00    +0.000 NA
ATOM      9  C   UNL     1      29.492  23.223  28.427  0.00  0.00    +0.000 A 
ATOM     10  C   UNL     1      26.430  23.698  30.553  0.00  0.00    +0.000 C 
ENDROOT
BRANCH   9  11
ATOM     11  C   UNL     1      30.132  23.379  27.072  0.00  0.00    +0.000 C 
ATOM     12  O   UNL     1      30.892  24.318  26.831  0.00  0.00    +0.000 OA
ATOM     13  N   UNL     1      29.889  22.456  26.026  0.00  0.00    +0.000 NA
BRANCH  13  14
ATOM     14  C   UNL     1      30.440  22.512  24.721  0.00  0.00    +0.000 C 
BRANCH  14  15
ATOM     15  C   UNL     1      29.543  23.158  23.724  0.00  0.00    +0.000 A 
ATOM     16  C   UNL     1      28.163  23.135  23.859  0.00  0.00    +0.000 A 
ATOM     17  C   UNL     1      27.627  23.808  22.792  0.00  0.00    +0.000 A 
ATOM     18  C   UNL     1      28.721  24.223  22.033  0.00  0.00    +0.000 A 
ATOM     19  O   UNL     1      29.805  23.808  22.637  0.00  0.00    +0.000 OA
ENDBRANCH  14  15
ENDBRANCH  13  14
ENDBRANCH   9  11
BRANCH   1  21
ATOM     20  C   UNL     1      26.603  26.973  30.540  0.00  0.00    +0.000 C 
ATOM     21  C   UNL     1      27.023  25.838  29.596  0.00  0.00    +0.000 C 
ENDBRANCH   1  21
TORSDOF 4
ENDMDL
MODEL 6
REMARK VINA RESULT:      -5.4     21.462     23.899
REMARK  Name = 
REMARK  4 active torsions:
REMARK  status: ('A' for Active; 'I' for Inactive)
REMARK    1  A    between atoms: C_2  and  C_3
REMARK    2  A    between atoms: C_11  and  C_12
REMARK    3  A    between atoms: N_14  and  C_15
REMARK    4  A    between atoms: C_15  and  C_16
REMARK                            x       y       z     vdW  Elec       q    Type
REMARK                         _______ _______ _______ _____ _____    ______ ____
ROOT
ATOM      1  C   UNL     1      10.067 -10.372  27.252  0.00  0.00    +0.000 C 
ATOM      2  C   UNL     1      11.263  -9.575  28.029  0.00  0.00    +0.000 C 
ATOM      3  C   UNL     1      12.549  -9.847  27.465  0.00  0.00    +0.000 C 
ATOM      4  C   UNL     1      12.557  -9.303  26.032  0.00  0.00    +0.000 A 
ATOM      5  C   UNL     1      11.351  -9.088  25.512  0.00  0.00    +0.000 A 
ATOM      6  S   UNL     1      11.712  -8.502  23.938  0.00  0.00    +0.000 S 
ATOM      7  C   UNL     1      13.407  -8.556  24.004  0.00  0.00    +0.000 A 
ATOM      8  N   UNL     1      14.386  -8.195  22.995  0.00  0.00    +0.000 NA
ATOM      9  C   UNL     1      13.662  -9.034  25.265  0.00  0.00    +0.000 A 
ATOM     10  C   UNL     1       9.996  -9.265  26.058  0.00  0.00    +0.000 C 
ENDROOT
BRANCH   9  11
ATOM     11  C   UNL     1      15.077  -9.238  25.739  0.00  0.00    +0.000 C 
ATOM     12  O   UNL     1      15.592 -10.357  25.743  0.00  0.00    +0.000 OA
ATOM     13  N   UNL     1      15.870  -8.156  26.194  0.00  0.00    +0.000 NA
BRANCH  13  14
ATOM     14  C   UNL     1      17.207  -8.241  26.658  0.00  0.00    +0.000 C 
BRANCH  14  15
ATOM     15  C   UNL     1      17.962  -6.964  26.532  0.00  0.00    +0.000 A 
ATOM     16  C   UNL     1      19.195  -6.903  25.901  0.00  0.00    +0.000 A 
ATOM     17  C   UNL     1      19.625  -5.602  25.950  0.00  0.00    +0.000 A 
ATOM     18  C   UNL     1      18.620  -4.908  26.623  0.00  0.00    +0.000 A 
ATOM     19  O   UNL     1      17.682  -5.767  26.933  0.00  0.00    +0.000 OA
ENDBRANCH  14  15
ENDBRANCH  13  14
ENDBRANCH   9  11
BRANCH   1  21
ATOM     20  C   UNL     1       9.968 -12.576  26.206  0.00  0.00    +0.000 C 
ATOM     21  C   UNL     1      10.982 -11.442  26.415  0.00  0.00    +0.000 C 
ENDBRANCH   1  21
TORSDOF 4
ENDMDL
MODEL 7
REMARK VINA RESULT:      -5.4      3.856      6.998
REMARK  Name = 
REMARK  4 active torsions:
REMARK  status: ('A' for Active; 'I' for Inactive)
REMARK    1  A    between atoms: C_2  and  C_3
REMARK    2  A    between atoms: C_11  and  C_12
REMARK    3  A    between atoms: N_14  and  C_15
REMARK    4  A    between atoms: C_15  and  C_16
REMARK                            x       y       z     vdW  Elec       q    Type
REMARK                         _______ _______ _______ _____ _____    ______ ____
ROOT
ATOM      1  C   UNL     1      16.225  11.679  36.053  0.00  0.00    +0.000 C 
ATOM      2  C   UNL     1      15.650  11.262  37.524  0.00  0.00    +0.000 C 
ATOM      3  C   UNL     1      16.429  10.229  38.136  0.00  0.00    +0.000 C 
ATOM      4  C   UNL     1      17.833  10.787  38.388  0.00  0.00    +0.000 A 
ATOM      5  C   UNL     1      18.138  11.869  37.676  0.00  0.00    +0.000 A 
ATOM      6  S   UNL     1      19.740  12.221  38.182  0.00  0.00    +0.000 S 
ATOM      7  C   UNL     1      19.964  10.960  39.295  0.00  0.00    +0.000 A 
ATOM      8  N   UNL     1      21.119  10.640  40.115  0.00  0.00    +0.000 NA
ATOM      9  C   UNL     1      18.772  10.281  39.250  0.00  0.00    +0.000 A 
ATOM     10  C   UNL     1      17.373  12.647  36.688  0.00  0.00    +0.000 C 
ENDROOT
BRANCH   9  11
ATOM     11  C   UNL     1      18.548   9.063  40.108  0.00  0.00    +0.000 C 
ATOM     12  O   UNL     1      18.198   9.168  41.284  0.00  0.00    +0.000 OA
ATOM     13  N   UNL     1      18.730   7.753  39.599  0.00  0.00    +0.000 NA
BRANCH  13  14
ATOM     14  C   UNL     1      18.545   6.547  40.320  0.00  0.00    +0.000 C 
BRANCH  14  15
ATOM     15  C   UNL     1      19.774   5.710  40.402  0.00  0.00    +0.000 A 
ATOM     16  C   UNL     1      19.760   4.359  40.093  0.00  0.00    +0.000 A 
ATOM     17  C   UNL     1      21.032   3.877  40.265  0.00  0.00    +0.000 A 
ATOM     18  C   UNL     1      21.787   4.973  40.681  0.00  0.00    +0.000 A 
ATOM     19  O   UNL     1      20.986   6.008  40.739  0.00  0.00    +0.000 OA
ENDBRANCH  14  15
ENDBRANCH  13  14
ENDBRANCH   9  11
BRANCH   1  21
ATOM     20  C   UNL     1      17.383  10.468  34.278  0.00  0.00    +0.000 C 
ATOM     21  C   UNL     1      17.222  10.403  35.803  0.00  0.00    +0.000 C 
ENDBRANCH   1  21
TORSDOF 4
ENDMDL
MODEL 8
REMARK VINA RESULT:      -5.4      3.551      6.783
REMARK  Name = 
REMARK  4 active torsions:
REMARK  status: ('A' for Active; 'I' for Inactive)
REMARK    1  A    between atoms: C_2  and  C_3
REMARK    2  A    between atoms: C_11  and  C_12
REMARK    3  A    between atoms: N_14  and  C_15
REMARK    4  A    between atoms: C_15  and  C_16
REMARK                            x       y       z     vdW  Elec       q    Type
REMARK                         _______ _______ _______ _____ _____    ______ ____
ROOT
ATOM      1  C   UNL     1      17.222   8.401  41.861  0.00  0.00    +0.000 C 
ATOM      2  C   UNL     1      18.392   9.541  41.856  0.00  0.00    +0.000 C 
ATOM      3  C   UNL     1      19.088   9.598  40.608  0.00  0.00    +0.000 C 
ATOM      4  C   UNL     1      18.087  10.033  39.532  0.00  0.00    +0.000 A 
ATOM      5  C   UNL     1      16.809   9.878  39.867  0.00  0.00    +0.000 A 
ATOM      6  S   UNL     1      15.978  10.442  38.473  0.00  0.00    +0.000 S 
ATOM      7  C   UNL     1      17.309  10.857  37.506  0.00  0.00    +0.000 A 
ATOM      8  N   UNL     1      17.343  11.410  36.164  0.00  0.00    +0.000 NA
ATOM      9  C   UNL     1      18.387  10.546  38.296  0.00  0.00    +0.000 A 
ATOM     10  C   UNL     1      16.163   9.371  41.089  0.00  0.00    +0.000 C 
ENDROOT
BRANCH   9  11
ATOM     11  C   UNL     1      19.792  10.767  37.801  0.00  0.00    +0.000 C 
ATOM     12  O   UNL     1      20.388  11.822  38.026  0.00  0.00    +0.000 OA
ATOM     13  N   UNL     1      20.484   9.776  37.062  0.00  0.00    +0.000 NA
BRANCH  13  14
ATOM     14  C   UNL     1      21.802   9.884  36.554  0.00  0.00    +0.000 C 
BRANCH  14  15
ATOM     15  C   UNL     1      22.845   9.389  37.495  0.00  0.00    +0.000 A 
ATOM     16  C   UNL     1      24.182   9.320  37.135  0.00  0.00    +0.000 A 
ATOM     17  C   UNL     1      24.878   8.828  38.207  0.00  0.00    +0.000 A 
ATOM     18  C   UNL     1      23.922   8.610  39.199  0.00  0.00    +0.000 A 
ATOM     19  O   UNL     1      22.758   8.959  38.711  0.00  0.00    +0.000 OA
ENDBRANCH  14  15
ENDBRANCH  13  14
ENDBRANCH   9  11
BRANCH   1  21
ATOM     20  C   UNL     1      17.431   6.130  40.988  0.00  0.00    +0.000 C 
ATOM     21  C   UNL     1      17.675   7.573  40.522  0.00  0.00    +0.000 C 
ENDBRANCH   1  21
TORSDOF 4
ENDMDL
MODEL 9
REMARK VINA RESULT:      -5.4     17.638     19.097
REMARK  Name = 
REMARK  4 active torsions:
REMARK  status: ('A' for Active; 'I' for Inactive)
REMARK    1  A    between atoms: C_2  and  C_3
REMARK    2  A    between atoms: C_11  and  C_12
REMARK    3  A    between atoms: N_14  and  C_15
REMARK    4  A    between atoms: C_15  and  C_16
REMARK                            x       y       z     vdW  Elec       q    Type
REMARK                         _______ _______ _______ _____ _____    ______ ____
ROOT
ATOM      1  C   UNL     1      26.490  24.358  30.697  0.00  0.00    +0.000 C 
ATOM      2  C   UNL     1      27.624  25.120  29.801  0.00  0.00    +0.000 C 
ATOM      3  C   UNL     1      27.567  24.744  28.422  0.00  0.00    +0.000 C 
ATOM      4  C   UNL     1      26.219  25.213  27.864  0.00  0.00    +0.000 A 
ATOM      5  C   UNL     1      25.296  25.474  28.785  0.00  0.00    +0.000 A 
ATOM      6  S   UNL     1      23.942  25.957  27.845  0.00  0.00    +0.000 S 
ATOM      7  C   UNL     1      24.613  25.805  26.294  0.00  0.00    +0.000 A 
ATOM      8  N   UNL     1      24.014  26.056  24.996  0.00  0.00    +0.000 NA
ATOM      9  C   UNL     1      25.894  25.377  26.542  0.00  0.00    +0.000 A 
ATOM     10  C   UNL     1      25.322  25.406  30.256  0.00  0.00    +0.000 C 
ENDROOT
BRANCH   9  11
ATOM     11  C   UNL     1      26.849  25.113  25.407  0.00  0.00    +0.000 C 
ATOM     12  O   UNL     1      27.422  26.039  24.830  0.00  0.00    +0.000 OA
ATOM     13  N   UNL     1      27.127  23.798  24.961  0.00  0.00    +0.000 NA
BRANCH  13  14
ATOM     14  C   UNL     1      28.007  23.445  23.907  0.00  0.00    +0.000 C 
BRANCH  14  15
ATOM     15  C   UNL     1      29.413  23.235  24.352  0.00  0.00    +0.000 A 
ATOM     16  C   UNL     1      29.716  22.767  25.621  0.00  0.00    +0.000 A 
ATOM     17  C   UNL     1      31.081  22.683  25.720  0.00  0.00    +0.000 A 
ATOM     18  C   UNL     1      31.566  23.111  24.485  0.00  0.00    +0.000 A 
ATOM     19  O   UNL     1      30.536  23.417  23.737  0.00  0.00    +0.000 OA
ENDBRANCH  14  15
ENDBRANCH  13  14
ENDBRANCH   9  11
BRANCH   1  21
ATOM     20  C   UNL     1      26.429  21.933  30.421  0.00  0.00    +0.000 C 
ATOM     21  C   UNL     1      26.065  23.194  29.625  0.00  0.00    +0.000 C 
ENDBRANCH   1  21
TORSDOF 4
ENDMDL
MODEL 10
REMARK VINA RESULT:      -5.3     18.102     19.390
REMARK  Name = 
REMARK  4 active torsions:
REMARK  status: ('A' for Active; 'I' for Inactive)
REMARK    1  A    between atoms: C_2  and  C_3
REMARK    2  A    between atoms: C_11  and  C_12
REMARK    3  A    between atoms: N_14  and  C_15
REMARK    4  A    between atoms: C_15  and  C_16
REMARK                            x       y       z     vdW  Elec       q    Type
REMARK                         _______ _______ _______ _____ _____    ______ ____
ROOT
ATOM      1  C   UNL     1      32.162  24.052  25.900  0.00  0.00    +0.000 C 
ATOM      2  C   UNL     1      31.126  22.910  26.442  0.00  0.00    +0.000 C 
ATOM      3  C   UNL     1      29.771  23.369  26.452  0.00  0.00    +0.000 C 
ATOM      4  C   UNL     1      29.358  23.643  25.002  0.00  0.00    +0.000 A 
ATOM      5  C   UNL     1      30.372  23.787  24.152  0.00  0.00    +0.000 A 
ATOM      6  S   UNL     1      29.580  24.080  22.657  0.00  0.00    +0.000 S 
ATOM      7  C   UNL     1      27.967  24.008  23.178  0.00  0.00    +0.000 A 
ATOM      8  N   UNL     1      26.739  24.171  22.421  0.00  0.00    +0.000 NA
ATOM      9  C   UNL     1      28.078  23.754  24.523  0.00  0.00    +0.000 A 
ATOM     10  C   UNL     1      31.831  23.724  24.338  0.00  0.00    +0.000 C 
ENDROOT
BRANCH   9  11
ATOM     11  C   UNL     1      26.849  23.614  25.383  0.00  0.00    +0.000 C 
ATOM     12  O   UNL     1      26.228  22.551  25.437  0.00  0.00    +0.000 OA
ATOM     13  N   UNL     1      26.360  24.692  26.161  0.00  0.00    +0.000 NA
BRANCH  13  14
ATOM     14  C   UNL     1      25.218  24.663  27.000  0.00  0.00    +0.000 C 
BRANCH  14  15
ATOM     15  C   UNL     1      25.543  24.468  28.440  0.00  0.00    +0.000 A 
ATOM     16  C   UNL     1      25.295  25.452  29.384  0.00  0.00    +0.000 A 
ATOM     17  C   UNL     1      25.701  24.973  30.603  0.00  0.00    +0.000 A 
ATOM     18  C   UNL     1      26.191  23.692  30.350  0.00  0.00    +0.000 A 
ATOM     19  O   UNL     1      26.067  23.466  29.066  0.00  0.00    +0.000 OA
ENDBRANCH  14  15
ENDBRANCH  13  14
ENDBRANCH   9  11
BRANCH   1  21
ATOM     20  C   UNL     1      32.182  26.490  25.789  0.00  0.00    +0.000 C 
ATOM     21  C   UNL     1      31.171  25.353  25.997  0.00  0.00    +0.000 C 
ENDBRANCH   1  21
TORSDOF 4
ENDMDL
