MODEL 1
REMARK VINA RESULT:      -8.5      0.000      0.000
REMARK  Name = 
REMARK  7 active torsions:
REMARK  status: ('A' for Active; 'I' for Inactive)
REMARK    1  A    between atoms: C_3  and  C_4
REMARK    2  A    between atoms: N_6  and  C_7
REMARK    3  A    between atoms: C_7  and  C_9
REMARK    4  A    between atoms: C_9  and  C_10
REMARK    5  A    between atoms: C_10  and  C_11
REMARK    6  A    between atoms: N_24  and  C_25
REMARK    7  A    between atoms: C_25  and  C_26
REMARK                            x       y       z     vdW  Elec       q    Type
REMARK                         _______ _______ _______ _____ _____    ______ ____
ROOT
ATOM      1  C   UNL     1      35.589   0.264  16.226  0.00  0.00    +0.000 C 
ATOM      2  C   UNL     1      36.873  -0.420  15.948  0.00  0.00    +0.000 A 
ATOM      3  C   UNL     1      37.905   0.152  15.244  0.00  0.00    +0.000 A 
ATOM      4  C   UNL     1      38.884  -0.828  15.226  0.00  0.00    +0.000 A 
ATOM      5  C   UNL     1      40.125  -0.792  14.656  0.00  0.00    +0.000 A 
ATOM      6  C   UNL     1      40.948  -1.868  14.749  0.00  0.00    +0.000 A 
ATOM      7  O   UNL     1      42.221  -1.823  14.160  0.00  0.00    +0.000 OA
ATOM      8  C   UNL     1      40.531  -2.990  15.415  0.00  0.00    +0.000 A 
ATOM      9  C   UNL     1      39.256  -3.016  15.996  0.00  0.00    +0.000 A 
ATOM     10  C   UNL     1      38.406  -1.934  15.914  0.00  0.00    +0.000 A 
ATOM     11  N   UNL     1      37.163  -1.656  16.348  0.00  0.00    +0.000 N 
ENDROOT
BRANCH   3  12
ATOM     12  C   UNL     1      38.013   1.487  14.643  0.00  0.00    +0.000 C 
ATOM     13  O   UNL     1      37.891   1.658  13.408  0.00  0.00    +0.000 OA
ATOM     14  N   UNL     1      38.256   2.559  15.475  0.00  0.00    +0.000 NA
BRANCH  14  15
ATOM     15  C   UNL     1      38.409   4.011  15.017  0.00  0.00    +0.000 C 
ATOM     16  C   UNL     1      36.849   4.428  15.137  0.00  0.00    +0.000 C 
BRANCH  15  17
ATOM     17  C   UNL     1      38.825   4.611  16.467  0.00  0.00    +0.000 C 
BRANCH  17  18
ATOM     18  C   UNL     1      39.902   5.643  16.239  0.00  0.00    +0.000 C 
BRANCH  18  19
ATOM     19  C   UNL     1      40.481   6.003  17.554  0.00  0.00    +0.000 A 
ATOM     20  C   UNL     1      41.789   6.403  17.669  0.00  0.00    +0.000 A 
ATOM     21  C   UNL     1      42.388   6.761  18.855  0.00  0.00    +0.000 A 
ATOM     22  C   UNL     1      41.639   6.720  20.006  0.00  0.00    +0.000 A 
ATOM     23  C   UNL     1      40.326   6.323  19.926  0.00  0.00    +0.000 A 
ATOM     24  C   UNL     1      39.737   5.965  18.719  0.00  0.00    +0.000 A 
ENDBRANCH  18  19
ENDBRANCH  17  18
ENDBRANCH  15  17
ENDBRANCH  14  15
ENDBRANCH   3  12
BRANCH  11  25
ATOM     25  C   UNL     1      36.329  -2.538  17.125  0.00  0.00    +0.000 C 
BRANCH  25  26
ATOM     26  C   UNL     1      35.669  -3.611  16.362  0.00  0.00    +0.000 A 
ATOM     27  C   UNL     1      34.523  -3.335  15.596  0.00  0.00    +0.000 A 
ATOM     28  C   UNL     1      34.147  -4.522  15.012  0.00  0.00    +0.000 A 
ATOM     29  C   UNL     1      35.042  -5.459  15.423  0.00  0.00    +0.000 A 
ATOM     30  O   UNL     1      35.902  -4.860  16.207  0.00  0.00    +0.000 OA
ENDBRANCH  25  26
ENDBRANCH  11  25
TORSDOF 7
ENDMDL
MODEL 2
REMARK VINA RESULT:      -8.2      1.631      2.282
REMARK  Name = 
REMARK  7 active torsions:
REMARK  status: ('A' for Active; 'I' for Inactive)
REMARK    1  A    between atoms: C_3  and  C_4
REMARK    2  A    between atoms: N_6  and  C_7
REMARK    3  A    between atoms: C_7  and  C_9
REMARK    4  A    between atoms: C_9  and  C_10
REMARK    5  A    between atoms: C_10  and  C_11
REMARK    6  A    between atoms: N_24  and  C_25
REMARK    7  A    between atoms: C_25  and  C_26
REMARK                            x       y       z     vdW  Elec       q    Type
REMARK                         _______ _______ _______ _____ _____    ______ ____
ROOT
ATOM      1  C   UNL     1      36.102  -1.071  15.871  0.00  0.00    +0.000 C 
ATOM      2  C   UNL     1      37.533  -1.123  15.494  0.00  0.00    +0.000 A 
ATOM      3  C   UNL     1      38.221  -0.060  14.959  0.00  0.00    +0.000 A 
ATOM      4  C   UNL     1      39.502  -0.552  14.765  0.00  0.00    +0.000 A 
ATOM      5  C   UNL     1      40.597   0.085  14.254  0.00  0.00    +0.000 A 
ATOM      6  C   UNL     1      41.778  -0.577  14.143  0.00  0.00    +0.000 A 
ATOM      7  O   UNL     1      42.898   0.084  13.616  0.00  0.00    +0.000 OA
ATOM      8  C   UNL     1      41.868  -1.884  14.543  0.00  0.00    +0.000 A 
ATOM      9  C   UNL     1      40.738  -2.526  15.067  0.00  0.00    +0.000 A 
ATOM     10  C   UNL     1      39.530  -1.873  15.189  0.00  0.00    +0.000 A 
ATOM     11  N   UNL     1      38.304  -2.200  15.634  0.00  0.00    +0.000 N 
ENDROOT
BRANCH   3  12
ATOM     12  C   UNL     1      37.768   1.302  14.657  0.00  0.00    +0.000 C 
ATOM     13  O   UNL     1      37.292   1.599  13.537  0.00  0.00    +0.000 OA
ATOM     14  N   UNL     1      37.879   2.260  15.642  0.00  0.00    +0.000 NA
BRANCH  14  15
ATOM     15  C   UNL     1      37.467   3.727  15.495  0.00  0.00    +0.000 C 
ATOM     16  C   UNL     1      36.016   3.603  16.201  0.00  0.00    +0.000 C 
BRANCH  15  17
ATOM     17  C   UNL     1      38.227   4.259  16.827  0.00  0.00    +0.000 C 
BRANCH  17  18
ATOM     18  C   UNL     1      39.427   5.055  16.379  0.00  0.00    +0.000 C 
BRANCH  18  19
ATOM     19  C   UNL     1      40.016   5.711  17.569  0.00  0.00    +0.000 A 
ATOM     20  C   UNL     1      41.281   6.244  17.533  0.00  0.00    +0.000 A 
ATOM     21  C   UNL     1      41.885   6.875  18.596  0.00  0.00    +0.000 A 
ATOM     22  C   UNL     1      41.189   6.985  19.775  0.00  0.00    +0.000 A 
ATOM     23  C   UNL     1      39.921   6.461  19.844  0.00  0.00    +0.000 A 
ATOM     24  C   UNL     1      39.325   5.827  18.761  0.00  0.00    +0.000 A 
ENDBRANCH  18  19
ENDBRANCH  17  18
ENDBRANCH  15  17
ENDBRANCH  14  15
ENDBRANCH   3  12
BRANCH  11  25
ATOM     25  C   UNL     1      37.923  -3.478  16.181  0.00  0.00    +0.000 C 
BRANCH  25  26
ATOM     26  C   UNL     1      38.329  -3.708  17.578  0.00  0.00    +0.000 A 
ATOM     27  C   UNL     1      38.181  -2.691  18.537  0.00  0.00    +0.000 A 
ATOM     28  C   UNL     1      38.640  -3.204  19.727  0.00  0.00    +0.000 A 
ATOM     29  C   UNL     1      39.044  -4.478  19.472  0.00  0.00    +0.000 A 
ATOM     30  O   UNL     1      38.834  -4.706  18.201  0.00  0.00    +0.000 OA
ENDBRANCH  25  26
ENDBRANCH  11  25
TORSDOF 7
ENDMDL
MODEL 3
REMARK VINA RESULT:      -8.1      2.154      4.917
REMARK  Name = 
REMARK  7 active torsions:
REMARK  status: ('A' for Active; 'I' for Inactive)
REMARK    1  A    between atoms: C_3  and  C_4
REMARK    2  A    between atoms: N_6  and  C_7
REMARK    3  A    between atoms: C_7  and  C_9
REMARK    4  A    between atoms: C_9  and  C_10
REMARK    5  A    between atoms: C_10  and  C_11
REMARK    6  A    between atoms: N_24  and  C_25
REMARK    7  A    between atoms: C_25  and  C_26
REMARK                            x       y       z     vdW  Elec       q    Type
REMARK                         _______ _______ _______ _____ _____    ______ ____
ROOT
ATOM      1  C   UNL     1      40.490   1.234  12.791  0.00  0.00    +0.000 C 
ATOM      2  C   UNL     1      40.053   0.215  13.773  0.00  0.00    +0.000 A 
ATOM      3  C   UNL     1      38.931   0.343  14.557  0.00  0.00    +0.000 A 
ATOM      4  C   UNL     1      38.913  -0.820  15.310  0.00  0.00    +0.000 A 
ATOM      5  C   UNL     1      38.012  -1.214  16.258  0.00  0.00    +0.000 A 
ATOM      6  C   UNL     1      38.169  -2.405  16.892  0.00  0.00    +0.000 A 
ATOM      7  O   UNL     1      37.239  -2.802  17.865  0.00  0.00    +0.000 OA
ATOM      8  C   UNL     1      39.233  -3.209  16.580  0.00  0.00    +0.000 A 
ATOM      9  C   UNL     1      40.150  -2.795  15.605  0.00  0.00    +0.000 A 
ATOM     10  C   UNL     1      40.009  -1.590  14.949  0.00  0.00    +0.000 A 
ATOM     11  N   UNL     1      40.695  -0.929  14.000  0.00  0.00    +0.000 N 
ENDROOT
BRANCH   3  12
ATOM     12  C   UNL     1      37.939   1.423  14.618  0.00  0.00    +0.000 C 
ATOM     13  O   UNL     1      37.074   1.566  13.723  0.00  0.00    +0.000 OA
ATOM     14  N   UNL     1      37.981   2.287  15.691  0.00  0.00    +0.000 NA
BRANCH  14  15
ATOM     15  C   UNL     1      37.034   3.470  15.907  0.00  0.00    +0.000 C 
ATOM     16  C   UNL     1      35.840   2.647  16.626  0.00  0.00    +0.000 C 
BRANCH  15  17
ATOM     17  C   UNL     1      37.704   3.984  17.293  0.00  0.00    +0.000 C 
BRANCH  17  18
ATOM     18  C   UNL     1      38.818   4.935  16.934  0.00  0.00    +0.000 C 
BRANCH  18  19
ATOM     19  C   UNL     1      38.994   5.884  18.056  0.00  0.00    +0.000 A 
ATOM     20  C   UNL     1      38.158   6.962  18.213  0.00  0.00    +0.000 A 
ATOM     21  C   UNL     1      38.258   7.877  19.236  0.00  0.00    +0.000 A 
ATOM     22  C   UNL     1      39.253   7.713  20.168  0.00  0.00    +0.000 A 
ATOM     23  C   UNL     1      40.107   6.644  20.040  0.00  0.00    +0.000 A 
ATOM     24  C   UNL     1      39.993   5.729  19.000  0.00  0.00    +0.000 A 
ENDBRANCH  18  19
ENDBRANCH  17  18
ENDBRANCH  15  17
ENDBRANCH  14  15
ENDBRANCH   3  12
BRANCH  11  25
ATOM     25  C   UNL     1      41.888  -1.403  13.344  0.00  0.00    +0.000 C 
BRANCH  25  26
ATOM     26  C   UNL     1      43.130  -1.264  14.123  0.00  0.00    +0.000 A 
ATOM     27  C   UNL     1      43.707   0.002  14.320  0.00  0.00    +0.000 A 
ATOM     28  C   UNL     1      44.839  -0.196  15.074  0.00  0.00    +0.000 A 
ATOM     29  C   UNL     1      44.920  -1.533  15.312  0.00  0.00    +0.000 A 
ATOM     30  O   UNL     1      43.893  -2.095  14.729  0.00  0.00    +0.000 OA
ENDBRANCH  25  26
ENDBRANCH  11  25
TORSDOF 7
ENDMDL
MODEL 4
REMARK VINA RESULT:      -8.0      1.892      4.319
REMARK  Name = 
REMARK  7 active torsions:
REMARK  status: ('A' for Active; 'I' for Inactive)
REMARK    1  A    between atoms: C_3  and  C_4
REMARK    2  A    between atoms: N_6  and  C_7
REMARK    3  A    between atoms: C_7  and  C_9
REMARK    4  A    between atoms: C_9  and  C_10
REMARK    5  A    between atoms: C_10  and  C_11
REMARK    6  A    between atoms: N_24  and  C_25
REMARK    7  A    between atoms: C_25  and  C_26
REMARK                            x       y       z     vdW  Elec       q    Type
REMARK                         _______ _______ _______ _____ _____    ______ ____
ROOT
ATOM      1  C   UNL     1      41.167   0.768  13.466  0.00  0.00    +0.000 C 
ATOM      2  C   UNL     1      40.403  -0.203  14.282  0.00  0.00    +0.000 A 
ATOM      3  C   UNL     1      39.147   0.044  14.783  0.00  0.00    +0.000 A 
ATOM      4  C   UNL     1      38.826  -1.116  15.470  0.00  0.00    +0.000 A 
ATOM      5  C   UNL     1      37.688  -1.413  16.166  0.00  0.00    +0.000 A 
ATOM      6  C   UNL     1      37.561  -2.620  16.778  0.00  0.00    +0.000 A 
ATOM      7  O   UNL     1      36.390  -2.918  17.490  0.00  0.00    +0.000 OA
ATOM      8  C   UNL     1      38.577  -3.536  16.697  0.00  0.00    +0.000 A 
ATOM      9  C   UNL     1      39.739  -3.219  15.981  0.00  0.00    +0.000 A 
ATOM     10  C   UNL     1      39.887  -2.001  15.352  0.00  0.00    +0.000 A 
ATOM     11  N   UNL     1      40.846  -1.413  14.614  0.00  0.00    +0.000 N 
ENDROOT
BRANCH   3  12
ATOM     12  C   UNL     1      38.291   1.228  14.646  0.00  0.00    +0.000 C 
ATOM     13  O   UNL     1      37.330   1.249  13.842  0.00  0.00    +0.000 OA
ATOM     14  N   UNL     1      38.570   2.329  15.427  0.00  0.00    +0.000 NA
BRANCH  14  15
ATOM     15  C   UNL     1      37.789   3.645  15.404  0.00  0.00    +0.000 C 
ATOM     16  C   UNL     1      37.094   3.496  16.858  0.00  0.00    +0.000 C 
BRANCH  15  17
ATOM     17  C   UNL     1      39.007   4.583  15.926  0.00  0.00    +0.000 C 
BRANCH  17  18
ATOM     18  C   UNL     1      38.464   5.464  17.023  0.00  0.00    +0.000 C 
BRANCH  18  19
ATOM     19  C   UNL     1      39.595   5.875  17.887  0.00  0.00    +0.000 A 
ATOM     20  C   UNL     1      40.845   6.097  17.365  0.00  0.00    +0.000 A 
ATOM     21  C   UNL     1      41.935   6.490  18.106  0.00  0.00    +0.000 A 
ATOM     22  C   UNL     1      41.778   6.675  19.457  0.00  0.00    +0.000 A 
ATOM     23  C   UNL     1      40.539   6.461  20.012  0.00  0.00    +0.000 A 
ATOM     24  C   UNL     1      39.447   6.065  19.249  0.00  0.00    +0.000 A 
ENDBRANCH  18  19
ENDBRANCH  17  18
ENDBRANCH  15  17
ENDBRANCH  14  15
ENDBRANCH   3  12
BRANCH  11  25
ATOM     25  C   UNL     1      42.103  -2.013  14.242  0.00  0.00    +0.000 C 
BRANCH  25  26
ATOM     26  C   UNL     1      42.140  -2.611  12.897  0.00  0.00    +0.000 A 
ATOM     27  C   UNL     1      42.960  -2.060  11.897  0.00  0.00    +0.000 A 
ATOM     28  C   UNL     1      42.777  -2.829  10.772  0.00  0.00    +0.000 A 
ATOM     29  C   UNL     1      41.880  -3.796  11.103  0.00  0.00    +0.000 A 
ATOM     30  O   UNL     1      41.551  -3.610  12.356  0.00  0.00    +0.000 OA
ENDBRANCH  25  26
ENDBRANCH  11  25
TORSDOF 7
ENDMDL
MODEL 5
REMARK VINA RESULT:      -8.0      2.011      7.870
REMARK  Name = 
REMARK  7 active torsions:
REMARK  status: ('A' for Active; 'I' for Inactive)
REMARK    1  A    between atoms: C_3  and  C_4
REMARK    2  A    between atoms: N_6  and  C_7
REMARK    3  A    between atoms: C_7  and  C_9
REMARK    4  A    between atoms: C_9  and  C_10
REMARK    5  A    between atoms: C_10  and  C_11
REMARK    6  A    between atoms: N_24  and  C_25
REMARK    7  A    between atoms: C_25  and  C_26
REMARK                            x       y       z     vdW  Elec       q    Type
REMARK                         _______ _______ _______ _____ _____    ______ ____
ROOT
ATOM      1  C   UNL     1      39.689   3.442  13.865  0.00  0.00    +0.000 C 
ATOM      2  C   UNL     1      38.545   2.808  14.559  0.00  0.00    +0.000 A 
ATOM      3  C   UNL     1      38.267   1.463  14.499  0.00  0.00    +0.000 A 
ATOM      4  C   UNL     1      37.130   1.321  15.279  0.00  0.00    +0.000 A 
ATOM      5  C   UNL     1      36.422   0.188  15.563  0.00  0.00    +0.000 A 
ATOM      6  C   UNL     1      35.322   0.255  16.358  0.00  0.00    +0.000 A 
ATOM      7  O   UNL     1      34.600  -0.914  16.644  0.00  0.00    +0.000 OA
ATOM      8  C   UNL     1      34.925   1.460  16.873  0.00  0.00    +0.000 A 
ATOM      9  C   UNL     1      35.660   2.615  16.575  0.00  0.00    +0.000 A 
ATOM     10  C   UNL     1      36.779   2.569  15.771  0.00  0.00    +0.000 A 
ATOM     11  N   UNL     1      37.668   3.468  15.312  0.00  0.00    +0.000 N 
ENDROOT
BRANCH   3  12
ATOM     12  C   UNL     1      38.975   0.382  13.805  0.00  0.00    +0.000 C 
ATOM     13  O   UNL     1      38.469  -0.203  12.820  0.00  0.00    +0.000 OA
ATOM     14  N   UNL     1      40.223   0.019  14.266  0.00  0.00    +0.000 NA
BRANCH  14  15
ATOM     15  C   UNL     1      41.093  -1.091  13.670  0.00  0.00    +0.000 C 
ATOM     16  C   UNL     1      42.525  -0.498  14.134  0.00  0.00    +0.000 C 
BRANCH  15  17
ATOM     17  C   UNL     1      40.954  -2.116  14.921  0.00  0.00    +0.000 C 
BRANCH  17  18
ATOM     18  C   UNL     1      39.824  -3.065  14.608  0.00  0.00    +0.000 C 
BRANCH  18  19
ATOM     19  C   UNL     1      38.848  -3.003  15.719  0.00  0.00    +0.000 A 
ATOM     20  C   UNL     1      39.078  -2.223  16.826  0.00  0.00    +0.000 A 
ATOM     21  C   UNL     1      38.212  -2.110  17.888  0.00  0.00    +0.000 A 
ATOM     22  C   UNL     1      37.036  -2.819  17.853  0.00  0.00    +0.000 A 
ATOM     23  C   UNL     1      36.774  -3.610  16.760  0.00  0.00    +0.000 A 
ATOM     24  C   UNL     1      37.661  -3.712  15.695  0.00  0.00    +0.000 A 
ENDBRANCH  18  19
ENDBRANCH  17  18
ENDBRANCH  15  17
ENDBRANCH  14  15
ENDBRANCH   3  12
BRANCH  11  25
ATOM     25  C   UNL     1      37.667   4.878  15.614  0.00  0.00    +0.000 C 
BRANCH  25  26
ATOM     26  C   UNL     1      38.634   5.301  16.641  0.00  0.00    +0.000 A 
ATOM     27  C   UNL     1      38.501   4.855  17.967  0.00  0.00    +0.000 A 
ATOM     28  C   UNL     1      39.539   5.413  18.675  0.00  0.00    +0.000 A 
ATOM     29  C   UNL     1      40.255   6.160  17.792  0.00  0.00    +0.000 A 
ATOM     30  O   UNL     1      39.672   6.049  16.626  0.00  0.00    +0.000 OA
ENDBRANCH  25  26
ENDBRANCH  11  25
TORSDOF 7
ENDMDL
MODEL 6
REMARK VINA RESULT:      -7.6     25.173     28.508
REMARK  Name = 
REMARK  7 active torsions:
REMARK  status: ('A' for Active; 'I' for Inactive)
REMARK    1  A    between atoms: C_3  and  C_4
REMARK    2  A    between atoms: N_6  and  C_7
REMARK    3  A    between atoms: C_7  and  C_9
REMARK    4  A    between atoms: C_9  and  C_10
REMARK    5  A    between atoms: C_10  and  C_11
REMARK    6  A    between atoms: N_24  and  C_25
REMARK    7  A    between atoms: C_25  and  C_26
REMARK                            x       y       z     vdW  Elec       q    Type
REMARK                         _______ _______ _______ _____ _____    ______ ____
ROOT
ATOM      1  C   UNL     1      29.921  15.260  40.214  0.00  0.00    +0.000 C 
ATOM      2  C   UNL     1      29.432  13.871  40.380  0.00  0.00    +0.000 A 
ATOM      3  C   UNL     1      28.105  13.540  40.508  0.00  0.00    +0.000 A 
ATOM      4  C   UNL     1      28.114  12.160  40.638  0.00  0.00    +0.000 A 
ATOM      5  C   UNL     1      27.059  11.307  40.798  0.00  0.00    +0.000 A 
ATOM      6  C   UNL     1      27.277   9.970  40.909  0.00  0.00    +0.000 A 
ATOM      7  O   UNL     1      26.188   9.100  41.072  0.00  0.00    +0.000 OA
ATOM      8  C   UNL     1      28.555   9.481  40.861  0.00  0.00    +0.000 A 
ATOM      9  C   UNL     1      29.629  10.366  40.697  0.00  0.00    +0.000 A 
ATOM     10  C   UNL     1      29.430  11.726  40.582  0.00  0.00    +0.000 A 
ATOM     11  N   UNL     1      30.223  12.801  40.422  0.00  0.00    +0.000 N 
ENDROOT
BRANCH   3  12
ATOM     12  C   UNL     1      26.912  14.395  40.499  0.00  0.00    +0.000 C 
ATOM     13  O   UNL     1      26.329  14.713  41.561  0.00  0.00    +0.000 OA
ATOM     14  N   UNL     1      26.441  14.845  39.284  0.00  0.00    +0.000 NA
BRANCH  14  15
ATOM     15  C   UNL     1      25.209  15.732  39.091  0.00  0.00    +0.000 C 
ATOM     16  C   UNL     1      25.998  17.114  38.794  0.00  0.00    +0.000 C 
BRANCH  15  17
ATOM     17  C   UNL     1      24.972  15.368  37.527  0.00  0.00    +0.000 C 
BRANCH  17  18
ATOM     18  C   UNL     1      25.774  16.346  36.705  0.00  0.00    +0.000 C 
BRANCH  18  19
ATOM     19  C   UNL     1      25.573  16.020  35.275  0.00  0.00    +0.000 A 
ATOM     20  C   UNL     1      25.095  16.957  34.393  0.00  0.00    +0.000 A 
ATOM     21  C   UNL     1      24.894  16.726  33.051  0.00  0.00    +0.000 A 
ATOM     22  C   UNL     1      25.187  15.482  32.549  0.00  0.00    +0.000 A 
ATOM     23  C   UNL     1      25.667  14.521  33.405  0.00  0.00    +0.000 A 
ATOM     24  C   UNL     1      25.865  14.771  34.758  0.00  0.00    +0.000 A 
ENDBRANCH  18  19
ENDBRANCH  17  18
ENDBRANCH  15  17
ENDBRANCH  14  15
ENDBRANCH   3  12
BRANCH  11  25
ATOM     25  C   UNL     1      31.658  12.773  40.296  0.00  0.00    +0.000 C 
BRANCH  25  26
ATOM     26  C   UNL     1      32.164  12.448  38.951  0.00  0.00    +0.000 A 
ATOM     27  C   UNL     1      31.532  12.972  37.810  0.00  0.00    +0.000 A 
ATOM     28  C   UNL     1      32.226  12.494  36.724  0.00  0.00    +0.000 A 
ATOM     29  C   UNL     1      33.230  11.717  37.213  0.00  0.00    +0.000 A 
ATOM     30  O   UNL     1      33.135  11.735  38.518  0.00  0.00    +0.000 OA
ENDBRANCH  25  26
ENDBRANCH  11  25
TORSDOF 7
ENDMDL
MODEL 7
REMARK VINA RESULT:      -7.5      3.266      6.125
REMARK  Name = 
REMARK  7 active torsions:
REMARK  status: ('A' for Active; 'I' for Inactive)
REMARK    1  A    between atoms: C_3  and  C_4
REMARK    2  A    between atoms: N_6  and  C_7
REMARK    3  A    between atoms: C_7  and  C_9
REMARK    4  A    between atoms: C_9  and  C_10
REMARK    5  A    between atoms: C_10  and  C_11
REMARK    6  A    between atoms: N_24  and  C_25
REMARK    7  A    between atoms: C_25  and  C_26
REMARK                            x       y       z     vdW  Elec       q    Type
REMARK                         _______ _______ _______ _____ _____    ______ ____
ROOT
ATOM      1  C   UNL     1      40.009  -3.065  15.831  0.00  0.00    +0.000 C 
ATOM      2  C   UNL     1      39.837  -1.844  15.010  0.00  0.00    +0.000 A 
ATOM      3  C   UNL     1      38.678  -1.106  14.976  0.00  0.00    +0.000 A 
ATOM      4  C   UNL     1      38.963  -0.076  14.093  0.00  0.00    +0.000 A 
ATOM      5  C   UNL     1      38.160   0.952  13.687  0.00  0.00    +0.000 A 
ATOM      6  C   UNL     1      38.628   1.873  12.805  0.00  0.00    +0.000 A 
ATOM      7  O   UNL     1      37.797   2.926  12.392  0.00  0.00    +0.000 OA
ATOM      8  C   UNL     1      39.906   1.768  12.323  0.00  0.00    +0.000 A 
ATOM      9  C   UNL     1      40.720   0.709  12.747  0.00  0.00    +0.000 A 
ATOM     10  C   UNL     1      40.265  -0.236  13.642  0.00  0.00    +0.000 A 
ATOM     11  N   UNL     1      40.781  -1.334  14.223  0.00  0.00    +0.000 N 
ENDROOT
BRANCH   3  12
ATOM     12  C   UNL     1      37.412  -1.299  15.692  0.00  0.00    +0.000 C 
ATOM     13  O   UNL     1      36.441  -1.882  15.157  0.00  0.00    +0.000 OA
ATOM     14  N   UNL     1      37.313  -0.821  16.981  0.00  0.00    +0.000 NA
BRANCH  14  15
ATOM     15  C   UNL     1      36.068  -0.926  17.866  0.00  0.00    +0.000 C 
ATOM     16  C   UNL     1      36.836  -1.034  19.286  0.00  0.00    +0.000 C 
BRANCH  15  17
ATOM     17  C   UNL     1      35.793   0.670  17.976  0.00  0.00    +0.000 C 
BRANCH  17  18
ATOM     18  C   UNL     1      34.857   1.048  16.855  0.00  0.00    +0.000 C 
BRANCH  18  19
ATOM     19  C   UNL     1      35.399   2.254  16.189  0.00  0.00    +0.000 A 
ATOM     20  C   UNL     1      36.637   2.750  16.514  0.00  0.00    +0.000 A 
ATOM     21  C   UNL     1      37.205   3.859  15.929  0.00  0.00    +0.000 A 
ATOM     22  C   UNL     1      36.499   4.522  14.956  0.00  0.00    +0.000 A 
ATOM     23  C   UNL     1      35.255   4.052  14.608  0.00  0.00    +0.000 A 
ATOM     24  C   UNL     1      34.696   2.930  15.208  0.00  0.00    +0.000 A 
ENDBRANCH  18  19
ENDBRANCH  17  18
ENDBRANCH  15  17
ENDBRANCH  14  15
ENDBRANCH   3  12
BRANCH  11  25
ATOM     25  C   UNL     1      42.120  -1.831  14.034  0.00  0.00    +0.000 C 
BRANCH  25  26
ATOM     26  C   UNL     1      42.331  -2.615  12.805  0.00  0.00    +0.000 A 
ATOM     27  C   UNL     1      43.630  -2.816  12.306  0.00  0.00    +0.000 A 
ATOM     28  C   UNL     1      43.499  -3.574  11.167  0.00  0.00    +0.000 A 
ATOM     29  C   UNL     1      42.168  -3.808  11.005  0.00  0.00    +0.000 A 
ATOM     30  O   UNL     1      41.547  -3.221  11.996  0.00  0.00    +0.000 OA
ENDBRANCH  25  26
ENDBRANCH  11  25
TORSDOF 7
ENDMDL
MODEL 8
REMARK VINA RESULT:      -7.3      3.757      6.588
REMARK  Name = 
REMARK  7 active torsions:
REMARK  status: ('A' for Active; 'I' for Inactive)
REMARK    1  A    between atoms: C_3  and  C_4
REMARK    2  A    between atoms: N_6  and  C_7
REMARK    3  A    between atoms: C_7  and  C_9
REMARK    4  A    between atoms: C_9  and  C_10
REMARK    5  A    between atoms: C_10  and  C_11
REMARK    6  A    between atoms: N_24  and  C_25
REMARK    7  A    between atoms: C_25  and  C_26
REMARK                            x       y       z     vdW  Elec       q    Type
REMARK                         _______ _______ _______ _____ _____    ______ ____
ROOT
ATOM      1  C   UNL     1      40.039  -3.241  15.893  0.00  0.00    +0.000 C 
ATOM      2  C   UNL     1      39.603  -2.392  14.761  0.00  0.00    +0.000 A 
ATOM      3  C   UNL     1      38.354  -1.824  14.669  0.00  0.00    +0.000 A 
ATOM      4  C   UNL     1      38.388  -1.131  13.470  0.00  0.00    +0.000 A 
ATOM      5  C   UNL     1      37.406  -0.384  12.883  0.00  0.00    +0.000 A 
ATOM      6  C   UNL     1      37.636   0.225  11.690  0.00  0.00    +0.000 A 
ATOM      7  O   UNL     1      36.622   0.990  11.094  0.00  0.00    +0.000 OA
ATOM      8  C   UNL     1      38.853   0.087  11.077  0.00  0.00    +0.000 A 
ATOM      9  C   UNL     1      39.852  -0.681  11.689  0.00  0.00    +0.000 A 
ATOM     10  C   UNL     1      39.640  -1.307  12.899  0.00  0.00    +0.000 A 
ATOM     11  N   UNL     1      40.369  -2.088  13.716  0.00  0.00    +0.000 N 
ENDROOT
BRANCH   3  12
ATOM     12  C   UNL     1      37.218  -1.886  15.596  0.00  0.00    +0.000 C 
ATOM     13  O   UNL     1      36.192  -2.552  15.327  0.00  0.00    +0.000 OA
ATOM     14  N   UNL     1      37.304  -1.187  16.781  0.00  0.00    +0.000 NA
BRANCH  14  15
ATOM     15  C   UNL     1      36.213  -1.133  17.852  0.00  0.00    +0.000 C 
ATOM     16  C   UNL     1      37.190  -1.167  19.142  0.00  0.00    +0.000 C 
BRANCH  15  17
ATOM     17  C   UNL     1      36.042   0.482  17.849  0.00  0.00    +0.000 C 
BRANCH  17  18
ATOM     18  C   UNL     1      34.893   0.815  16.929  0.00  0.00    +0.000 C 
BRANCH  18  19
ATOM     19  C   UNL     1      35.340   1.878  16.000  0.00  0.00    +0.000 A 
ATOM     20  C   UNL     1      34.492   2.885  15.611  0.00  0.00    +0.000 A 
ATOM     21  C   UNL     1      34.843   3.908  14.761  0.00  0.00    +0.000 A 
ATOM     22  C   UNL     1      36.121   3.936  14.261  0.00  0.00    +0.000 A 
ATOM     23  C   UNL     1      36.996   2.942  14.630  0.00  0.00    +0.000 A 
ATOM     24  C   UNL     1      36.625   1.916  15.491  0.00  0.00    +0.000 A 
ENDBRANCH  18  19
ENDBRANCH  17  18
ENDBRANCH  15  17
ENDBRANCH  14  15
ENDBRANCH   3  12
BRANCH  11  25
ATOM     25  C   UNL     1      41.736  -2.489  13.493  0.00  0.00    +0.000 C 
BRANCH  25  26
ATOM     26  C   UNL     1      42.751  -1.484  13.854  0.00  0.00    +0.000 A 
ATOM     27  C   UNL     1      43.856  -1.844  14.645  0.00  0.00    +0.000 A 
ATOM     28  C   UNL     1      44.610  -0.707  14.806  0.00  0.00    +0.000 A 
ATOM     29  C   UNL     1      43.968   0.285  14.132  0.00  0.00    +0.000 A 
ATOM     30  O   UNL     1      42.893  -0.237  13.601  0.00  0.00    +0.000 OA
ENDBRANCH  25  26
ENDBRANCH  11  25
TORSDOF 7
ENDMDL
MODEL 9
REMARK VINA RESULT:      -7.3      1.571      3.594
REMARK  Name = 
REMARK  7 active torsions:
REMARK  status: ('A' for Active; 'I' for Inactive)
REMARK    1  A    between atoms: C_3  and  C_4
REMARK    2  A    between atoms: N_6  and  C_7
REMARK    3  A    between atoms: C_7  and  C_9
REMARK    4  A    between atoms: C_9  and  C_10
REMARK    5  A    between atoms: C_10  and  C_11
REMARK    6  A    between atoms: N_24  and  C_25
REMARK    7  A    between atoms: C_25  and  C_26
REMARK                            x       y       z     vdW  Elec       q    Type
REMARK                         _______ _______ _______ _____ _____    ______ ____
ROOT
ATOM      1  C   UNL     1      39.262  -2.475  15.210  0.00  0.00    +0.000 C 
ATOM      2  C   UNL     1      38.192  -1.509  15.551  0.00  0.00    +0.000 A 
ATOM      3  C   UNL     1      38.222  -0.181  15.196  0.00  0.00    +0.000 A 
ATOM      4  C   UNL     1      37.044   0.331  15.715  0.00  0.00    +0.000 A 
ATOM      5  C   UNL     1      36.565   1.610  15.656  0.00  0.00    +0.000 A 
ATOM      6  C   UNL     1      35.374   1.917  16.233  0.00  0.00    +0.000 A 
ATOM      7  O   UNL     1      34.890   3.232  16.167  0.00  0.00    +0.000 OA
ATOM      8  C   UNL     1      34.656   0.944  16.874  0.00  0.00    +0.000 A 
ATOM      9  C   UNL     1      35.156  -0.364  16.928  0.00  0.00    +0.000 A 
ATOM     10  C   UNL     1      36.362  -0.697  16.349  0.00  0.00    +0.000 A 
ATOM     11  N   UNL     1      37.093  -1.821  16.233  0.00  0.00    +0.000 N 
ENDROOT
BRANCH   3  12
ATOM     12  C   UNL     1      39.227   0.571  14.436  0.00  0.00    +0.000 C 
ATOM     13  O   UNL     1      40.432   0.230  14.430  0.00  0.00    +0.000 OA
ATOM     14  N   UNL     1      38.812   1.674  13.721  0.00  0.00    +0.000 NA
BRANCH  14  15
ATOM     15  C   UNL     1      39.724   2.576  12.886  0.00  0.00    +0.000 C 
ATOM     16  C   UNL     1      38.572   3.562  12.319  0.00  0.00    +0.000 C 
BRANCH  15  17
ATOM     17  C   UNL     1      40.163   3.558  14.101  0.00  0.00    +0.000 C 
BRANCH  17  18
ATOM     18  C   UNL     1      38.926   4.283  14.570  0.00  0.00    +0.000 C 
BRANCH  18  19
ATOM     19  C   UNL     1      39.184   4.802  15.933  0.00  0.00    +0.000 A 
ATOM     20  C   UNL     1      38.437   4.385  17.006  0.00  0.00    +0.000 A 
ATOM     21  C   UNL     1      38.628   4.817  18.298  0.00  0.00    +0.000 A 
ATOM     22  C   UNL     1      39.628   5.725  18.545  0.00  0.00    +0.000 A 
ATOM     23  C   UNL     1      40.395   6.163  17.492  0.00  0.00    +0.000 A 
ATOM     24  C   UNL     1      40.189   5.716  16.192  0.00  0.00    +0.000 A 
ENDBRANCH  18  19
ENDBRANCH  17  18
ENDBRANCH  15  17
ENDBRANCH  14  15
ENDBRANCH   3  12
BRANCH  11  25
ATOM     25  C   UNL     1      36.720  -3.119  16.738  0.00  0.00    +0.000 C 
BRANCH  25  26
ATOM     26  C   UNL     1      35.705  -3.834  15.946  0.00  0.00    +0.000 A 
ATOM     27  C   UNL     1      35.814  -5.220  15.739  0.00  0.00    +0.000 A 
ATOM     28  C   UNL     1      34.733  -5.588  14.974  0.00  0.00    +0.000 A 
ATOM     29  C   UNL     1      34.017  -4.455  14.741  0.00  0.00    +0.000 A 
ATOM     30  O   UNL     1      34.640  -3.471  15.336  0.00  0.00    +0.000 OA
ENDBRANCH  25  26
ENDBRANCH  11  25
TORSDOF 7
ENDMDL
MODEL 10
REMARK VINA RESULT:      -7.2      3.042      8.052
REMARK  Name = 
REMARK  7 active torsions:
REMARK  status: ('A' for Active; 'I' for Inactive)
REMARK    1  A    between atoms: C_3  and  C_4
REMARK    2  A    between atoms: N_6  and  C_7
REMARK    3  A    between atoms: C_7  and  C_9
REMARK    4  A    between atoms: C_9  and  C_10
REMARK    5  A    between atoms: C_10  and  C_11
REMARK    6  A    between atoms: N_24  and  C_25
REMARK    7  A    between atoms: C_25  and  C_26
REMARK                            x       y       z     vdW  Elec       q    Type
REMARK                         _______ _______ _______ _____ _____    ______ ____
ROOT
ATOM      1  C   UNL     1      39.447   3.672  13.638  0.00  0.00    +0.000 C 
ATOM      2  C   UNL     1      38.430   2.853  14.336  0.00  0.00    +0.000 A 
ATOM      3  C   UNL     1      38.317   1.490  14.192  0.00  0.00    +0.000 A 
ATOM      4  C   UNL     1      37.251   1.153  15.011  0.00  0.00    +0.000 A 
ATOM      5  C   UNL     1      36.705  -0.077  15.244  0.00  0.00    +0.000 A 
ATOM      6  C   UNL     1      35.650  -0.203  16.091  0.00  0.00    +0.000 A 
ATOM      7  O   UNL     1      35.095  -1.470  16.325  0.00  0.00    +0.000 OA
ATOM      8  C   UNL     1      35.136   0.905  16.710  0.00  0.00    +0.000 A 
ATOM      9  C   UNL     1      35.705   2.162  16.463  0.00  0.00    +0.000 A 
ATOM     10  C   UNL     1      36.776   2.311  15.607  0.00  0.00    +0.000 A 
ATOM     11  N   UNL     1      37.520   3.345  15.174  0.00  0.00    +0.000 N 
ENDROOT
BRANCH   3  12
ATOM     12  C   UNL     1      39.115   0.556  13.389  0.00  0.00    +0.000 C 
ATOM     13  O   UNL     1      38.815   0.294  12.202  0.00  0.00    +0.000 OA
ATOM     14  N   UNL     1      40.213  -0.034  13.977  0.00  0.00    +0.000 NA
BRANCH  14  15
ATOM     15  C   UNL     1      41.146  -1.037  13.292  0.00  0.00    +0.000 C 
ATOM     16  C   UNL     1      42.251  -1.126  14.471  0.00  0.00    +0.000 C 
BRANCH  15  17
ATOM     17  C   UNL     1      40.342  -2.370  13.752  0.00  0.00    +0.000 C 
BRANCH  17  18
ATOM     18  C   UNL     1      40.093  -2.261  15.236  0.00  0.00    +0.000 C 
BRANCH  18  19
ATOM     19  C   UNL     1      38.923  -3.105  15.570  0.00  0.00    +0.000 A 
ATOM     20  C   UNL     1      37.918  -3.320  14.661  0.00  0.00    +0.000 A 
ATOM     21  C   UNL     1      36.809  -4.099  14.901  0.00  0.00    +0.000 A 
ATOM     22  C   UNL     1      36.688  -4.707  16.126  0.00  0.00    +0.000 A 
ATOM     23  C   UNL     1      37.677  -4.512  17.060  0.00  0.00    +0.000 A 
ATOM     24  C   UNL     1      38.791  -3.722  16.801  0.00  0.00    +0.000 A 
ENDBRANCH  18  19
ENDBRANCH  17  18
ENDBRANCH  15  17
ENDBRANCH  14  15
ENDBRANCH   3  12
BRANCH  11  25
ATOM     25  C   UNL     1      37.362   4.719  15.578  0.00  0.00    +0.000 C 
BRANCH  25  26
ATOM     26  C   UNL     1      36.629   5.572  14.626  0.00  0.00    +0.000 A 
ATOM     27  C   UNL     1      35.416   5.132  14.067  0.00  0.00    +0.000 A 
ATOM     28  C   UNL     1      34.983   6.135  13.232  0.00  0.00    +0.000 A 
ATOM     29  C   UNL     1      35.911   7.127  13.301  0.00  0.00    +0.000 A 
ATOM     30  O   UNL     1      36.842   6.733  14.132  0.00  0.00    +0.000 OA
ENDBRANCH  25  26
ENDBRANCH  11  25
TORSDOF 7
ENDMDL
