MODEL 1
REMARK VINA RESULT:      -8.8      0.000      0.000
REMARK  Name = 
REMARK  7 active torsions:
REMARK  status: ('A' for Active; 'I' for Inactive)
REMARK    1  A    between atoms: C_5  and  N_6
REMARK    2  A    between atoms: C_7  and  C_9
REMARK    3  A    between atoms: C_9  and  S_10
REMARK    4  A    between atoms: S_10  and  C_11
REMARK    5  A    between atoms: C_14  and  C_15
REMARK    6  A    between atoms: N_21  and  C_22
REMARK    7  A    between atoms: C_22  and  C_23
REMARK                            x       y       z     vdW  Elec       q    Type
REMARK                         _______ _______ _______ _____ _____    ______ ____
ROOT
ATOM      1  C   UNL     1      38.261   1.949  14.576  0.00  0.00    +0.000 A 
ATOM      2  N   UNL     1      39.562   1.645  14.540  0.00  0.00    +0.000 NA
ATOM      3  N   UNL     1      39.686   0.395  14.856  0.00  0.00    +0.000 NA
ATOM      4  C   UNL     1      38.480  -0.141  15.103  0.00  0.00    +0.000 A 
ATOM      5  N   UNL     1      37.577   0.841  14.927  0.00  0.00    +0.000 N 
ENDROOT
BRANCH   4   6
ATOM      6  C   UNL     1      38.215  -1.526  15.476  0.00  0.00    +0.000 A 
ATOM      7  C   UNL     1      38.583  -1.919  16.773  0.00  0.00    +0.000 A 
ATOM      8  C   UNL     1      38.397  -3.198  17.236  0.00  0.00    +0.000 A 
ATOM      9  C   UNL     1      37.829  -4.106  16.379  0.00  0.00    +0.000 A 
ATOM     10  C   UNL     1      37.461  -3.754  15.111  0.00  0.00    +0.000 A 
ATOM     11  C   UNL     1      37.658  -2.471  14.675  0.00  0.00    +0.000 A 
ENDBRANCH   4   6
BRANCH   1  12
ATOM     12  S   UNL     1      37.558   3.529  14.227  0.00  0.00    +0.000 S 
BRANCH  12  13
ATOM     13  C   UNL     1      36.866   4.319  15.689  0.00  0.00    +0.000 C 
BRANCH  13  15
ATOM     14  N   UNL     1      38.605   5.837  16.777  0.00  0.00    +0.000 NA
ATOM     15  C   UNL     1      37.916   4.595  16.715  0.00  0.00    +0.000 C 
ATOM     16  O   UNL     1      38.246   3.734  17.579  0.00  0.00    +0.000 OA
BRANCH  14  21
ATOM     17  C   UNL     1      42.703   6.832  20.549  0.00  0.00    +0.000 C 
ATOM     18  C   UNL     1      41.619   6.571  19.565  0.00  0.00    +0.000 A 
ATOM     19  C   UNL     1      40.318   6.432  19.979  0.00  0.00    +0.000 A 
ATOM     20  C   UNL     1      39.261   6.188  19.117  0.00  0.00    +0.000 A 
ATOM     21  C   UNL     1      39.614   6.090  17.765  0.00  0.00    +0.000 A 
ATOM     22  C   UNL     1      40.900   6.225  17.333  0.00  0.00    +0.000 A 
ATOM     23  C   UNL     1      41.242   6.117  15.904  0.00  0.00    +0.000 C 
ATOM     24  C   UNL     1      41.902   6.464  18.232  0.00  0.00    +0.000 A 
ENDBRANCH  14  21
ENDBRANCH  13  15
ENDBRANCH  12  13
ENDBRANCH   1  12
BRANCH   5  25
ATOM     25  C   UNL     1      36.141   0.819  15.090  0.00  0.00    +0.000 C 
BRANCH  25  26
ATOM     26  C   UNL     1      35.785   0.300  16.421  0.00  0.00    +0.000 A 
ATOM     27  C   UNL     1      35.004  -0.843  16.570  0.00  0.00    +0.000 A 
ATOM     28  C   UNL     1      34.681  -1.318  17.813  0.00  0.00    +0.000 A 
ATOM     29  C   UNL     1      35.131  -0.661  18.919  0.00  0.00    +0.000 A 
ATOM     30  C   UNL     1      35.898   0.460  18.813  0.00  0.00    +0.000 A 
ATOM     31  C   UNL     1      36.207   0.915  17.567  0.00  0.00    +0.000 A 
ENDBRANCH  25  26
ENDBRANCH   5  25
TORSDOF 7
ENDMDL
MODEL 2
REMARK VINA RESULT:      -8.2      1.689      3.266
REMARK  Name = 
REMARK  7 active torsions:
REMARK  status: ('A' for Active; 'I' for Inactive)
REMARK    1  A    between atoms: C_5  and  N_6
REMARK    2  A    between atoms: C_7  and  C_9
REMARK    3  A    between atoms: C_9  and  S_10
REMARK    4  A    between atoms: S_10  and  C_11
REMARK    5  A    between atoms: C_14  and  C_15
REMARK    6  A    between atoms: N_21  and  C_22
REMARK    7  A    between atoms: C_22  and  C_23
REMARK                            x       y       z     vdW  Elec       q    Type
REMARK                         _______ _______ _______ _____ _____    ______ ____
ROOT
ATOM      1  C   UNL     1      36.152   1.329  16.248  0.00  0.00    +0.000 A 
ATOM      2  N   UNL     1      36.205   1.306  17.582  0.00  0.00    +0.000 NA
ATOM      3  N   UNL     1      36.614   0.131  17.943  0.00  0.00    +0.000 NA
ATOM      4  C   UNL     1      36.836  -0.632  16.860  0.00  0.00    +0.000 A 
ATOM      5  N   UNL     1      36.543   0.124  15.787  0.00  0.00    +0.000 N 
ENDROOT
BRANCH   4   6
ATOM      6  C   UNL     1      37.315  -2.010  16.865  0.00  0.00    +0.000 A 
ATOM      7  C   UNL     1      36.366  -3.017  16.631  0.00  0.00    +0.000 A 
ATOM      8  C   UNL     1      36.692  -4.350  16.624  0.00  0.00    +0.000 A 
ATOM      9  C   UNL     1      38.002  -4.684  16.857  0.00  0.00    +0.000 A 
ATOM     10  C   UNL     1      38.949  -3.727  17.087  0.00  0.00    +0.000 A 
ATOM     11  C   UNL     1      38.596  -2.404  17.088  0.00  0.00    +0.000 A 
ENDBRANCH   4   6
BRANCH   1  12
ATOM     12  S   UNL     1      35.652   2.700  15.256  0.00  0.00    +0.000 S 
BRANCH  12  13
ATOM     13  C   UNL     1      37.044   3.539  14.480  0.00  0.00    +0.000 C 
BRANCH  13  15
ATOM     14  N   UNL     1      38.158   5.234  16.028  0.00  0.00    +0.000 NA
ATOM     15  C   UNL     1      38.083   3.924  15.481  0.00  0.00    +0.000 C 
ATOM     16  O   UNL     1      38.950   3.101  15.891  0.00  0.00    +0.000 OA
BRANCH  14  21
ATOM     17  C   UNL     1      42.228   6.683  19.683  0.00  0.00    +0.000 C 
ATOM     18  C   UNL     1      41.152   6.301  18.730  0.00  0.00    +0.000 A 
ATOM     19  C   UNL     1      39.939   5.850  19.189  0.00  0.00    +0.000 A 
ATOM     20  C   UNL     1      38.895   5.477  18.357  0.00  0.00    +0.000 A 
ATOM     21  C   UNL     1      39.163   5.593  16.988  0.00  0.00    +0.000 A 
ATOM     22  C   UNL     1      40.361   6.039  16.511  0.00  0.00    +0.000 A 
ATOM     23  C   UNL     1      40.614   6.150  15.064  0.00  0.00    +0.000 C 
ATOM     24  C   UNL     1      41.354   6.391  17.381  0.00  0.00    +0.000 A 
ENDBRANCH  14  21
ENDBRANCH  13  15
ENDBRANCH  12  13
ENDBRANCH   1  12
BRANCH   5  25
ATOM     25  C   UNL     1      36.577  -0.211  14.381  0.00  0.00    +0.000 C 
BRANCH  25  26
ATOM     26  C   UNL     1      37.904  -0.730  14.010  0.00  0.00    +0.000 A 
ATOM     27  C   UNL     1      39.066  -0.007  14.266  0.00  0.00    +0.000 A 
ATOM     28  C   UNL     1      40.294  -0.501  13.918  0.00  0.00    +0.000 A 
ATOM     29  C   UNL     1      40.380  -1.720  13.314  0.00  0.00    +0.000 A 
ATOM     30  C   UNL     1      39.265  -2.456  13.048  0.00  0.00    +0.000 A 
ATOM     31  C   UNL     1      38.053  -1.946  13.402  0.00  0.00    +0.000 A 
ENDBRANCH  25  26
ENDBRANCH   5  25
TORSDOF 7
ENDMDL
MODEL 3
REMARK VINA RESULT:      -8.1      1.930      3.589
REMARK  Name = 
REMARK  7 active torsions:
REMARK  status: ('A' for Active; 'I' for Inactive)
REMARK    1  A    between atoms: C_5  and  N_6
REMARK    2  A    between atoms: C_7  and  C_9
REMARK    3  A    between atoms: C_9  and  S_10
REMARK    4  A    between atoms: S_10  and  C_11
REMARK    5  A    between atoms: C_14  and  C_15
REMARK    6  A    between atoms: N_21  and  C_22
REMARK    7  A    between atoms: C_22  and  C_23
REMARK                            x       y       z     vdW  Elec       q    Type
REMARK                         _______ _______ _______ _____ _____    ______ ____
ROOT
ATOM      1  C   UNL     1      35.742   3.740  14.765  0.00  0.00    +0.000 A 
ATOM      2  N   UNL     1      34.445   3.793  15.080  0.00  0.00    +0.000 NA
ATOM      3  N   UNL     1      34.188   2.799  15.869  0.00  0.00    +0.000 NA
ATOM      4  C   UNL     1      35.302   2.081  16.086  0.00  0.00    +0.000 A 
ATOM      5  N   UNL     1      36.286   2.675  15.387  0.00  0.00    +0.000 N 
ENDROOT
BRANCH   4   6
ATOM      6  C   UNL     1      35.410   0.896  16.930  0.00  0.00    +0.000 A 
ATOM      7  C   UNL     1      36.067   1.046  18.161  0.00  0.00    +0.000 A 
ATOM      8  C   UNL     1      36.242   0.003  19.035  0.00  0.00    +0.000 A 
ATOM      9  C   UNL     1      35.747  -1.222  18.667  0.00  0.00    +0.000 A 
ATOM     10  C   UNL     1      35.103  -1.400  17.477  0.00  0.00    +0.000 A 
ATOM     11  C   UNL     1      34.942  -0.342  16.623  0.00  0.00    +0.000 A 
ENDBRANCH   4   6
BRANCH   1  12
ATOM     12  S   UNL     1      36.598   4.868  13.713  0.00  0.00    +0.000 S 
BRANCH  12  13
ATOM     13  C   UNL     1      36.555   6.561  14.328  0.00  0.00    +0.000 C 
BRANCH  13  15
ATOM     14  N   UNL     1      38.362   5.722  15.923  0.00  0.00    +0.000 NA
ATOM     15  C   UNL     1      37.492   6.753  15.474  0.00  0.00    +0.000 C 
ATOM     16  O   UNL     1      37.557   7.846  16.105  0.00  0.00    +0.000 OA
BRANCH  14  21
ATOM     17  C   UNL     1      42.022   6.513  20.165  0.00  0.00    +0.000 C 
ATOM     18  C   UNL     1      41.052   6.305  19.057  0.00  0.00    +0.000 A 
ATOM     19  C   UNL     1      39.730   6.050  19.323  0.00  0.00    +0.000 A 
ATOM     20  C   UNL     1      38.775   5.846  18.339  0.00  0.00    +0.000 A 
ATOM     21  C   UNL     1      39.257   5.918  17.027  0.00  0.00    +0.000 A 
ATOM     22  C   UNL     1      40.567   6.171  16.740  0.00  0.00    +0.000 A 
ATOM     23  C   UNL     1      41.045   6.241  15.349  0.00  0.00    +0.000 C 
ATOM     24  C   UNL     1      41.463   6.362  17.754  0.00  0.00    +0.000 A 
ENDBRANCH  14  21
ENDBRANCH  13  15
ENDBRANCH  12  13
ENDBRANCH   1  12
BRANCH   5  25
ATOM     25  C   UNL     1      37.675   2.300  15.243  0.00  0.00    +0.000 C 
BRANCH  25  26
ATOM     26  C   UNL     1      37.789   1.029  14.511  0.00  0.00    +0.000 A 
ATOM     27  C   UNL     1      38.297  -0.117  15.118  0.00  0.00    +0.000 A 
ATOM     28  C   UNL     1      38.397  -1.295  14.428  0.00  0.00    +0.000 A 
ATOM     29  C   UNL     1      37.993  -1.346  13.127  0.00  0.00    +0.000 A 
ATOM     30  C   UNL     1      37.490  -0.246  12.500  0.00  0.00    +0.000 A 
ATOM     31  C   UNL     1      37.400   0.915  13.205  0.00  0.00    +0.000 A 
ENDBRANCH  25  26
ENDBRANCH   5  25
TORSDOF 7
ENDMDL
MODEL 4
REMARK VINA RESULT:      -7.9      2.076      8.743
REMARK  Name = 
REMARK  7 active torsions:
REMARK  status: ('A' for Active; 'I' for Inactive)
REMARK    1  A    between atoms: C_5  and  N_6
REMARK    2  A    between atoms: C_7  and  C_9
REMARK    3  A    between atoms: C_9  and  S_10
REMARK    4  A    between atoms: S_10  and  C_11
REMARK    5  A    between atoms: C_14  and  C_15
REMARK    6  A    between atoms: N_21  and  C_22
REMARK    7  A    between atoms: C_22  and  C_23
REMARK                            x       y       z     vdW  Elec       q    Type
REMARK                         _______ _______ _______ _____ _____    ______ ____
ROOT
ATOM      1  C   UNL     1      37.876   6.743  15.441  0.00  0.00    +0.000 A 
ATOM      2  N   UNL     1      37.482   7.942  15.004  0.00  0.00    +0.000 NA
ATOM      3  N   UNL     1      37.566   8.772  15.995  0.00  0.00    +0.000 NA
ATOM      4  C   UNL     1      38.013   8.138  17.092  0.00  0.00    +0.000 A 
ATOM      5  N   UNL     1      38.209   6.854  16.743  0.00  0.00    +0.000 N 
ENDROOT
BRANCH   4   6
ATOM      6  C   UNL     1      38.249   8.744  18.398  0.00  0.00    +0.000 A 
ATOM      7  C   UNL     1      39.385   9.558  18.529  0.00  0.00    +0.000 A 
ATOM      8  C   UNL     1      39.720  10.172  19.710  0.00  0.00    +0.000 A 
ATOM      9  C   UNL     1      38.896   9.965  20.787  0.00  0.00    +0.000 A 
ATOM     10  C   UNL     1      37.784   9.179  20.691  0.00  0.00    +0.000 A 
ATOM     11  C   UNL     1      37.473   8.578  19.501  0.00  0.00    +0.000 A 
ENDBRANCH   4   6
BRANCH   1  12
ATOM     12  S   UNL     1      37.946   5.264  14.481  0.00  0.00    +0.000 S 
BRANCH  12  13
ATOM     13  C   UNL     1      36.604   4.125  14.862  0.00  0.00    +0.000 C 
BRANCH  13  15
ATOM     14  N   UNL     1      37.380   1.731  14.437  0.00  0.00    +0.000 NA
ATOM     15  C   UNL     1      37.120   2.805  15.332  0.00  0.00    +0.000 C 
ATOM     16  O   UNL     1      37.349   2.576  16.553  0.00  0.00    +0.000 OA
BRANCH  14  21
ATOM     17  C   UNL     1      39.483  -3.214  16.208  0.00  0.00    +0.000 C 
ATOM     18  C   UNL     1      38.921  -1.917  15.747  0.00  0.00    +0.000 A 
ATOM     19  C   UNL     1      37.585  -1.641  15.893  0.00  0.00    +0.000 A 
ATOM     20  C   UNL     1      36.996  -0.455  15.485  0.00  0.00    +0.000 A 
ATOM     21  C   UNL     1      37.873   0.466  14.901  0.00  0.00    +0.000 A 
ATOM     22  C   UNL     1      39.205   0.213  14.746  0.00  0.00    +0.000 A 
ATOM     23  C   UNL     1      40.104   1.202  14.127  0.00  0.00    +0.000 C 
ATOM     24  C   UNL     1      39.728  -0.977  15.168  0.00  0.00    +0.000 A 
ENDBRANCH  14  21
ENDBRANCH  13  15
ENDBRANCH  12  13
ENDBRANCH   1  12
BRANCH   5  25
ATOM     25  C   UNL     1      38.654   5.734  17.542  0.00  0.00    +0.000 C 
BRANCH  25  26
ATOM     26  C   UNL     1      39.949   6.037  18.172  0.00  0.00    +0.000 A 
ATOM     27  C   UNL     1      41.087   6.292  17.410  0.00  0.00    +0.000 A 
ATOM     28  C   UNL     1      42.286   6.575  18.008  0.00  0.00    +0.000 A 
ATOM     29  C   UNL     1      42.366   6.607  19.368  0.00  0.00    +0.000 A 
ATOM     30  C   UNL     1      41.275   6.364  20.146  0.00  0.00    +0.000 A 
ATOM     31  C   UNL     1      40.092   6.085  19.531  0.00  0.00    +0.000 A 
ENDBRANCH  25  26
ENDBRANCH   5  25
TORSDOF 7
ENDMDL
MODEL 5
REMARK VINA RESULT:      -7.8      1.616      2.619
REMARK  Name = 
REMARK  7 active torsions:
REMARK  status: ('A' for Active; 'I' for Inactive)
REMARK    1  A    between atoms: C_5  and  N_6
REMARK    2  A    between atoms: C_7  and  C_9
REMARK    3  A    between atoms: C_9  and  S_10
REMARK    4  A    between atoms: S_10  and  C_11
REMARK    5  A    between atoms: C_14  and  C_15
REMARK    6  A    between atoms: N_21  and  C_22
REMARK    7  A    between atoms: C_22  and  C_23
REMARK                            x       y       z     vdW  Elec       q    Type
REMARK                         _______ _______ _______ _____ _____    ______ ____
ROOT
ATOM      1  C   UNL     1      38.143   1.755  14.997  0.00  0.00    +0.000 A 
ATOM      2  N   UNL     1      39.335   2.316  14.774  0.00  0.00    +0.000 NA
ATOM      3  N   UNL     1      40.117   1.405  14.287  0.00  0.00    +0.000 NA
ATOM      4  C   UNL     1      39.458   0.239  14.181  0.00  0.00    +0.000 A 
ATOM      5  N   UNL     1      38.210   0.459  14.630  0.00  0.00    +0.000 N 
ENDROOT
BRANCH   4   6
ATOM      6  C   UNL     1      40.003  -1.011  13.663  0.00  0.00    +0.000 A 
ATOM      7  C   UNL     1      39.587  -1.407  12.382  0.00  0.00    +0.000 A 
ATOM      8  C   UNL     1      40.019  -2.569  11.793  0.00  0.00    +0.000 A 
ATOM      9  C   UNL     1      40.891  -3.353  12.504  0.00  0.00    +0.000 A 
ATOM     10  C   UNL     1      41.315  -2.995  13.752  0.00  0.00    +0.000 A 
ATOM     11  C   UNL     1      40.868  -1.830  14.316  0.00  0.00    +0.000 A 
ENDBRANCH   4   6
BRANCH   1  12
ATOM     12  S   UNL     1      36.725   2.568  15.659  0.00  0.00    +0.000 S 
BRANCH  12  13
ATOM     13  C   UNL     1      36.973   4.341  15.863  0.00  0.00    +0.000 C 
BRANCH  13  15
ATOM     14  N   UNL     1      38.752   5.849  16.897  0.00  0.00    +0.000 NA
ATOM     15  C   UNL     1      38.010   4.636  16.895  0.00  0.00    +0.000 C 
ATOM     16  O   UNL     1      38.281   3.819  17.820  0.00  0.00    +0.000 OA
BRANCH  14  21
ATOM     17  C   UNL     1      42.802   6.919  20.701  0.00  0.00    +0.000 C 
ATOM     18  C   UNL     1      41.731   6.638  19.709  0.00  0.00    +0.000 A 
ATOM     19  C   UNL     1      40.427   6.484  20.111  0.00  0.00    +0.000 A 
ATOM     20  C   UNL     1      39.382   6.220  19.241  0.00  0.00    +0.000 A 
ATOM     21  C   UNL     1      39.748   6.121  17.894  0.00  0.00    +0.000 A 
ATOM     22  C   UNL     1      41.037   6.271  17.472  0.00  0.00    +0.000 A 
ATOM     23  C   UNL     1      41.393   6.161  16.047  0.00  0.00    +0.000 C 
ATOM     24  C   UNL     1      42.027   6.529  18.379  0.00  0.00    +0.000 A 
ENDBRANCH  14  21
ENDBRANCH  13  15
ENDBRANCH  12  13
ENDBRANCH   1  12
BRANCH   5  25
ATOM     25  C   UNL     1      37.099  -0.457  14.764  0.00  0.00    +0.000 C 
BRANCH  25  26
ATOM     26  C   UNL     1      37.489  -1.619  15.579  0.00  0.00    +0.000 A 
ATOM     27  C   UNL     1      37.358  -2.920  15.101  0.00  0.00    +0.000 A 
ATOM     28  C   UNL     1      37.726  -3.993  15.868  0.00  0.00    +0.000 A 
ATOM     29  C   UNL     1      38.229  -3.783  17.118  0.00  0.00    +0.000 A 
ATOM     30  C   UNL     1      38.372  -2.524  17.619  0.00  0.00    +0.000 A 
ATOM     31  C   UNL     1      38.000  -1.472  16.839  0.00  0.00    +0.000 A 
ENDBRANCH  25  26
ENDBRANCH   5  25
TORSDOF 7
ENDMDL
MODEL 6
REMARK VINA RESULT:      -7.6      2.203      8.993
REMARK  Name = 
REMARK  7 active torsions:
REMARK  status: ('A' for Active; 'I' for Inactive)
REMARK    1  A    between atoms: C_5  and  N_6
REMARK    2  A    between atoms: C_7  and  C_9
REMARK    3  A    between atoms: C_9  and  S_10
REMARK    4  A    between atoms: S_10  and  C_11
REMARK    5  A    between atoms: C_14  and  C_15
REMARK    6  A    between atoms: N_21  and  C_22
REMARK    7  A    between atoms: C_22  and  C_23
REMARK                            x       y       z     vdW  Elec       q    Type
REMARK                         _______ _______ _______ _____ _____    ______ ____
ROOT
ATOM      1  C   UNL     1      38.080   7.062  15.356  0.00  0.00    +0.000 A 
ATOM      2  N   UNL     1      37.763   8.294  14.949  0.00  0.00    +0.000 NA
ATOM      3  N   UNL     1      37.841   9.083  15.973  0.00  0.00    +0.000 NA
ATOM      4  C   UNL     1      38.210   8.390  17.063  0.00  0.00    +0.000 A 
ATOM      5  N   UNL     1      38.360   7.111  16.675  0.00  0.00    +0.000 N 
ENDROOT
BRANCH   4   6
ATOM      6  C   UNL     1      38.415   8.936  18.400  0.00  0.00    +0.000 A 
ATOM      7  C   UNL     1      39.592   9.671  18.615  0.00  0.00    +0.000 A 
ATOM      8  C   UNL     1      39.903  10.224  19.832  0.00  0.00    +0.000 A 
ATOM      9  C   UNL     1      39.015  10.036  20.859  0.00  0.00    +0.000 A 
ATOM     10  C   UNL     1      37.862   9.326  20.681  0.00  0.00    +0.000 A 
ATOM     11  C   UNL     1      37.575   8.785  19.456  0.00  0.00    +0.000 A 
ENDBRANCH   4   6
BRANCH   1  12
ATOM     12  S   UNL     1      38.122   5.617  14.345  0.00  0.00    +0.000 S 
BRANCH  12  13
ATOM     13  C   UNL     1      36.523   4.795  14.242  0.00  0.00    +0.000 C 
BRANCH  13  15
ATOM     14  N   UNL     1      35.510   2.509  14.753  0.00  0.00    +0.000 NA
ATOM     15  C   UNL     1      36.538   3.474  14.937  0.00  0.00    +0.000 C 
ATOM     16  O   UNL     1      37.468   3.147  15.729  0.00  0.00    +0.000 OA
BRANCH  14  21
ATOM     17  C   UNL     1      35.686  -2.549  17.282  0.00  0.00    +0.000 C 
ATOM     18  C   UNL     1      35.635  -1.216  16.626  0.00  0.00    +0.000 A 
ATOM     19  C   UNL     1      35.006  -0.159  17.236  0.00  0.00    +0.000 A 
ATOM     20  C   UNL     1      34.921   1.108  16.680  0.00  0.00    +0.000 A 
ATOM     21  C   UNL     1      35.533   1.244  15.429  0.00  0.00    +0.000 A 
ATOM     22  C   UNL     1      36.164   0.207  14.805  0.00  0.00    +0.000 A 
ATOM     23  C   UNL     1      36.799   0.380  13.488  0.00  0.00    +0.000 C 
ATOM     24  C   UNL     1      36.214  -1.021  15.403  0.00  0.00    +0.000 A 
ENDBRANCH  14  21
ENDBRANCH  13  15
ENDBRANCH  12  13
ENDBRANCH   1  12
BRANCH   5  25
ATOM     25  C   UNL     1      38.715   5.943  17.450  0.00  0.00    +0.000 C 
BRANCH  25  26
ATOM     26  C   UNL     1      39.993   6.161  18.147  0.00  0.00    +0.000 A 
ATOM     27  C   UNL     1      41.173   6.394  17.445  0.00  0.00    +0.000 A 
ATOM     28  C   UNL     1      42.356   6.597  18.105  0.00  0.00    +0.000 A 
ATOM     29  C   UNL     1      42.377   6.571  19.468  0.00  0.00    +0.000 A 
ATOM     30  C   UNL     1      41.242   6.346  20.187  0.00  0.00    +0.000 A 
ATOM     31  C   UNL     1      40.077   6.146  19.511  0.00  0.00    +0.000 A 
ENDBRANCH  25  26
ENDBRANCH   5  25
TORSDOF 7
ENDMDL
MODEL 7
REMARK VINA RESULT:      -7.6      1.601      3.322
REMARK  Name = 
REMARK  7 active torsions:
REMARK  status: ('A' for Active; 'I' for Inactive)
REMARK    1  A    between atoms: C_5  and  N_6
REMARK    2  A    between atoms: C_7  and  C_9
REMARK    3  A    between atoms: C_9  and  S_10
REMARK    4  A    between atoms: S_10  and  C_11
REMARK    5  A    between atoms: C_14  and  C_15
REMARK    6  A    between atoms: N_21  and  C_22
REMARK    7  A    between atoms: C_22  and  C_23
REMARK                            x       y       z     vdW  Elec       q    Type
REMARK                         _______ _______ _______ _____ _____    ______ ____
ROOT
ATOM      1  C   UNL     1      37.175   1.595  15.665  0.00  0.00    +0.000 A 
ATOM      2  N   UNL     1      36.703   1.503  16.911  0.00  0.00    +0.000 NA
ATOM      3  N   UNL     1      36.450   0.254  17.147  0.00  0.00    +0.000 NA
ATOM      4  C   UNL     1      36.749  -0.489  16.069  0.00  0.00    +0.000 A 
ATOM      5  N   UNL     1      37.208   0.357  15.131  0.00  0.00    +0.000 N 
ENDROOT
BRANCH   4   6
ATOM      6  C   UNL     1      36.611  -1.938  15.960  0.00  0.00    +0.000 A 
ATOM      7  C   UNL     1      37.601  -2.722  16.572  0.00  0.00    +0.000 A 
ATOM      8  C   UNL     1      37.587  -4.094  16.528  0.00  0.00    +0.000 A 
ATOM      9  C   UNL     1      36.556  -4.695  15.853  0.00  0.00    +0.000 A 
ATOM     10  C   UNL     1      35.578  -3.960  15.247  0.00  0.00    +0.000 A 
ATOM     11  C   UNL     1      35.615  -2.592  15.307  0.00  0.00    +0.000 A 
ENDBRANCH   4   6
BRANCH   1  12
ATOM     12  S   UNL     1      37.670   3.082  14.854  0.00  0.00    +0.000 S 
BRANCH  12  13
ATOM     13  C   UNL     1      37.202   4.561  15.770  0.00  0.00    +0.000 C 
BRANCH  13  15
ATOM     14  N   UNL     1      38.860   6.213  16.786  0.00  0.00    +0.000 NA
ATOM     15  C   UNL     1      38.239   4.934  16.778  0.00  0.00    +0.000 C 
ATOM     16  O   UNL     1      38.616   4.129  17.675  0.00  0.00    +0.000 OA
BRANCH  14  21
ATOM     17  C   UNL     1      42.669   7.664  20.711  0.00  0.00    +0.000 C 
ATOM     18  C   UNL     1      41.675   7.278  19.675  0.00  0.00    +0.000 A 
ATOM     19  C   UNL     1      42.062   6.571  18.563  0.00  0.00    +0.000 A 
ATOM     20  C   UNL     1      41.190   6.180  17.560  0.00  0.00    +0.000 A 
ATOM     21  C   UNL     1      39.857   6.560  17.759  0.00  0.00    +0.000 A 
ATOM     22  C   UNL     1      39.451   7.262  18.855  0.00  0.00    +0.000 A 
ATOM     23  C   UNL     1      38.041   7.648  19.037  0.00  0.00    +0.000 C 
ATOM     24  C   UNL     1      40.359   7.621  19.812  0.00  0.00    +0.000 A 
ENDBRANCH  14  21
ENDBRANCH  13  15
ENDBRANCH  12  13
ENDBRANCH   1  12
BRANCH   5  25
ATOM     25  C   UNL     1      37.641   0.093  13.777  0.00  0.00    +0.000 C 
BRANCH  25  26
ATOM     26  C   UNL     1      38.818  -0.790  13.779  0.00  0.00    +0.000 A 
ATOM     27  C   UNL     1      38.819  -2.002  13.093  0.00  0.00    +0.000 A 
ATOM     28  C   UNL     1      39.922  -2.814  13.100  0.00  0.00    +0.000 A 
ATOM     29  C   UNL     1      41.033  -2.429  13.790  0.00  0.00    +0.000 A 
ATOM     30  C   UNL     1      41.069  -1.251  14.472  0.00  0.00    +0.000 A 
ATOM     31  C   UNL     1      39.962  -0.458  14.451  0.00  0.00    +0.000 A 
ENDBRANCH  25  26
ENDBRANCH   5  25
TORSDOF 7
ENDMDL
MODEL 8
REMARK VINA RESULT:      -7.5      2.014      9.026
REMARK  Name = 
REMARK  7 active torsions:
REMARK  status: ('A' for Active; 'I' for Inactive)
REMARK    1  A    between atoms: C_5  and  N_6
REMARK    2  A    between atoms: C_7  and  C_9
REMARK    3  A    between atoms: C_9  and  S_10
REMARK    4  A    between atoms: S_10  and  C_11
REMARK    5  A    between atoms: C_14  and  C_15
REMARK    6  A    between atoms: N_21  and  C_22
REMARK    7  A    between atoms: C_22  and  C_23
REMARK                            x       y       z     vdW  Elec       q    Type
REMARK                         _______ _______ _______ _____ _____    ______ ____
ROOT
ATOM      1  C   UNL     1      39.721   5.622  16.680  0.00  0.00    +0.000 A 
ATOM      2  N   UNL     1      40.814   5.797  15.932  0.00  0.00    +0.000 NA
ATOM      3  N   UNL     1      41.735   6.304  16.688  0.00  0.00    +0.000 NA
ATOM      4  C   UNL     1      41.267   6.470  17.937  0.00  0.00    +0.000 A 
ATOM      5  N   UNL     1      39.993   6.039  17.933  0.00  0.00    +0.000 N 
ENDROOT
BRANCH   4   6
ATOM      6  C   UNL     1      42.015   7.002  19.070  0.00  0.00    +0.000 A 
ATOM      7  C   UNL     1      42.294   8.378  19.061  0.00  0.00    +0.000 A 
ATOM      8  C   UNL     1      43.001   8.993  20.064  0.00  0.00    +0.000 A 
ATOM      9  C   UNL     1      43.440   8.212  21.102  0.00  0.00    +0.000 A 
ATOM     10  C   UNL     1      43.184   6.871  21.140  0.00  0.00    +0.000 A 
ATOM     11  C   UNL     1      42.476   6.282  20.126  0.00  0.00    +0.000 A 
ENDBRANCH   4   6
BRANCH   1  12
ATOM     12  S   UNL     1      38.182   4.961  16.124  0.00  0.00    +0.000 S 
BRANCH  12  13
ATOM     13  C   UNL     1      38.356   3.942  14.649  0.00  0.00    +0.000 C 
BRANCH  13  15
ATOM     14  N   UNL     1      36.725   1.981  14.724  0.00  0.00    +0.000 NA
ATOM     15  C   UNL     1      38.028   2.512  14.926  0.00  0.00    +0.000 C 
ATOM     16  O   UNL     1      38.896   1.700  15.357  0.00  0.00    +0.000 OA
BRANCH  14  21
ATOM     17  C   UNL     1      35.436  -3.393  15.937  0.00  0.00    +0.000 C 
ATOM     18  C   UNL     1      35.779  -1.984  15.610  0.00  0.00    +0.000 A 
ATOM     19  C   UNL     1      36.586  -1.691  14.538  0.00  0.00    +0.000 A 
ATOM     20  C   UNL     1      36.945  -0.402  14.178  0.00  0.00    +0.000 A 
ATOM     21  C   UNL     1      36.421   0.605  14.996  0.00  0.00    +0.000 A 
ATOM     22  C   UNL     1      35.618   0.337  16.065  0.00  0.00    +0.000 A 
ATOM     23  C   UNL     1      35.081   1.418  16.909  0.00  0.00    +0.000 C 
ATOM     24  C   UNL     1      35.298  -0.956  16.372  0.00  0.00    +0.000 A 
ENDBRANCH  14  21
ENDBRANCH  13  15
ENDBRANCH  12  13
ENDBRANCH   1  12
BRANCH   5  25
ATOM     25  C   UNL     1      39.019   6.019  19.001  0.00  0.00    +0.000 C 
BRANCH  25  26
ATOM     26  C   UNL     1      38.623   7.391  19.358  0.00  0.00    +0.000 A 
ATOM     27  C   UNL     1      37.899   8.192  18.478  0.00  0.00    +0.000 A 
ATOM     28  C   UNL     1      37.534   9.466  18.823  0.00  0.00    +0.000 A 
ATOM     29  C   UNL     1      37.886   9.956  20.045  0.00  0.00    +0.000 A 
ATOM     30  C   UNL     1      38.594   9.203  20.932  0.00  0.00    +0.000 A 
ATOM     31  C   UNL     1      38.946   7.938  20.569  0.00  0.00    +0.000 A 
ENDBRANCH  25  26
ENDBRANCH   5  25
TORSDOF 7
ENDMDL
MODEL 9
REMARK VINA RESULT:      -7.5      1.826      8.323
REMARK  Name = 
REMARK  7 active torsions:
REMARK  status: ('A' for Active; 'I' for Inactive)
REMARK    1  A    between atoms: C_5  and  N_6
REMARK    2  A    between atoms: C_7  and  C_9
REMARK    3  A    between atoms: C_9  and  S_10
REMARK    4  A    between atoms: S_10  and  C_11
REMARK    5  A    between atoms: C_14  and  C_15
REMARK    6  A    between atoms: N_21  and  C_22
REMARK    7  A    between atoms: C_22  and  C_23
REMARK                            x       y       z     vdW  Elec       q    Type
REMARK                         _______ _______ _______ _____ _____    ______ ____
ROOT
ATOM      1  C   UNL     1      37.798   3.924  16.164  0.00  0.00    +0.000 A 
ATOM      2  N   UNL     1      37.631   3.191  17.268  0.00  0.00    +0.000 NA
ATOM      3  N   UNL     1      38.011   3.906  18.279  0.00  0.00    +0.000 NA
ATOM      4  C   UNL     1      38.430   5.112  17.860  0.00  0.00    +0.000 A 
ATOM      5  N   UNL     1      38.296   5.125  16.522  0.00  0.00    +0.000 N 
ENDROOT
BRANCH   4   6
ATOM      6  C   UNL     1      38.919   6.193  18.709  0.00  0.00    +0.000 A 
ATOM      7  C   UNL     1      38.151   7.368  18.753  0.00  0.00    +0.000 A 
ATOM      8  C   UNL     1      38.514   8.458  19.504  0.00  0.00    +0.000 A 
ATOM      9  C   UNL     1      39.676   8.370  20.228  0.00  0.00    +0.000 A 
ATOM     10  C   UNL     1      40.444   7.241  20.206  0.00  0.00    +0.000 A 
ATOM     11  C   UNL     1      40.058   6.168  19.448  0.00  0.00    +0.000 A 
ENDBRANCH   4   6
BRANCH   1  12
ATOM     12  S   UNL     1      37.431   3.409  14.516  0.00  0.00    +0.000 S 
BRANCH  12  13
ATOM     13  C   UNL     1      36.553   1.838  14.459  0.00  0.00    +0.000 C 
BRANCH  13  15
ATOM     14  N   UNL     1      36.457   0.016  16.243  0.00  0.00    +0.000 NA
ATOM     15  C   UNL     1      37.201   0.813  15.330  0.00  0.00    +0.000 C 
ATOM     16  O   UNL     1      38.447   0.604  15.299  0.00  0.00    +0.000 OA
BRANCH  14  21
ATOM     17  C   UNL     1      38.896  -3.768  19.671  0.00  0.00    +0.000 C 
ATOM     18  C   UNL     1      38.259  -2.778  18.762  0.00  0.00    +0.000 A 
ATOM     19  C   UNL     1      38.432  -2.864  17.403  0.00  0.00    +0.000 A 
ATOM     20  C   UNL     1      37.868  -1.976  16.500  0.00  0.00    +0.000 A 
ATOM     21  C   UNL     1      37.092  -0.964  17.077  0.00  0.00    +0.000 A 
ATOM     22  C   UNL     1      36.906  -0.861  18.424  0.00  0.00    +0.000 A 
ATOM     23  C   UNL     1      36.084   0.215  19.003  0.00  0.00    +0.000 C 
ATOM     24  C   UNL     1      37.490  -1.767  19.265  0.00  0.00    +0.000 A 
ENDBRANCH  14  21
ENDBRANCH  13  15
ENDBRANCH  12  13
ENDBRANCH   1  12
BRANCH   5  25
ATOM     25  C   UNL     1      38.625   6.160  15.568  0.00  0.00    +0.000 C 
BRANCH  25  26
ATOM     26  C   UNL     1      40.061   6.123  15.249  0.00  0.00    +0.000 A 
ATOM     27  C   UNL     1      40.543   5.427  14.143  0.00  0.00    +0.000 A 
ATOM     28  C   UNL     1      41.882   5.402  13.855  0.00  0.00    +0.000 A 
ATOM     29  C   UNL     1      42.754   6.069  14.663  0.00  0.00    +0.000 A 
ATOM     30  C   UNL     1      42.320   6.761  15.753  0.00  0.00    +0.000 A 
ATOM     31  C   UNL     1      40.984   6.773  16.021  0.00  0.00    +0.000 A 
ENDBRANCH  25  26
ENDBRANCH   5  25
TORSDOF 7
ENDMDL
MODEL 10
REMARK VINA RESULT:      -7.3      2.272      8.495
REMARK  Name = 
REMARK  7 active torsions:
REMARK  status: ('A' for Active; 'I' for Inactive)
REMARK    1  A    between atoms: C_5  and  N_6
REMARK    2  A    between atoms: C_7  and  C_9
REMARK    3  A    between atoms: C_9  and  S_10
REMARK    4  A    between atoms: S_10  and  C_11
REMARK    5  A    between atoms: C_14  and  C_15
REMARK    6  A    between atoms: N_21  and  C_22
REMARK    7  A    between atoms: C_22  and  C_23
REMARK                            x       y       z     vdW  Elec       q    Type
REMARK                         _______ _______ _______ _____ _____    ______ ____
ROOT
ATOM      1  C   UNL     1      37.413   4.004  16.253  0.00  0.00    +0.000 A 
ATOM      2  N   UNL     1      37.389   3.290  17.382  0.00  0.00    +0.000 NA
ATOM      3  N   UNL     1      38.195   3.854  18.225  0.00  0.00    +0.000 NA
ATOM      4  C   UNL     1      38.758   4.941  17.669  0.00  0.00    +0.000 A 
ATOM      5  N   UNL     1      38.264   5.036  16.422  0.00  0.00    +0.000 N 
ENDROOT
BRANCH   4   6
ATOM      6  C   UNL     1      39.709   5.840  18.314  0.00  0.00    +0.000 A 
ATOM      7  C   UNL     1      39.291   6.470  19.496  0.00  0.00    +0.000 A 
ATOM      8  C   UNL     1      40.090   7.347  20.187  0.00  0.00    +0.000 A 
ATOM      9  C   UNL     1      41.339   7.599  19.680  0.00  0.00    +0.000 A 
ATOM     10  C   UNL     1      41.775   7.002  18.532  0.00  0.00    +0.000 A 
ATOM     11  C   UNL     1      40.957   6.131  17.863  0.00  0.00    +0.000 A 
ENDBRANCH   4   6
BRANCH   1  12
ATOM     12  S   UNL     1      36.491   3.656  14.790  0.00  0.00    +0.000 S 
BRANCH  12  13
ATOM     13  C   UNL     1      35.266   2.358  15.034  0.00  0.00    +0.000 C 
BRANCH  13  15
ATOM     14  N   UNL     1      35.309   0.016  16.046  0.00  0.00    +0.000 NA
ATOM     15  C   UNL     1      35.910   1.027  15.248  0.00  0.00    +0.000 C 
ATOM     16  O   UNL     1      37.025   0.735  14.730  0.00  0.00    +0.000 OA
BRANCH  14  21
ATOM     17  C   UNL     1      37.835  -4.957  16.998  0.00  0.00    +0.000 C 
ATOM     18  C   UNL     1      37.169  -3.653  16.739  0.00  0.00    +0.000 A 
ATOM     19  C   UNL     1      36.597  -3.391  15.518  0.00  0.00    +0.000 A 
ATOM     20  C   UNL     1      35.962  -2.198  15.210  0.00  0.00    +0.000 A 
ATOM     21  C   UNL     1      35.938  -1.258  16.247  0.00  0.00    +0.000 A 
ATOM     22  C   UNL     1      36.499  -1.499  17.467  0.00  0.00    +0.000 A 
ATOM     23  C   UNL     1      36.460  -0.490  18.539  0.00  0.00    +0.000 C 
ATOM     24  C   UNL     1      37.114  -2.695  17.711  0.00  0.00    +0.000 A 
ENDBRANCH  14  21
ENDBRANCH  13  15
ENDBRANCH  12  13
ENDBRANCH   1  12
BRANCH   5  25
ATOM     25  C   UNL     1      38.554   5.998  15.382  0.00  0.00    +0.000 C 
BRANCH  25  26
ATOM     26  C   UNL     1      37.676   7.172  15.511  0.00  0.00    +0.000 A 
ATOM     27  C   UNL     1      36.578   7.354  14.673  0.00  0.00    +0.000 A 
ATOM     28  C   UNL     1      35.766   8.449  14.804  0.00  0.00    +0.000 A 
ATOM     29  C   UNL     1      36.038   9.373  15.769  0.00  0.00    +0.000 A 
ATOM     30  C   UNL     1      37.102   9.228  16.607  0.00  0.00    +0.000 A 
ATOM     31  C   UNL     1      37.896   8.132  16.459  0.00  0.00    +0.000 A 
ENDBRANCH  25  26
ENDBRANCH   5  25
TORSDOF 7
ENDMDL
