MODEL 1
REMARK VINA RESULT:      -7.3      0.000      0.000
REMARK  Name = 
REMARK  9 active torsions:
REMARK  status: ('A' for Active; 'I' for Inactive)
REMARK    1  A    between atoms: C_2  and  O_3
REMARK    2  A    between atoms: O_3  and  C_4
REMARK    3  A    between atoms: C_4  and  C_6
REMARK    4  A    between atoms: C_9  and  N_10
REMARK    5  A    between atoms: C_11  and  C_13
REMARK    6  A    between atoms: C_16  and  C_17
REMARK    7  A    between atoms: C_17  and  S_18
REMARK    8  A    between atoms: S_18  and  C_19
REMARK    9  A    between atoms: C_19  and  C_20
REMARK                            x       y       z     vdW  Elec       q    Type
REMARK                         _______ _______ _______ _____ _____    ______ ____
ROOT
ATOM      1  C   UNL     1      13.836  -0.199  27.742  0.00  0.00    +0.000 A 
ATOM      2  C   UNL     1      13.510  -0.198  29.081  0.00  0.00    +0.000 A 
ATOM      3  C   UNL     1      12.211  -0.417  29.504  0.00  0.00    +0.000 A 
ATOM      4  C   UNL     1      11.189  -0.646  28.610  0.00  0.00    +0.000 A 
ATOM      5  C   UNL     1      11.506  -0.649  27.268  0.00  0.00    +0.000 A 
ATOM      6  C   UNL     1      12.816  -0.427  26.845  0.00  0.00    +0.000 A 
ENDROOT
BRANCH   1   8
ATOM      7  N   UNL     1      15.585  -0.246  25.962  0.00  0.00    +0.000 NA
ATOM      8  C   UNL     1      15.216   0.036  27.310  0.00  0.00    +0.000 C 
ATOM      9  O   UNL     1      16.102   0.474  28.060  0.00  0.00    +0.000 OA
BRANCH   7  13
ATOM     10  C   UNL     1      19.591   0.324  24.660  0.00  0.00    +0.000 A 
ATOM     11  C   UNL     1      18.756   1.402  24.861  0.00  0.00    +0.000 A 
ATOM     12  C   UNL     1      17.438   1.228  25.288  0.00  0.00    +0.000 A 
ATOM     13  C   UNL     1      16.920  -0.026  25.525  0.00  0.00    +0.000 A 
ATOM     14  C   UNL     1      17.757  -1.104  25.324  0.00  0.00    +0.000 A 
ATOM     15  C   UNL     1      19.079  -0.930  24.895  0.00  0.00    +0.000 A 
BRANCH  10  16
ATOM     16  C   UNL     1      20.971   0.507  24.214  0.00  0.00    +0.000 C 
ATOM     17  O   UNL     1      21.948   0.326  24.982  0.00  0.00    +0.000 OA
BRANCH  16  18
ATOM     18  O   UNL     1      21.239   0.888  22.917  0.00  0.00    +0.000 OA
BRANCH  18  20
ATOM     19  C   UNL     1      21.230  -1.226  21.776  0.00  0.00    +0.000 C 
ATOM     20  C   UNL     1      20.658   0.191  21.802  0.00  0.00    +0.000 C 
ENDBRANCH  18  20
ENDBRANCH  16  18
ENDBRANCH  10  16
ENDBRANCH   7  13
ENDBRANCH   1   8
BRANCH   4  21
ATOM     21  C   UNL     1       9.792  -0.878  29.105  0.00  0.00    +0.000 C 
BRANCH  21  22
ATOM     22  S   UNL     1       8.705   0.088  27.987  0.00  0.00    +0.000 S 
BRANCH  22  23
ATOM     23  C   UNL     1       8.881   1.832  28.508  0.00  0.00    +0.000 C 
BRANCH  23  24
ATOM     24  C   UNL     1       9.893   2.537  27.693  0.00  0.00    +0.000 A 
ATOM     25  C   UNL     1       9.833   2.649  26.321  0.00  0.00    +0.000 A 
ATOM     26  C   UNL     1      10.830   3.328  25.644  0.00  0.00    +0.000 A 
ATOM     27  C   UNL     1      11.872   3.888  26.319  0.00  0.00    +0.000 A 
ATOM     28  C   UNL     1      11.946   3.785  27.688  0.00  0.00    +0.000 A 
ATOM     29  C   UNL     1      10.962   3.115  28.350  0.00  0.00    +0.000 A 
ENDBRANCH  23  24
ENDBRANCH  22  23
ENDBRANCH  21  22
ENDBRANCH   4  21
TORSDOF 9
ENDMDL
MODEL 2
REMARK VINA RESULT:      -6.5     23.513     25.966
REMARK  Name = 
REMARK  9 active torsions:
REMARK  status: ('A' for Active; 'I' for Inactive)
REMARK    1  A    between atoms: C_2  and  O_3
REMARK    2  A    between atoms: O_3  and  C_4
REMARK    3  A    between atoms: C_4  and  C_6
REMARK    4  A    between atoms: C_9  and  N_10
REMARK    5  A    between atoms: C_11  and  C_13
REMARK    6  A    between atoms: C_16  and  C_17
REMARK    7  A    between atoms: C_17  and  S_18
REMARK    8  A    between atoms: S_18  and  C_19
REMARK    9  A    between atoms: C_19  and  C_20
REMARK                            x       y       z     vdW  Elec       q    Type
REMARK                         _______ _______ _______ _____ _____    ______ ____
ROOT
ATOM      1  C   UNL     1      37.521   0.899  15.189  0.00  0.00    +0.000 A 
ATOM      2  C   UNL     1      36.408   0.212  14.754  0.00  0.00    +0.000 A 
ATOM      3  C   UNL     1      36.505  -1.085  14.283  0.00  0.00    +0.000 A 
ATOM      4  C   UNL     1      37.712  -1.746  14.226  0.00  0.00    +0.000 A 
ATOM      5  C   UNL     1      38.830  -1.066  14.659  0.00  0.00    +0.000 A 
ATOM      6  C   UNL     1      38.730   0.241  15.134  0.00  0.00    +0.000 A 
ENDROOT
BRANCH   1   8
ATOM      7  N   UNL     1      38.576   3.071  15.819  0.00  0.00    +0.000 NA
ATOM      8  C   UNL     1      37.403   2.273  15.685  0.00  0.00    +0.000 C 
ATOM      9  O   UNL     1      36.323   2.795  16.003  0.00  0.00    +0.000 OA
BRANCH   7  13
ATOM     10  C   UNL     1      38.281   7.089  17.175  0.00  0.00    +0.000 A 
ATOM     11  C   UNL     1      38.550   6.066  18.058  0.00  0.00    +0.000 A 
ATOM     12  C   UNL     1      38.650   4.742  17.625  0.00  0.00    +0.000 A 
ATOM     13  C   UNL     1      38.481   4.406  16.300  0.00  0.00    +0.000 A 
ATOM     14  C   UNL     1      38.211   5.432  15.417  0.00  0.00    +0.000 A 
ATOM     15  C   UNL     1      38.112   6.760  15.851  0.00  0.00    +0.000 A 
BRANCH  10  16
ATOM     16  C   UNL     1      38.178   8.475  17.629  0.00  0.00    +0.000 C 
ATOM     17  O   UNL     1      37.227   9.219  17.286  0.00  0.00    +0.000 OA
BRANCH  16  18
ATOM     18  O   UNL     1      39.140   9.008  18.460  0.00  0.00    +0.000 OA
BRANCH  18  20
ATOM     19  C   UNL     1      38.556   8.527  20.739  0.00  0.00    +0.000 C 
ATOM     20  C   UNL     1      38.786   9.629  19.706  0.00  0.00    +0.000 C 
ENDBRANCH  18  20
ENDBRANCH  16  18
ENDBRANCH  10  16
ENDBRANCH   7  13
ENDBRANCH   1   8
BRANCH   4  21
ATOM     21  C   UNL     1      37.778  -3.152  13.707  0.00  0.00    +0.000 C 
BRANCH  21  22
ATOM     22  S   UNL     1      36.515  -4.087  14.654  0.00  0.00    +0.000 S 
BRANCH  22  23
ATOM     23  C   UNL     1      37.258  -4.408  16.293  0.00  0.00    +0.000 C 
BRANCH  23  24
ATOM     24  C   UNL     1      37.098  -3.245  17.193  0.00  0.00    +0.000 A 
ATOM     25  C   UNL     1      35.914  -2.561  17.361  0.00  0.00    +0.000 A 
ATOM     26  C   UNL     1      35.861  -1.483  18.225  0.00  0.00    +0.000 A 
ATOM     27  C   UNL     1      36.969  -1.090  18.914  0.00  0.00    +0.000 A 
ATOM     28  C   UNL     1      38.158  -1.761  18.758  0.00  0.00    +0.000 A 
ATOM     29  C   UNL     1      38.204  -2.822  17.904  0.00  0.00    +0.000 A 
ENDBRANCH  23  24
ENDBRANCH  22  23
ENDBRANCH  21  22
ENDBRANCH   4  21
TORSDOF 9
ENDMDL
MODEL 3
REMARK VINA RESULT:      -6.3     25.350     27.469
REMARK  Name = 
REMARK  9 active torsions:
REMARK  status: ('A' for Active; 'I' for Inactive)
REMARK    1  A    between atoms: C_2  and  O_3
REMARK    2  A    between atoms: O_3  and  C_4
REMARK    3  A    between atoms: C_4  and  C_6
REMARK    4  A    between atoms: C_9  and  N_10
REMARK    5  A    between atoms: C_11  and  C_13
REMARK    6  A    between atoms: C_16  and  C_17
REMARK    7  A    between atoms: C_17  and  S_18
REMARK    8  A    between atoms: S_18  and  C_19
REMARK    9  A    between atoms: C_19  and  C_20
REMARK                            x       y       z     vdW  Elec       q    Type
REMARK                         _______ _______ _______ _____ _____    ______ ____
ROOT
ATOM      1  C   UNL     1      38.801   6.110  18.462  0.00  0.00    +0.000 A 
ATOM      2  C   UNL     1      38.189   7.318  18.208  0.00  0.00    +0.000 A 
ATOM      3  C   UNL     1      38.505   8.450  18.938  0.00  0.00    +0.000 A 
ATOM      4  C   UNL     1      39.441   8.421  19.947  0.00  0.00    +0.000 A 
ATOM      5  C   UNL     1      40.058   7.216  20.208  0.00  0.00    +0.000 A 
ATOM      6  C   UNL     1      39.738   6.077  19.471  0.00  0.00    +0.000 A 
ENDROOT
BRANCH   1   8
ATOM      7  N   UNL     1      38.314   5.028  16.266  0.00  0.00    +0.000 NA
ATOM      8  C   UNL     1      38.455   4.920  17.680  0.00  0.00    +0.000 C 
ATOM      9  O   UNL     1      38.272   3.800  18.183  0.00  0.00    +0.000 OA
BRANCH   7  13
ATOM     10  C   UNL     1      37.391   1.595  13.936  0.00  0.00    +0.000 A 
ATOM     11  C   UNL     1      36.388   2.387  14.451  0.00  0.00    +0.000 A 
ATOM     12  C   UNL     1      36.677   3.517  15.218  0.00  0.00    +0.000 A 
ATOM     13  C   UNL     1      37.976   3.884  15.491  0.00  0.00    +0.000 A 
ATOM     14  C   UNL     1      38.980   3.091  14.974  0.00  0.00    +0.000 A 
ATOM     15  C   UNL     1      38.689   1.957  14.205  0.00  0.00    +0.000 A 
BRANCH  10  16
ATOM     16  C   UNL     1      37.086   0.412  13.132  0.00  0.00    +0.000 C 
ATOM     17  O   UNL     1      36.583   0.499  11.985  0.00  0.00    +0.000 OA
BRANCH  16  18
ATOM     18  O   UNL     1      37.351  -0.849  13.622  0.00  0.00    +0.000 OA
BRANCH  18  20
ATOM     19  C   UNL     1      37.553  -1.427  15.944  0.00  0.00    +0.000 C 
ATOM     20  C   UNL     1      36.618  -1.383  14.736  0.00  0.00    +0.000 C 
ENDBRANCH  18  20
ENDBRANCH  16  18
ENDBRANCH  10  16
ENDBRANCH   7  13
ENDBRANCH   1   8
BRANCH   4  21
ATOM     21  C   UNL     1      39.756   9.668  20.719  0.00  0.00    +0.000 C 
BRANCH  21  22
ATOM     22  S   UNL     1      41.567   9.908  20.550  0.00  0.00    +0.000 S 
BRANCH  22  23
ATOM     23  C   UNL     1      41.863  10.234  18.776  0.00  0.00    +0.000 C 
BRANCH  23  24
ATOM     24  C   UNL     1      42.055   8.976  18.023  0.00  0.00    +0.000 A 
ATOM     25  C   UNL     1      41.410   8.682  16.841  0.00  0.00    +0.000 A 
ATOM     26  C   UNL     1      41.654   7.476  16.209  0.00  0.00    +0.000 A 
ATOM     27  C   UNL     1      42.526   6.575  16.741  0.00  0.00    +0.000 A 
ATOM     28  C   UNL     1      43.177   6.854  17.919  0.00  0.00    +0.000 A 
ATOM     29  C   UNL     1      42.933   8.042  18.539  0.00  0.00    +0.000 A 
ENDBRANCH  23  24
ENDBRANCH  22  23
ENDBRANCH  21  22
ENDBRANCH   4  21
TORSDOF 9
ENDMDL
MODEL 4
REMARK VINA RESULT:      -6.3     24.378     26.748
REMARK  Name = 
REMARK  9 active torsions:
REMARK  status: ('A' for Active; 'I' for Inactive)
REMARK    1  A    between atoms: C_2  and  O_3
REMARK    2  A    between atoms: O_3  and  C_4
REMARK    3  A    between atoms: C_4  and  C_6
REMARK    4  A    between atoms: C_9  and  N_10
REMARK    5  A    between atoms: C_11  and  C_13
REMARK    6  A    between atoms: C_16  and  C_17
REMARK    7  A    between atoms: C_17  and  S_18
REMARK    8  A    between atoms: S_18  and  C_19
REMARK    9  A    between atoms: C_19  and  C_20
REMARK                            x       y       z     vdW  Elec       q    Type
REMARK                         _______ _______ _______ _____ _____    ______ ____
ROOT
ATOM      1  C   UNL     1      38.043   2.478  14.972  0.00  0.00    +0.000 A 
ATOM      2  C   UNL     1      36.917   1.967  14.363  0.00  0.00    +0.000 A 
ATOM      3  C   UNL     1      37.011   1.006  13.373  0.00  0.00    +0.000 A 
ATOM      4  C   UNL     1      38.228   0.518  12.952  0.00  0.00    +0.000 A 
ATOM      5  C   UNL     1      39.359   1.024  13.555  0.00  0.00    +0.000 A 
ATOM      6  C   UNL     1      39.262   1.992  14.553  0.00  0.00    +0.000 A 
ENDROOT
BRANCH   1   8
ATOM      7  N   UNL     1      38.946   4.485  16.149  0.00  0.00    +0.000 NA
ATOM      8  C   UNL     1      37.927   3.497  16.019  0.00  0.00    +0.000 C 
ATOM      9  O   UNL     1      36.978   3.554  16.816  0.00  0.00    +0.000 OA
BRANCH   7  13
ATOM     10  C   UNL     1      38.631   7.515  19.113  0.00  0.00    +0.000 A 
ATOM     11  C   UNL     1      39.211   6.300  19.407  0.00  0.00    +0.000 A 
ATOM     12  C   UNL     1      39.320   5.297  18.443  0.00  0.00    +0.000 A 
ATOM     13  C   UNL     1      38.853   5.480  17.161  0.00  0.00    +0.000 A 
ATOM     14  C   UNL     1      38.273   6.697  16.867  0.00  0.00    +0.000 A 
ATOM     15  C   UNL     1      38.163   7.704  17.834  0.00  0.00    +0.000 A 
BRANCH  10  16
ATOM     16  C   UNL     1      38.518   8.567  20.123  0.00  0.00    +0.000 C 
ATOM     17  O   UNL     1      37.408   8.932  20.582  0.00  0.00    +0.000 OA
BRANCH  16  18
ATOM     18  O   UNL     1      39.648   9.192  20.605  0.00  0.00    +0.000 OA
BRANCH  18  20
ATOM     19  C   UNL     1      39.922  11.143  19.231  0.00  0.00    +0.000 C 
ATOM     20  C   UNL     1      39.740  10.625  20.657  0.00  0.00    +0.000 C 
ENDBRANCH  18  20
ENDBRANCH  16  18
ENDBRANCH  10  16
ENDBRANCH   7  13
ENDBRANCH   1   8
BRANCH   4  21
ATOM     21  C   UNL     1      38.290  -0.523  11.874  0.00  0.00    +0.000 C 
BRANCH  21  22
ATOM     22  S   UNL     1      39.320  -1.879  12.557  0.00  0.00    +0.000 S 
BRANCH  22  23
ATOM     23  C   UNL     1      38.155  -3.024  13.378  0.00  0.00    +0.000 C 
BRANCH  23  24
ATOM     24  C   UNL     1      37.573  -2.418  14.595  0.00  0.00    +0.000 A 
ATOM     25  C   UNL     1      36.220  -2.274  14.809  0.00  0.00    +0.000 A 
ATOM     26  C   UNL     1      35.768  -1.692  15.979  0.00  0.00    +0.000 A 
ATOM     27  C   UNL     1      36.648  -1.259  16.925  0.00  0.00    +0.000 A 
ATOM     28  C   UNL     1      38.002  -1.396  16.726  0.00  0.00    +0.000 A 
ATOM     29  C   UNL     1      38.441  -1.969  15.571  0.00  0.00    +0.000 A 
ENDBRANCH  23  24
ENDBRANCH  22  23
ENDBRANCH  21  22
ENDBRANCH   4  21
TORSDOF 9
ENDMDL
MODEL 5
REMARK VINA RESULT:      -6.1     25.307     27.568
REMARK  Name = 
REMARK  9 active torsions:
REMARK  status: ('A' for Active; 'I' for Inactive)
REMARK    1  A    between atoms: C_2  and  O_3
REMARK    2  A    between atoms: O_3  and  C_4
REMARK    3  A    between atoms: C_4  and  C_6
REMARK    4  A    between atoms: C_9  and  N_10
REMARK    5  A    between atoms: C_11  and  C_13
REMARK    6  A    between atoms: C_16  and  C_17
REMARK    7  A    between atoms: C_17  and  S_18
REMARK    8  A    between atoms: S_18  and  C_19
REMARK    9  A    between atoms: C_19  and  C_20
REMARK                            x       y       z     vdW  Elec       q    Type
REMARK                         _______ _______ _______ _____ _____    ______ ____
ROOT
ATOM      1  C   UNL     1      38.768   6.154  18.478  0.00  0.00    +0.000 A 
ATOM      2  C   UNL     1      39.726   6.117  19.468  0.00  0.00    +0.000 A 
ATOM      3  C   UNL     1      40.051   7.247  20.195  0.00  0.00    +0.000 A 
ATOM      4  C   UNL     1      39.435   8.457  19.964  0.00  0.00    +0.000 A 
ATOM      5  C   UNL     1      38.475   8.504  18.976  0.00  0.00    +0.000 A 
ATOM      6  C   UNL     1      38.149   7.363  18.244  0.00  0.00    +0.000 A 
ENDROOT
BRANCH   1   8
ATOM      7  N   UNL     1      38.241   5.043  16.307  0.00  0.00    +0.000 NA
ATOM      8  C   UNL     1      38.435   4.948  17.716  0.00  0.00    +0.000 C 
ATOM      9  O   UNL     1      38.308   3.826  18.230  0.00  0.00    +0.000 OA
BRANCH   7  13
ATOM     10  C   UNL     1      37.353   1.565  14.030  0.00  0.00    +0.000 A 
ATOM     11  C   UNL     1      36.342   2.330  14.569  0.00  0.00    +0.000 A 
ATOM     12  C   UNL     1      36.620   3.474  15.319  0.00  0.00    +0.000 A 
ATOM     13  C   UNL     1      37.915   3.883  15.550  0.00  0.00    +0.000 A 
ATOM     14  C   UNL     1      38.926   3.116  15.009  0.00  0.00    +0.000 A 
ATOM     15  C   UNL     1      38.647   1.968  14.257  0.00  0.00    +0.000 A 
BRANCH  10  16
ATOM     16  C   UNL     1      37.061   0.367  13.243  0.00  0.00    +0.000 C 
ATOM     17  O   UNL     1      37.094  -0.783  13.744  0.00  0.00    +0.000 OA
BRANCH  16  18
ATOM     18  O   UNL     1      36.734   0.474  11.908  0.00  0.00    +0.000 OA
BRANCH  18  20
ATOM     19  C   UNL     1      36.955   1.585   9.790  0.00  0.00    +0.000 C 
ATOM     20  C   UNL     1      37.702   0.908  10.938  0.00  0.00    +0.000 C 
ENDBRANCH  18  20
ENDBRANCH  16  18
ENDBRANCH  10  16
ENDBRANCH   7  13
ENDBRANCH   1   8
BRANCH   4  21
ATOM     21  C   UNL     1      39.816   9.663  20.772  0.00  0.00    +0.000 C 
BRANCH  21  22
ATOM     22  S   UNL     1      41.624   9.866  20.532  0.00  0.00    +0.000 S 
BRANCH  22  23
ATOM     23  C   UNL     1      41.858  10.160  18.743  0.00  0.00    +0.000 C 
BRANCH  23  24
ATOM     24  C   UNL     1      42.090   8.893  18.015  0.00  0.00    +0.000 A 
ATOM     25  C   UNL     1      42.973   7.920  18.429  0.00  0.00    +0.000 A 
ATOM     26  C   UNL     1      43.123   6.767  17.681  0.00  0.00    +0.000 A 
ATOM     27  C   UNL     1      42.406   6.582  16.538  0.00  0.00    +0.000 A 
ATOM     28  C   UNL     1      41.521   7.543  16.111  0.00  0.00    +0.000 A 
ATOM     29  C   UNL     1      41.377   8.677  16.852  0.00  0.00    +0.000 A 
ENDBRANCH  23  24
ENDBRANCH  22  23
ENDBRANCH  21  22
ENDBRANCH   4  21
TORSDOF 9
ENDMDL
MODEL 6
REMARK VINA RESULT:      -6.1     22.987     25.302
REMARK  Name = 
REMARK  9 active torsions:
REMARK  status: ('A' for Active; 'I' for Inactive)
REMARK    1  A    between atoms: C_2  and  O_3
REMARK    2  A    between atoms: O_3  and  C_4
REMARK    3  A    between atoms: C_4  and  C_6
REMARK    4  A    between atoms: C_9  and  N_10
REMARK    5  A    between atoms: C_11  and  C_13
REMARK    6  A    between atoms: C_16  and  C_17
REMARK    7  A    between atoms: C_17  and  S_18
REMARK    8  A    between atoms: S_18  and  C_19
REMARK    9  A    between atoms: C_19  and  C_20
REMARK                            x       y       z     vdW  Elec       q    Type
REMARK                         _______ _______ _______ _____ _____    ______ ____
ROOT
ATOM      1  C   UNL     1      35.313   5.110  13.791  0.00  0.00    +0.000 A 
ATOM      2  C   UNL     1      35.935   5.312  12.578  0.00  0.00    +0.000 A 
ATOM      3  C   UNL     1      35.552   6.341  11.737  0.00  0.00    +0.000 A 
ATOM      4  C   UNL     1      34.536   7.207  12.072  0.00  0.00    +0.000 A 
ATOM      5  C   UNL     1      33.907   7.013  13.284  0.00  0.00    +0.000 A 
ATOM      6  C   UNL     1      34.295   5.975  14.129  0.00  0.00    +0.000 A 
ENDROOT
BRANCH   1   8
ATOM      7  N   UNL     1      34.971   2.807  14.690  0.00  0.00    +0.000 NA
ATOM      8  C   UNL     1      35.729   4.014  14.670  0.00  0.00    +0.000 C 
ATOM      9  O   UNL     1      36.720   4.073  15.414  0.00  0.00    +0.000 OA
BRANCH   7  13
ATOM     10  C   UNL     1      36.174  -0.437  17.159  0.00  0.00    +0.000 A 
ATOM     11  C   UNL     1      35.329   0.539  17.641  0.00  0.00    +0.000 A 
ATOM     12  C   UNL     1      34.927   1.609  16.841  0.00  0.00    +0.000 A 
ATOM     13  C   UNL     1      35.359   1.733  15.539  0.00  0.00    +0.000 A 
ATOM     14  C   UNL     1      36.205   0.756  15.057  0.00  0.00    +0.000 A 
ATOM     15  C   UNL     1      36.609  -0.319  15.860  0.00  0.00    +0.000 A 
BRANCH  10  16
ATOM     16  C   UNL     1      36.594  -1.559  17.998  0.00  0.00    +0.000 C 
ATOM     17  O   UNL     1      36.419  -1.563  19.241  0.00  0.00    +0.000 OA
BRANCH  16  18
ATOM     18  O   UNL     1      37.203  -2.660  17.433  0.00  0.00    +0.000 OA
BRANCH  18  20
ATOM     19  C   UNL     1      39.326  -2.934  16.343  0.00  0.00    +0.000 C 
ATOM     20  C   UNL     1      38.587  -2.953  17.681  0.00  0.00    +0.000 C 
ENDBRANCH  18  20
ENDBRANCH  16  18
ENDBRANCH  10  16
ENDBRANCH   7  13
ENDBRANCH   1   8
BRANCH   4  21
ATOM     21  C   UNL     1      34.147   8.311  11.134  0.00  0.00    +0.000 C 
BRANCH  21  22
ATOM     22  S   UNL     1      34.463   9.870  12.048  0.00  0.00    +0.000 S 
BRANCH  22  23
ATOM     23  C   UNL     1      36.270   9.929  12.321  0.00  0.00    +0.000 C 
BRANCH  23  24
ATOM     24  C   UNL     1      36.642   9.283  13.598  0.00  0.00    +0.000 A 
ATOM     25  C   UNL     1      35.976   9.489  14.786  0.00  0.00    +0.000 A 
ATOM     26  C   UNL     1      36.399   8.840  15.931  0.00  0.00    +0.000 A 
ATOM     27  C   UNL     1      37.468   7.997  15.898  0.00  0.00    +0.000 A 
ATOM     28  C   UNL     1      38.144   7.781  14.721  0.00  0.00    +0.000 A 
ATOM     29  C   UNL     1      37.723   8.423  13.596  0.00  0.00    +0.000 A 
ENDBRANCH  23  24
ENDBRANCH  22  23
ENDBRANCH  21  22
ENDBRANCH   4  21
TORSDOF 9
ENDMDL
MODEL 7
REMARK VINA RESULT:      -6.1     23.598     27.400
REMARK  Name = 
REMARK  9 active torsions:
REMARK  status: ('A' for Active; 'I' for Inactive)
REMARK    1  A    between atoms: C_2  and  O_3
REMARK    2  A    between atoms: O_3  and  C_4
REMARK    3  A    between atoms: C_4  and  C_6
REMARK    4  A    between atoms: C_9  and  N_10
REMARK    5  A    between atoms: C_11  and  C_13
REMARK    6  A    between atoms: C_16  and  C_17
REMARK    7  A    between atoms: C_17  and  S_18
REMARK    8  A    between atoms: S_18  and  C_19
REMARK    9  A    between atoms: C_19  and  C_20
REMARK                            x       y       z     vdW  Elec       q    Type
REMARK                         _______ _______ _______ _____ _____    ______ ____
ROOT
ATOM      1  C   UNL     1      39.725   5.591  18.086  0.00  0.00    +0.000 A 
ATOM      2  C   UNL     1      38.608   4.812  18.299  0.00  0.00    +0.000 A 
ATOM      3  C   UNL     1      37.925   4.234  17.245  0.00  0.00    +0.000 A 
ATOM      4  C   UNL     1      38.327   4.410  15.940  0.00  0.00    +0.000 A 
ATOM      5  C   UNL     1      39.443   5.189  15.717  0.00  0.00    +0.000 A 
ATOM      6  C   UNL     1      40.130   5.770  16.782  0.00  0.00    +0.000 A 
ENDROOT
BRANCH   1   8
ATOM      7  N   UNL     1      41.852   6.362  19.140  0.00  0.00    +0.000 NA
ATOM      8  C   UNL     1      40.438   6.198  19.214  0.00  0.00    +0.000 C 
ATOM      9  O   UNL     1      39.876   6.584  20.250  0.00  0.00    +0.000 OA
BRANCH   7  13
ATOM     10  C   UNL     1      43.982   8.029  22.419  0.00  0.00    +0.000 A 
ATOM     11  C   UNL     1      43.469   8.838  21.429  0.00  0.00    +0.000 A 
ATOM     12  C   UNL     1      42.768   8.303  20.346  0.00  0.00    +0.000 A 
ATOM     13  C   UNL     1      42.562   6.947  20.225  0.00  0.00    +0.000 A 
ATOM     14  C   UNL     1      43.075   6.138  21.218  0.00  0.00    +0.000 A 
ATOM     15  C   UNL     1      43.778   6.674  22.304  0.00  0.00    +0.000 A 
BRANCH  10  16
ATOM     16  C   UNL     1      44.715   8.590  23.554  0.00  0.00    +0.000 C 
ATOM     17  O   UNL     1      44.987   9.813  23.631  0.00  0.00    +0.000 OA
BRANCH  16  18
ATOM     18  O   UNL     1      45.130   7.775  24.585  0.00  0.00    +0.000 OA
BRANCH  18  20
ATOM     19  C   UNL     1      43.772   6.428  26.039  0.00  0.00    +0.000 C 
ATOM     20  C   UNL     1      44.458   7.781  25.855  0.00  0.00    +0.000 C 
ENDBRANCH  18  20
ENDBRANCH  16  18
ENDBRANCH  10  16
ENDBRANCH   7  13
ENDBRANCH   1   8
BRANCH   4  21
ATOM     21  C   UNL     1      37.559   3.769  14.822  0.00  0.00    +0.000 C 
BRANCH  21  22
ATOM     22  S   UNL     1      35.956   3.260  15.553  0.00  0.00    +0.000 S 
BRANCH  22  23
ATOM     23  C   UNL     1      35.695   1.529  15.027  0.00  0.00    +0.000 C 
BRANCH  23  24
ATOM     24  C   UNL     1      35.706   0.608  16.184  0.00  0.00    +0.000 A 
ATOM     25  C   UNL     1      35.530  -0.755  16.083  0.00  0.00    +0.000 A 
ATOM     26  C   UNL     1      35.555  -1.536  17.223  0.00  0.00    +0.000 A 
ATOM     27  C   UNL     1      35.753  -0.973  18.448  0.00  0.00    +0.000 A 
ATOM     28  C   UNL     1      35.930   0.385  18.566  0.00  0.00    +0.000 A 
ATOM     29  C   UNL     1      35.904   1.150  17.439  0.00  0.00    +0.000 A 
ENDBRANCH  23  24
ENDBRANCH  22  23
ENDBRANCH  21  22
ENDBRANCH   4  21
TORSDOF 9
ENDMDL
MODEL 8
REMARK VINA RESULT:      -6.0     22.848     25.726
REMARK  Name = 
REMARK  9 active torsions:
REMARK  status: ('A' for Active; 'I' for Inactive)
REMARK    1  A    between atoms: C_2  and  O_3
REMARK    2  A    between atoms: O_3  and  C_4
REMARK    3  A    between atoms: C_4  and  C_6
REMARK    4  A    between atoms: C_9  and  N_10
REMARK    5  A    between atoms: C_11  and  C_13
REMARK    6  A    between atoms: C_16  and  C_17
REMARK    7  A    between atoms: C_17  and  S_18
REMARK    8  A    between atoms: S_18  and  C_19
REMARK    9  A    between atoms: C_19  and  C_20
REMARK                            x       y       z     vdW  Elec       q    Type
REMARK                         _______ _______ _______ _____ _____    ______ ____
ROOT
ATOM      1  C   UNL     1      37.162   3.410  16.212  0.00  0.00    +0.000 A 
ATOM      2  C   UNL     1      37.173   4.442  15.298  0.00  0.00    +0.000 A 
ATOM      3  C   UNL     1      37.810   5.638  15.573  0.00  0.00    +0.000 A 
ATOM      4  C   UNL     1      38.460   5.852  16.769  0.00  0.00    +0.000 A 
ATOM      5  C   UNL     1      38.453   4.826  17.689  0.00  0.00    +0.000 A 
ATOM      6  C   UNL     1      37.810   3.621  17.408  0.00  0.00    +0.000 A 
ENDROOT
BRANCH   1   8
ATOM      7  N   UNL     1      36.922   0.947  16.531  0.00  0.00    +0.000 NA
ATOM      8  C   UNL     1      36.481   2.149  15.905  0.00  0.00    +0.000 C 
ATOM      9  O   UNL     1      35.526   2.061  15.119  0.00  0.00    +0.000 OA
BRANCH   7  13
ATOM     10  C   UNL     1      34.938  -2.730  15.746  0.00  0.00    +0.000 A 
ATOM     11  C   UNL     1      35.985  -2.312  14.955  0.00  0.00    +0.000 A 
ATOM     12  C   UNL     1      36.645  -1.106  15.202  0.00  0.00    +0.000 A 
ATOM     13  C   UNL     1      36.275  -0.287  16.245  0.00  0.00    +0.000 A 
ATOM     14  C   UNL     1      35.226  -0.707  17.037  0.00  0.00    +0.000 A 
ATOM     15  C   UNL     1      34.564  -1.916  16.790  0.00  0.00    +0.000 A 
BRANCH  10  16
ATOM     16  C   UNL     1      34.248  -3.993  15.488  0.00  0.00    +0.000 C 
ATOM     17  O   UNL     1      33.000  -4.098  15.566  0.00  0.00    +0.000 OA
BRANCH  16  18
ATOM     18  O   UNL     1      34.965  -5.119  15.145  0.00  0.00    +0.000 OA
BRANCH  18  20
ATOM     19  C   UNL     1      34.029  -7.050  14.066  0.00  0.00    +0.000 C 
ATOM     20  C   UNL     1      34.450  -6.436  15.400  0.00  0.00    +0.000 C 
ENDBRANCH  18  20
ENDBRANCH  16  18
ENDBRANCH  10  16
ENDBRANCH   7  13
ENDBRANCH   1   8
BRANCH   4  21
ATOM     21  C   UNL     1      39.139   7.164  17.033  0.00  0.00    +0.000 C 
BRANCH  21  22
ATOM     22  S   UNL     1      37.907   8.184  17.932  0.00  0.00    +0.000 S 
BRANCH  22  23
ATOM     23  C   UNL     1      38.334   8.032  19.704  0.00  0.00    +0.000 C 
BRANCH  23  24
ATOM     24  C   UNL     1      39.781   7.789  19.889  0.00  0.00    +0.000 A 
ATOM     25  C   UNL     1      40.328   6.546  20.114  0.00  0.00    +0.000 A 
ATOM     26  C   UNL     1      41.695   6.417  20.277  0.00  0.00    +0.000 A 
ATOM     27  C   UNL     1      42.508   7.508  20.218  0.00  0.00    +0.000 A 
ATOM     28  C   UNL     1      41.978   8.756  19.994  0.00  0.00    +0.000 A 
ATOM     29  C   UNL     1      40.630   8.878  19.835  0.00  0.00    +0.000 A 
ENDBRANCH  23  24
ENDBRANCH  22  23
ENDBRANCH  21  22
ENDBRANCH   4  21
TORSDOF 9
ENDMDL
MODEL 9
REMARK VINA RESULT:      -5.9     23.398     27.860
REMARK  Name = 
REMARK  9 active torsions:
REMARK  status: ('A' for Active; 'I' for Inactive)
REMARK    1  A    between atoms: C_2  and  O_3
REMARK    2  A    between atoms: O_3  and  C_4
REMARK    3  A    between atoms: C_4  and  C_6
REMARK    4  A    between atoms: C_9  and  N_10
REMARK    5  A    between atoms: C_11  and  C_13
REMARK    6  A    between atoms: C_16  and  C_17
REMARK    7  A    between atoms: C_17  and  S_18
REMARK    8  A    between atoms: S_18  and  C_19
REMARK    9  A    between atoms: C_19  and  C_20
REMARK                            x       y       z     vdW  Elec       q    Type
REMARK                         _______ _______ _______ _____ _____    ______ ____
ROOT
ATOM      1  C   UNL     1      39.982   5.806  18.311  0.00  0.00    +0.000 A 
ATOM      2  C   UNL     1      40.389   6.124  17.033  0.00  0.00    +0.000 A 
ATOM      3  C   UNL     1      39.721   5.638  15.925  0.00  0.00    +0.000 A 
ATOM      4  C   UNL     1      38.622   4.816  16.046  0.00  0.00    +0.000 A 
ATOM      5  C   UNL     1      38.208   4.492  17.320  0.00  0.00    +0.000 A 
ATOM      6  C   UNL     1      38.884   4.984  18.436  0.00  0.00    +0.000 A 
ENDROOT
BRANCH   1   8
ATOM      7  N   UNL     1      42.124   6.403  19.443  0.00  0.00    +0.000 NA
ATOM      8  C   UNL     1      40.701   6.328  19.475  0.00  0.00    +0.000 C 
ATOM      9  O   UNL     1      40.138   6.718  20.510  0.00  0.00    +0.000 OA
BRANCH   7  13
ATOM     10  C   UNL     1      44.261   7.984  22.760  0.00  0.00    +0.000 A 
ATOM     11  C   UNL     1      43.996   6.635  22.672  0.00  0.00    +0.000 A 
ATOM     12  C   UNL     1      43.295   6.103  21.588  0.00  0.00    +0.000 A 
ATOM     13  C   UNL     1      42.840   6.905  20.565  0.00  0.00    +0.000 A 
ATOM     14  C   UNL     1      43.107   8.256  20.654  0.00  0.00    +0.000 A 
ATOM     15  C   UNL     1      43.810   8.790  21.741  0.00  0.00    +0.000 A 
BRANCH  10  16
ATOM     16  C   UNL     1      44.997   8.541  23.895  0.00  0.00    +0.000 C 
ATOM     17  O   UNL     1      46.247   8.652  23.887  0.00  0.00    +0.000 OA
BRANCH  16  18
ATOM     18  O   UNL     1      44.323   8.965  25.020  0.00  0.00    +0.000 OA
BRANCH  18  20
ATOM     19  C   UNL     1      43.874  11.281  24.564  0.00  0.00    +0.000 C 
ATOM     20  C   UNL     1      44.507  10.291  25.542  0.00  0.00    +0.000 C 
ENDBRANCH  18  20
ENDBRANCH  16  18
ENDBRANCH  10  16
ENDBRANCH   7  13
ENDBRANCH   1   8
BRANCH   4  21
ATOM     21  C   UNL     1      37.924   4.306  14.820  0.00  0.00    +0.000 C 
BRANCH  21  22
ATOM     22  S   UNL     1      38.409   2.543  14.674  0.00  0.00    +0.000 S 
BRANCH  22  23
ATOM     23  C   UNL     1      36.934   1.673  14.033  0.00  0.00    +0.000 C 
BRANCH  23  24
ATOM     24  C   UNL     1      36.178   1.020  15.124  0.00  0.00    +0.000 A 
ATOM     25  C   UNL     1      35.441   1.706  16.064  0.00  0.00    +0.000 A 
ATOM     26  C   UNL     1      34.767   1.008  17.049  0.00  0.00    +0.000 A 
ATOM     27  C   UNL     1      34.825  -0.352  17.101  0.00  0.00    +0.000 A 
ATOM     28  C   UNL     1      35.556  -1.051  16.170  0.00  0.00    +0.000 A 
ATOM     29  C   UNL     1      36.218  -0.358  15.202  0.00  0.00    +0.000 A 
ENDBRANCH  23  24
ENDBRANCH  22  23
ENDBRANCH  21  22
ENDBRANCH   4  21
TORSDOF 9
ENDMDL
MODEL 10
REMARK VINA RESULT:      -5.9     23.561     25.608
REMARK  Name = 
REMARK  9 active torsions:
REMARK  status: ('A' for Active; 'I' for Inactive)
REMARK    1  A    between atoms: C_2  and  O_3
REMARK    2  A    between atoms: O_3  and  C_4
REMARK    3  A    between atoms: C_4  and  C_6
REMARK    4  A    between atoms: C_9  and  N_10
REMARK    5  A    between atoms: C_11  and  C_13
REMARK    6  A    between atoms: C_16  and  C_17
REMARK    7  A    between atoms: C_17  and  S_18
REMARK    8  A    between atoms: S_18  and  C_19
REMARK    9  A    between atoms: C_19  and  C_20
REMARK                            x       y       z     vdW  Elec       q    Type
REMARK                         _______ _______ _______ _____ _____    ______ ____
ROOT
ATOM      1  C   UNL     1      37.829  -0.368  13.809  0.00  0.00    +0.000 A 
ATOM      2  C   UNL     1      38.820   0.154  14.612  0.00  0.00    +0.000 A 
ATOM      3  C   UNL     1      39.297   1.438  14.420  0.00  0.00    +0.000 A 
ATOM      4  C   UNL     1      38.806   2.250  13.422  0.00  0.00    +0.000 A 
ATOM      5  C   UNL     1      37.814   1.736  12.614  0.00  0.00    +0.000 A 
ATOM      6  C   UNL     1      37.335   0.441  12.810  0.00  0.00    +0.000 A 
ENDROOT
BRANCH   1   8
ATOM      7  N   UNL     1      36.379  -1.973  15.054  0.00  0.00    +0.000 NA
ATOM      8  C   UNL     1      37.334  -1.731  14.025  0.00  0.00    +0.000 C 
ATOM      9  O   UNL     1      37.703  -2.706  13.353  0.00  0.00    +0.000 OA
BRANCH   7  13
ATOM     10  C   UNL     1      34.988  -5.925  15.775  0.00  0.00    +0.000 A 
ATOM     11  C   UNL     1      34.265  -5.056  14.988  0.00  0.00    +0.000 A 
ATOM     12  C   UNL     1      34.710  -3.756  14.743  0.00  0.00    +0.000 A 
ATOM     13  C   UNL     1      35.889  -3.289  15.280  0.00  0.00    +0.000 A 
ATOM     14  C   UNL     1      36.614  -4.160  16.068  0.00  0.00    +0.000 A 
ATOM     15  C   UNL     1      36.167  -5.465  16.313  0.00  0.00    +0.000 A 
BRANCH  10  16
ATOM     16  C   UNL     1      34.522  -7.287  16.029  0.00  0.00    +0.000 C 
ATOM     17  O   UNL     1      34.951  -7.969  16.991  0.00  0.00    +0.000 OA
BRANCH  16  18
ATOM     18  O   UNL     1      33.581  -7.866  15.204  0.00  0.00    +0.000 OA
BRANCH  18  20
ATOM     19  C   UNL     1      33.813 -10.102  14.359  0.00  0.00    +0.000 C 
ATOM     20  C   UNL     1      33.971  -8.615  14.042  0.00  0.00    +0.000 C 
ENDBRANCH  18  20
ENDBRANCH  16  18
ENDBRANCH  10  16
ENDBRANCH   7  13
ENDBRANCH   1   8
BRANCH   4  21
ATOM     21  C   UNL     1      39.349   3.636  13.243  0.00  0.00    +0.000 C 
BRANCH  21  22
ATOM     22  S   UNL     1      39.370   4.378  14.921  0.00  0.00    +0.000 S 
BRANCH  22  23
ATOM     23  C   UNL     1      37.694   5.059  15.185  0.00  0.00    +0.000 C 
BRANCH  23  24
ATOM     24  C   UNL     1      36.708   3.983  15.422  0.00  0.00    +0.000 A 
ATOM     25  C   UNL     1      35.602   3.767  14.630  0.00  0.00    +0.000 A 
ATOM     26  C   UNL     1      34.733   2.734  14.931  0.00  0.00    +0.000 A 
ATOM     27  C   UNL     1      34.960   1.926  16.005  0.00  0.00    +0.000 A 
ATOM     28  C   UNL     1      36.058   2.129  16.805  0.00  0.00    +0.000 A 
ATOM     29  C   UNL     1      36.911   3.148  16.504  0.00  0.00    +0.000 A 
ENDBRANCH  23  24
ENDBRANCH  22  23
ENDBRANCH  21  22
ENDBRANCH   4  21
TORSDOF 9
ENDMDL
