MODEL 1
REMARK VINA RESULT:      -8.0      0.000      0.000
REMARK  Name = 
REMARK  6 active torsions:
REMARK  status: ('A' for Active; 'I' for Inactive)
REMARK    1  A    between atoms: C_2  and  C_5
REMARK    2  A    between atoms: C_7  and  C_8
REMARK    3  A    between atoms: N_10  and  N_11
REMARK    4  A    between atoms: C_12  and  C_13
REMARK    5  A    between atoms: N_15  and  C_16
REMARK    6  A    between atoms: C_16  and  C_17
REMARK                            x       y       z     vdW  Elec       q    Type
REMARK                         _______ _______ _______ _____ _____    ______ ____
ROOT
ATOM      1  C   UNL     1      12.007   0.464  26.819  0.00  0.00    +0.000 A 
ATOM      2  C   UNL     1      10.891  -0.289  26.923  0.00  0.00    +0.000 A 
ATOM      3  N   UNL     1       9.820   0.542  27.135  0.00  0.00    +0.000 N 
ATOM      4  C   UNL     1      10.282   1.772  27.163  0.00  0.00    +0.000 A 
ATOM      5  C   UNL     1       9.612   2.985  27.398  0.00  0.00    +0.000 A 
ATOM      6  C   UNL     1      10.331   4.167  27.426  0.00  0.00    +0.000 A 
ATOM      7  C   UNL     1      11.701   4.193  27.228  0.00  0.00    +0.000 A 
ATOM      8  C   UNL     1      12.349   2.985  26.999  0.00  0.00    +0.000 A 
ATOM      9  C   UNL     1      11.612   1.844  26.976  0.00  0.00    +0.000 A 
ENDROOT
BRANCH   1  11
ATOM     10  N   UNL     1      14.311  -0.478  27.097  0.00  0.00    +0.000 NA
ATOM     11  C   UNL     1      13.347   0.121  26.554  0.00  0.00    +0.000 C 
BRANCH  10  14
ATOM     12  C   UNL     1      16.562   0.298  26.344  0.00  0.00    +0.000 C 
ATOM     13  O   UNL     1      16.612   1.315  26.989  0.00  0.00    +0.000 OA
ATOM     14  N   UNL     1      15.474  -0.565  26.414  0.00  0.00    +0.000 NA
BRANCH  12  17
ATOM     15  C   UNL     1      19.354  -0.488  24.011  0.00  0.00    +0.000 A 
ATOM     16  C   UNL     1      18.574   0.476  24.656  0.00  0.00    +0.000 A 
ATOM     17  C   UNL     1      17.658  -0.140  25.407  0.00  0.00    +0.000 A 
ATOM     18  N   UNL     1      17.848  -1.481  25.246  0.00  0.00    +0.000 NA
ATOM     19  N   UNL     1      18.866  -1.669  24.408  0.00  0.00    +0.000 NA
BRANCH  15  21
ATOM     20  C   UNL     1      20.012   0.755  21.997  0.00  0.00    +0.000 C 
ATOM     21  C   UNL     1      20.503  -0.278  23.060  0.00  0.00    +0.000 C 
ATOM     22  C   UNL     1      21.633   0.404  23.773  0.00  0.00    +0.000 C 
ATOM     23  C   UNL     1      20.902  -1.518  22.325  0.00  0.00    +0.000 C 
ENDBRANCH  15  21
ENDBRANCH  12  17
ENDBRANCH  10  14
ENDBRANCH   1  11
BRANCH   3  24
ATOM     24  C   UNL     1       8.423   0.098  27.183  0.00  0.00    +0.000 C 
BRANCH  24  25
ATOM     25  C   UNL     1       7.869   0.167  25.801  0.00  0.00    +0.000 A 
ATOM     26  C   UNL     1       8.000  -0.821  24.868  0.00  0.00    +0.000 A 
ATOM     27  C   UNL     1       7.428  -0.698  23.619  0.00  0.00    +0.000 A 
ATOM     28  C   UNL     1       6.714   0.460  23.349  0.00  0.00    +0.000 A 
ATOM     29  C   UNL     1       6.580   1.456  24.280  0.00  0.00    +0.000 A 
ATOM     30  C   UNL     1       7.144   1.327  25.494  0.00  0.00    +0.000 A 
ENDBRANCH  24  25
ENDBRANCH   3  24
TORSDOF 6
ENDMDL
MODEL 2
REMARK VINA RESULT:      -7.9     21.278     23.851
REMARK  Name = 
REMARK  6 active torsions:
REMARK  status: ('A' for Active; 'I' for Inactive)
REMARK    1  A    between atoms: C_2  and  C_5
REMARK    2  A    between atoms: C_7  and  C_8
REMARK    3  A    between atoms: N_10  and  N_11
REMARK    4  A    between atoms: C_12  and  C_13
REMARK    5  A    between atoms: N_15  and  C_16
REMARK    6  A    between atoms: C_16  and  C_17
REMARK                            x       y       z     vdW  Elec       q    Type
REMARK                         _______ _______ _______ _____ _____    ______ ____
ROOT
ATOM      1  C   UNL     1      25.637  16.365  36.382  0.00  0.00    +0.000 A 
ATOM      2  C   UNL     1      25.287  17.669  36.371  0.00  0.00    +0.000 A 
ATOM      3  N   UNL     1      24.938  18.018  35.090  0.00  0.00    +0.000 N 
ATOM      4  C   UNL     1      25.079  16.947  34.343  0.00  0.00    +0.000 A 
ATOM      5  C   UNL     1      24.902  16.780  32.959  0.00  0.00    +0.000 A 
ATOM      6  C   UNL     1      25.161  15.549  32.382  0.00  0.00    +0.000 A 
ATOM      7  C   UNL     1      25.594  14.468  33.132  0.00  0.00    +0.000 A 
ATOM      8  C   UNL     1      25.767  14.650  34.499  0.00  0.00    +0.000 A 
ATOM      9  C   UNL     1      25.501  15.871  35.031  0.00  0.00    +0.000 A 
ENDROOT
BRANCH   1  11
ATOM     10  N   UNL     1      26.707  15.528  38.485  0.00  0.00    +0.000 NA
ATOM     11  C   UNL     1      26.023  15.508  37.430  0.00  0.00    +0.000 C 
BRANCH  10  14
ATOM     12  C   UNL     1      25.934  13.855  40.171  0.00  0.00    +0.000 C 
ATOM     13  O   UNL     1      24.888  14.380  40.458  0.00  0.00    +0.000 OA
ATOM     14  N   UNL     1      26.788  14.393  39.215  0.00  0.00    +0.000 NA
BRANCH  12  17
ATOM     15  C   UNL     1      27.406  10.753  41.607  0.00  0.00    +0.000 A 
ATOM     16  C   UNL     1      27.531  11.842  40.739  0.00  0.00    +0.000 A 
ATOM     17  C   UNL     1      26.420  12.578  40.807  0.00  0.00    +0.000 A 
ATOM     18  N   UNL     1      25.595  11.972  41.707  0.00  0.00    +0.000 NA
ATOM     19  N   UNL     1      26.202  10.883  42.175  0.00  0.00    +0.000 NA
BRANCH  15  21
ATOM     20  C   UNL     1      29.283   9.538  40.590  0.00  0.00    +0.000 C 
ATOM     21  C   UNL     1      28.395   9.648  41.869  0.00  0.00    +0.000 C 
ATOM     22  C   UNL     1      29.337  10.059  42.963  0.00  0.00    +0.000 C 
ATOM     23  C   UNL     1      27.754   8.314  42.083  0.00  0.00    +0.000 C 
ENDBRANCH  15  21
ENDBRANCH  12  17
ENDBRANCH  10  14
ENDBRANCH   1  11
BRANCH   3  24
ATOM     24  C   UNL     1      24.390  19.325  34.707  0.00  0.00    +0.000 C 
BRANCH  24  25
ATOM     25  C   UNL     1      25.437  20.058  33.941  0.00  0.00    +0.000 A 
ATOM     26  C   UNL     1      26.741  20.165  34.326  0.00  0.00    +0.000 A 
ATOM     27  C   UNL     1      27.661  20.832  33.544  0.00  0.00    +0.000 A 
ATOM     28  C   UNL     1      27.212  21.383  32.352  0.00  0.00    +0.000 A 
ATOM     29  C   UNL     1      25.904  21.281  31.960  0.00  0.00    +0.000 A 
ATOM     30  C   UNL     1      25.016  20.630  32.732  0.00  0.00    +0.000 A 
ENDBRANCH  24  25
ENDBRANCH   3  24
TORSDOF 6
ENDMDL
MODEL 3
REMARK VINA RESULT:      -7.9     23.690     28.647
REMARK  Name = 
REMARK  6 active torsions:
REMARK  status: ('A' for Active; 'I' for Inactive)
REMARK    1  A    between atoms: C_2  and  C_5
REMARK    2  A    between atoms: C_7  and  C_8
REMARK    3  A    between atoms: N_10  and  N_11
REMARK    4  A    between atoms: C_12  and  C_13
REMARK    5  A    between atoms: N_15  and  C_16
REMARK    6  A    between atoms: C_16  and  C_17
REMARK                            x       y       z     vdW  Elec       q    Type
REMARK                         _______ _______ _______ _____ _____    ______ ____
ROOT
ATOM      1  C   UNL     1      40.162   6.363  18.554  0.00  0.00    +0.000 A 
ATOM      2  C   UNL     1      41.493   6.587  18.493  0.00  0.00    +0.000 A 
ATOM      3  N   UNL     1      41.776   7.730  19.198  0.00  0.00    +0.000 N 
ATOM      4  C   UNL     1      40.639   8.188  19.670  0.00  0.00    +0.000 A 
ATOM      5  C   UNL     1      40.370   9.351  20.412  0.00  0.00    +0.000 A 
ATOM      6  C   UNL     1      39.065   9.652  20.760  0.00  0.00    +0.000 A 
ATOM      7  C   UNL     1      38.007   8.836  20.397  0.00  0.00    +0.000 A 
ATOM      8  C   UNL     1      38.288   7.692  19.661  0.00  0.00    +0.000 A 
ATOM      9  C   UNL     1      39.581   7.426  19.339  0.00  0.00    +0.000 A 
ENDROOT
BRANCH   1  11
ATOM     10  N   UNL     1      38.290   5.144  17.423  0.00  0.00    +0.000 NA
ATOM     11  C   UNL     1      39.366   5.317  18.052  0.00  0.00    +0.000 C 
BRANCH  10  14
ATOM     12  C   UNL     1      36.990   3.377  16.229  0.00  0.00    +0.000 C 
ATOM     13  O   UNL     1      36.395   4.096  15.466  0.00  0.00    +0.000 OA
ATOM     14  N   UNL     1      37.909   3.877  17.145  0.00  0.00    +0.000 NA
BRANCH  12  17
ATOM     15  C   UNL     1      36.253  -0.266  16.438  0.00  0.00    +0.000 A 
ATOM     16  C   UNL     1      35.867   1.048  16.721  0.00  0.00    +0.000 A 
ATOM     17  C   UNL     1      36.807   1.881  16.269  0.00  0.00    +0.000 A 
ATOM     18  N   UNL     1      37.782   1.114  15.704  0.00  0.00    +0.000 NA
ATOM     19  N   UNL     1      37.433  -0.167  15.815  0.00  0.00    +0.000 NA
BRANCH  15  21
ATOM     20  C   UNL     1      36.361  -2.264  17.863  0.00  0.00    +0.000 C 
ATOM     21  C   UNL     1      35.525  -1.544  16.759  0.00  0.00    +0.000 C 
ATOM     22  C   UNL     1      34.210  -1.228  17.411  0.00  0.00    +0.000 C 
ATOM     23  C   UNL     1      35.422  -2.479  15.596  0.00  0.00    +0.000 C 
ENDBRANCH  15  21
ENDBRANCH  12  17
ENDBRANCH  10  14
ENDBRANCH   1  11
BRANCH   3  24
ATOM     24  C   UNL     1      43.131   8.230  19.456  0.00  0.00    +0.000 C 
BRANCH  24  25
ATOM     25  C   UNL     1      43.881   7.173  20.192  0.00  0.00    +0.000 A 
ATOM     26  C   UNL     1      45.046   6.611  19.759  0.00  0.00    +0.000 A 
ATOM     27  C   UNL     1      45.701   5.661  20.514  0.00  0.00    +0.000 A 
ATOM     28  C   UNL     1      45.135   5.304  21.730  0.00  0.00    +0.000 A 
ATOM     29  C   UNL     1      43.965   5.863  22.170  0.00  0.00    +0.000 A 
ATOM     30  C   UNL     1      43.334   6.786  21.423  0.00  0.00    +0.000 A 
ENDBRANCH  24  25
ENDBRANCH   3  24
TORSDOF 6
ENDMDL
MODEL 4
REMARK VINA RESULT:      -7.8     24.146     28.106
REMARK  Name = 
REMARK  6 active torsions:
REMARK  status: ('A' for Active; 'I' for Inactive)
REMARK    1  A    between atoms: C_2  and  C_5
REMARK    2  A    between atoms: C_7  and  C_8
REMARK    3  A    between atoms: N_10  and  N_11
REMARK    4  A    between atoms: C_12  and  C_13
REMARK    5  A    between atoms: N_15  and  C_16
REMARK    6  A    between atoms: C_16  and  C_17
REMARK                            x       y       z     vdW  Elec       q    Type
REMARK                         _______ _______ _______ _____ _____    ______ ____
ROOT
ATOM      1  C   UNL     1      38.871   4.949  17.630  0.00  0.00    +0.000 A 
ATOM      2  C   UNL     1      38.981   5.643  18.783  0.00  0.00    +0.000 A 
ATOM      3  N   UNL     1      39.872   6.670  18.592  0.00  0.00    +0.000 N 
ATOM      4  C   UNL     1      40.295   6.593  17.351  0.00  0.00    +0.000 A 
ATOM      5  C   UNL     1      41.246   7.371  16.669  0.00  0.00    +0.000 A 
ATOM      6  C   UNL     1      41.565   7.064  15.358  0.00  0.00    +0.000 A 
ATOM      7  C   UNL     1      40.972   6.006  14.691  0.00  0.00    +0.000 A 
ATOM      8  C   UNL     1      40.035   5.244  15.380  0.00  0.00    +0.000 A 
ATOM      9  C   UNL     1      39.744   5.575  16.664  0.00  0.00    +0.000 A 
ENDROOT
BRANCH   1  11
ATOM     10  N   UNL     1      36.931   3.606  16.793  0.00  0.00    +0.000 NA
ATOM     11  C   UNL     1      38.068   3.850  17.272  0.00  0.00    +0.000 C 
BRANCH  10  14
ATOM     12  C   UNL     1      35.333   1.719  16.437  0.00  0.00    +0.000 C 
ATOM     13  O   UNL     1      34.319   2.369  16.381  0.00  0.00    +0.000 OA
ATOM     14  N   UNL     1      36.578   2.314  16.612  0.00  0.00    +0.000 NA
BRANCH  12  17
ATOM     15  C   UNL     1      35.623  -1.960  15.952  0.00  0.00    +0.000 A 
ATOM     16  C   UNL     1      35.987  -0.671  15.551  0.00  0.00    +0.000 A 
ATOM     17  C   UNL     1      35.359   0.216  16.325  0.00  0.00    +0.000 A 
ATOM     18  N   UNL     1      34.603  -0.492  17.211  0.00  0.00    +0.000 NA
ATOM     19  N   UNL     1      34.774  -1.791  16.972  0.00  0.00    +0.000 NA
BRANCH  15  21
ATOM     20  C   UNL     1      34.793  -3.946  14.767  0.00  0.00    +0.000 C 
ATOM     21  C   UNL     1      36.067  -3.279  15.377  0.00  0.00    +0.000 C 
ATOM     22  C   UNL     1      36.978  -3.041  14.208  0.00  0.00    +0.000 C 
ATOM     23  C   UNL     1      36.617  -4.220  16.400  0.00  0.00    +0.000 C 
ENDBRANCH  15  21
ENDBRANCH  12  17
ENDBRANCH  10  14
ENDBRANCH   1  11
BRANCH   3  24
ATOM     24  C   UNL     1      40.162   7.710  19.586  0.00  0.00    +0.000 C 
BRANCH  24  25
ATOM     25  C   UNL     1      41.493   7.416  20.187  0.00  0.00    +0.000 A 
ATOM     26  C   UNL     1      41.870   6.195  20.665  0.00  0.00    +0.000 A 
ATOM     27  C   UNL     1      43.135   5.992  21.177  0.00  0.00    +0.000 A 
ATOM     28  C   UNL     1      44.008   7.070  21.182  0.00  0.00    +0.000 A 
ATOM     29  C   UNL     1      43.636   8.298  20.705  0.00  0.00    +0.000 A 
ATOM     30  C   UNL     1      42.399   8.486  20.211  0.00  0.00    +0.000 A 
ENDBRANCH  24  25
ENDBRANCH   3  24
TORSDOF 6
ENDMDL
MODEL 5
REMARK VINA RESULT:      -7.6     20.480     24.908
REMARK  Name = 
REMARK  6 active torsions:
REMARK  status: ('A' for Active; 'I' for Inactive)
REMARK    1  A    between atoms: C_2  and  C_5
REMARK    2  A    between atoms: C_7  and  C_8
REMARK    3  A    between atoms: N_10  and  N_11
REMARK    4  A    between atoms: C_12  and  C_13
REMARK    5  A    between atoms: N_15  and  C_16
REMARK    6  A    between atoms: C_16  and  C_17
REMARK                            x       y       z     vdW  Elec       q    Type
REMARK                         _______ _______ _______ _____ _____    ______ ____
ROOT
ATOM      1  C   UNL     1      33.757  -7.589  15.704  0.00  0.00    +0.000 A 
ATOM      2  C   UNL     1      32.791  -7.975  16.565  0.00  0.00    +0.000 A 
ATOM      3  N   UNL     1      31.935  -8.825  15.910  0.00  0.00    +0.000 N 
ATOM      4  C   UNL     1      32.374  -8.945  14.677  0.00  0.00    +0.000 A 
ATOM      5  C   UNL     1      31.836  -9.656  13.590  0.00  0.00    +0.000 A 
ATOM      6  C   UNL     1      32.461  -9.592  12.357  0.00  0.00    +0.000 A 
ATOM      7  C   UNL     1      33.609  -8.844  12.159  0.00  0.00    +0.000 A 
ATOM      8  C   UNL     1      34.128  -8.146  13.243  0.00  0.00    +0.000 A 
ATOM      9  C   UNL     1      33.490  -8.233  14.439  0.00  0.00    +0.000 A 
ENDROOT
BRANCH   1  11
ATOM     10  N   UNL     1      35.715  -6.448  16.769  0.00  0.00    +0.000 NA
ATOM     11  C   UNL     1      34.893  -6.775  15.875  0.00  0.00    +0.000 C 
BRANCH  10  14
ATOM     12  C   UNL     1      36.771  -4.198  16.520  0.00  0.00    +0.000 C 
ATOM     13  O   UNL     1      35.870  -3.541  16.977  0.00  0.00    +0.000 OA
ATOM     14  N   UNL     1      36.703  -5.585  16.443  0.00  0.00    +0.000 NA
BRANCH  12  17
ATOM     15  C   UNL     1      39.752  -2.531  15.041  0.00  0.00    +0.000 A 
ATOM     16  C   UNL     1      38.367  -2.721  15.038  0.00  0.00    +0.000 A 
ATOM     17  C   UNL     1      38.049  -3.597  15.993  0.00  0.00    +0.000 A 
ATOM     18  N   UNL     1      39.212  -3.963  16.602  0.00  0.00    +0.000 NA
ATOM     19  N   UNL     1      40.220  -3.315  16.019  0.00  0.00    +0.000 NA
BRANCH  15  21
ATOM     20  C   UNL     1      42.071  -1.953  14.474  0.00  0.00    +0.000 C 
ATOM     21  C   UNL     1      40.576  -1.644  14.145  0.00  0.00    +0.000 C 
ATOM     22  C   UNL     1      40.398  -2.063  12.715  0.00  0.00    +0.000 C 
ATOM     23  C   UNL     1      40.358  -0.185  14.387  0.00  0.00    +0.000 C 
ENDBRANCH  15  21
ENDBRANCH  12  17
ENDBRANCH  10  14
ENDBRANCH   1  11
BRANCH   3  24
ATOM     24  C   UNL     1      30.827  -9.542  16.551  0.00  0.00    +0.000 C 
BRANCH  24  25
ATOM     25  C   UNL     1      29.552  -8.901  16.121  0.00  0.00    +0.000 A 
ATOM     26  C   UNL     1      29.172  -7.636  16.461  0.00  0.00    +0.000 A 
ATOM     27  C   UNL     1      27.991  -7.100  15.994  0.00  0.00    +0.000 A 
ATOM     28  C   UNL     1      27.209  -7.889  15.163  0.00  0.00    +0.000 A 
ATOM     29  C   UNL     1      27.584  -9.160  14.818  0.00  0.00    +0.000 A 
ATOM     30  C   UNL     1      28.737  -9.675  15.282  0.00  0.00    +0.000 A 
ENDBRANCH  24  25
ENDBRANCH   3  24
TORSDOF 6
ENDMDL
MODEL 6
REMARK VINA RESULT:      -7.4     23.658     27.555
REMARK  Name = 
REMARK  6 active torsions:
REMARK  status: ('A' for Active; 'I' for Inactive)
REMARK    1  A    between atoms: C_2  and  C_5
REMARK    2  A    between atoms: C_7  and  C_8
REMARK    3  A    between atoms: N_10  and  N_11
REMARK    4  A    between atoms: C_12  and  C_13
REMARK    5  A    between atoms: N_15  and  C_16
REMARK    6  A    between atoms: C_16  and  C_17
REMARK                            x       y       z     vdW  Elec       q    Type
REMARK                         _______ _______ _______ _____ _____    ______ ____
ROOT
ATOM      1  C   UNL     1      36.958   0.350  15.418  0.00  0.00    +0.000 A 
ATOM      2  C   UNL     1      37.647  -0.398  14.531  0.00  0.00    +0.000 A 
ATOM      3  N   UNL     1      37.106  -1.659  14.508  0.00  0.00    +0.000 N 
ATOM      4  C   UNL     1      36.114  -1.672  15.368  0.00  0.00    +0.000 A 
ATOM      5  C   UNL     1      35.269  -2.725  15.760  0.00  0.00    +0.000 A 
ATOM      6  C   UNL     1      34.311  -2.505  16.735  0.00  0.00    +0.000 A 
ATOM      7  C   UNL     1      34.158  -1.270  17.341  0.00  0.00    +0.000 A 
ATOM      8  C   UNL     1      35.002  -0.240  16.945  0.00  0.00    +0.000 A 
ATOM      9  C   UNL     1      35.929  -0.490  15.984  0.00  0.00    +0.000 A 
ENDROOT
BRANCH   1  11
ATOM     10  N   UNL     1      36.463   2.796  15.620  0.00  0.00    +0.000 NA
ATOM     11  C   UNL     1      37.067   1.705  15.784  0.00  0.00    +0.000 C 
BRANCH  10  14
ATOM     12  C   UNL     1      37.904   4.832  15.754  0.00  0.00    +0.000 C 
ATOM     13  O   UNL     1      38.382   4.770  14.649  0.00  0.00    +0.000 OA
ATOM     14  N   UNL     1      36.974   3.903  16.206  0.00  0.00    +0.000 NA
BRANCH  12  17
ATOM     15  C   UNL     1      38.940   7.277  18.362  0.00  0.00    +0.000 A 
ATOM     16  C   UNL     1      38.899   5.952  17.918  0.00  0.00    +0.000 A 
ATOM     17  C   UNL     1      38.258   5.908  16.748  0.00  0.00    +0.000 A 
ATOM     18  N   UNL     1      37.893   7.186  16.445  0.00  0.00    +0.000 NA
ATOM     19  N   UNL     1      38.310   7.991  17.422  0.00  0.00    +0.000 NA
BRANCH  15  21
ATOM     20  C   UNL     1      40.360   9.090  19.217  0.00  0.00    +0.000 C 
ATOM     21  C   UNL     1      39.550   7.821  19.627  0.00  0.00    +0.000 C 
ATOM     22  C   UNL     1      38.467   8.326  20.535  0.00  0.00    +0.000 C 
ATOM     23  C   UNL     1      40.505   6.875  20.282  0.00  0.00    +0.000 C 
ENDBRANCH  15  21
ENDBRANCH  12  17
ENDBRANCH  10  14
ENDBRANCH   1  11
BRANCH   3  24
ATOM     24  C   UNL     1      37.515  -2.720  13.580  0.00  0.00    +0.000 C 
BRANCH  24  25
ATOM     25  C   UNL     1      39.003  -2.711  13.496  0.00  0.00    +0.000 A 
ATOM     26  C   UNL     1      39.837  -2.765  14.574  0.00  0.00    +0.000 A 
ATOM     27  C   UNL     1      41.206  -2.788  14.413  0.00  0.00    +0.000 A 
ATOM     28  C   UNL     1      41.702  -2.760  13.118  0.00  0.00    +0.000 A 
ATOM     29  C   UNL     1      40.871  -2.705  12.030  0.00  0.00    +0.000 A 
ATOM     30  C   UNL     1      39.537  -2.680  12.200  0.00  0.00    +0.000 A 
ENDBRANCH  24  25
ENDBRANCH   3  24
TORSDOF 6
ENDMDL
MODEL 7
REMARK VINA RESULT:      -7.4     24.277     25.914
REMARK  Name = 
REMARK  6 active torsions:
REMARK  status: ('A' for Active; 'I' for Inactive)
REMARK    1  A    between atoms: C_2  and  C_5
REMARK    2  A    between atoms: C_7  and  C_8
REMARK    3  A    between atoms: N_10  and  N_11
REMARK    4  A    between atoms: C_12  and  C_13
REMARK    5  A    between atoms: N_15  and  C_16
REMARK    6  A    between atoms: C_16  and  C_17
REMARK                            x       y       z     vdW  Elec       q    Type
REMARK                         _______ _______ _______ _____ _____    ______ ____
ROOT
ATOM      1  C   UNL     1      36.536   0.682  15.585  0.00  0.00    +0.000 A 
ATOM      2  C   UNL     1      37.169  -0.272  14.869  0.00  0.00    +0.000 A 
ATOM      3  N   UNL     1      37.430  -1.338  15.694  0.00  0.00    +0.000 N 
ATOM      4  C   UNL     1      36.968  -1.030  16.884  0.00  0.00    +0.000 A 
ATOM      5  C   UNL     1      37.024  -1.750  18.091  0.00  0.00    +0.000 A 
ATOM      6  C   UNL     1      36.502  -1.190  19.244  0.00  0.00    +0.000 A 
ATOM      7  C   UNL     1      35.920   0.067  19.246  0.00  0.00    +0.000 A 
ATOM      8  C   UNL     1      35.874   0.766  18.046  0.00  0.00    +0.000 A 
ATOM      9  C   UNL     1      36.394   0.186  16.934  0.00  0.00    +0.000 A 
ENDROOT
BRANCH   1  11
ATOM     10  N   UNL     1      35.181   2.427  14.407  0.00  0.00    +0.000 NA
ATOM     11  C   UNL     1      36.008   1.933  15.216  0.00  0.00    +0.000 C 
BRANCH  10  14
ATOM     12  C   UNL     1      35.608   4.787  13.707  0.00  0.00    +0.000 C 
ATOM     13  O   UNL     1      36.443   4.562  12.867  0.00  0.00    +0.000 OA
ATOM     14  N   UNL     1      34.993   3.766  14.424  0.00  0.00    +0.000 NA
BRANCH  12  17
ATOM     15  C   UNL     1      34.764   8.314  14.545  0.00  0.00    +0.000 A 
ATOM     16  C   UNL     1      35.742   7.356  14.262  0.00  0.00    +0.000 A 
ATOM     17  C   UNL     1      35.149   6.177  14.064  0.00  0.00    +0.000 A 
ATOM     18  N   UNL     1      33.809   6.375  14.218  0.00  0.00    +0.000 NA
ATOM     19  N   UNL     1      33.598   7.658  14.504  0.00  0.00    +0.000 NA
BRANCH  15  21
ATOM     20  C   UNL     1      34.299  10.555  13.654  0.00  0.00    +0.000 C 
ATOM     21  C   UNL     1      34.947   9.779  14.843  0.00  0.00    +0.000 C 
ATOM     22  C   UNL     1      34.132  10.157  16.046  0.00  0.00    +0.000 C 
ATOM     23  C   UNL     1      36.381  10.196  14.920  0.00  0.00    +0.000 C 
ENDBRANCH  15  21
ENDBRANCH  12  17
ENDBRANCH  10  14
ENDBRANCH   1  11
BRANCH   3  24
ATOM     24  C   UNL     1      38.003  -2.612  15.246  0.00  0.00    +0.000 C 
BRANCH  24  25
ATOM     25  C   UNL     1      36.943  -3.655  15.343  0.00  0.00    +0.000 A 
ATOM     26  C   UNL     1      36.994  -4.731  16.181  0.00  0.00    +0.000 A 
ATOM     27  C   UNL     1      35.955  -5.635  16.239  0.00  0.00    +0.000 A 
ATOM     28  C   UNL     1      34.857  -5.409  15.421  0.00  0.00    +0.000 A 
ATOM     29  C   UNL     1      34.800  -4.332  14.577  0.00  0.00    +0.000 A 
ATOM     30  C   UNL     1      35.820  -3.457  14.527  0.00  0.00    +0.000 A 
ENDBRANCH  24  25
ENDBRANCH   3  24
TORSDOF 6
ENDMDL
MODEL 8
REMARK VINA RESULT:      -7.4     24.078     27.964
REMARK  Name = 
REMARK  6 active torsions:
REMARK  status: ('A' for Active; 'I' for Inactive)
REMARK    1  A    between atoms: C_2  and  C_5
REMARK    2  A    between atoms: C_7  and  C_8
REMARK    3  A    between atoms: N_10  and  N_11
REMARK    4  A    between atoms: C_12  and  C_13
REMARK    5  A    between atoms: N_15  and  C_16
REMARK    6  A    between atoms: C_16  and  C_17
REMARK                            x       y       z     vdW  Elec       q    Type
REMARK                         _______ _______ _______ _____ _____    ______ ____
ROOT
ATOM      1  C   UNL     1      37.945   4.070  16.582  0.00  0.00    +0.000 A 
ATOM      2  C   UNL     1      36.750   3.459  16.728  0.00  0.00    +0.000 A 
ATOM      3  N   UNL     1      36.361   2.960  15.510  0.00  0.00    +0.000 N 
ATOM      4  C   UNL     1      37.302   3.269  14.646  0.00  0.00    +0.000 A 
ATOM      5  C   UNL     1      37.370   3.037  13.261  0.00  0.00    +0.000 A 
ATOM      6  C   UNL     1      38.457   3.505  12.544  0.00  0.00    +0.000 A 
ATOM      7  C   UNL     1      39.488   4.200  13.152  0.00  0.00    +0.000 A 
ATOM      8  C   UNL     1      39.405   4.423  14.521  0.00  0.00    +0.000 A 
ATOM      9  C   UNL     1      38.325   3.948  15.194  0.00  0.00    +0.000 A 
ENDROOT
BRANCH   1  11
ATOM     10  N   UNL     1      38.735   5.449  18.517  0.00  0.00    +0.000 NA
ATOM     11  C   UNL     1      38.797   4.693  17.513  0.00  0.00    +0.000 C 
BRANCH  10  14
ATOM     12  C   UNL     1      40.157   6.733  20.119  0.00  0.00    +0.000 C 
ATOM     13  O   UNL     1      39.281   7.380  20.637  0.00  0.00    +0.000 OA
ATOM     14  N   UNL     1      39.891   5.799  19.125  0.00  0.00    +0.000 NA
BRANCH  12  17
ATOM     15  C   UNL     1      43.762   6.754  21.047  0.00  0.00    +0.000 A 
ATOM     16  C   UNL     1      42.580   6.029  20.867  0.00  0.00    +0.000 A 
ATOM     17  C   UNL     1      41.612   6.866  20.490  0.00  0.00    +0.000 A 
ATOM     18  N   UNL     1      42.164   8.111  20.429  0.00  0.00    +0.000 NA
ATOM     19  N   UNL     1      43.450   8.024  20.765  0.00  0.00    +0.000 NA
BRANCH  15  21
ATOM     20  C   UNL     1      45.736   7.357  22.379  0.00  0.00    +0.000 C 
ATOM     21  C   UNL     1      45.115   6.247  21.474  0.00  0.00    +0.000 C 
ATOM     22  C   UNL     1      44.949   5.058  22.374  0.00  0.00    +0.000 C 
ATOM     23  C   UNL     1      46.054   6.024  20.332  0.00  0.00    +0.000 C 
ENDBRANCH  15  21
ENDBRANCH  12  17
ENDBRANCH  10  14
ENDBRANCH   1  11
BRANCH   3  24
ATOM     24  C   UNL     1      35.170   2.130  15.295  0.00  0.00    +0.000 C 
BRANCH  24  25
ATOM     25  C   UNL     1      35.452   0.770  15.835  0.00  0.00    +0.000 A 
ATOM     26  C   UNL     1      36.334  -0.112  15.281  0.00  0.00    +0.000 A 
ATOM     27  C   UNL     1      36.567  -1.341  15.860  0.00  0.00    +0.000 A 
ATOM     28  C   UNL     1      35.879  -1.645  17.026  0.00  0.00    +0.000 A 
ATOM     29  C   UNL     1      34.991  -0.765  17.587  0.00  0.00    +0.000 A 
ATOM     30  C   UNL     1      34.770   0.431  17.011  0.00  0.00    +0.000 A 
ENDBRANCH  24  25
ENDBRANCH   3  24
TORSDOF 6
ENDMDL
MODEL 9
REMARK VINA RESULT:      -7.4     24.836     27.839
REMARK  Name = 
REMARK  6 active torsions:
REMARK  status: ('A' for Active; 'I' for Inactive)
REMARK    1  A    between atoms: C_2  and  C_5
REMARK    2  A    between atoms: C_7  and  C_8
REMARK    3  A    between atoms: N_10  and  N_11
REMARK    4  A    between atoms: C_12  and  C_13
REMARK    5  A    between atoms: N_15  and  C_16
REMARK    6  A    between atoms: C_16  and  C_17
REMARK                            x       y       z     vdW  Elec       q    Type
REMARK                         _______ _______ _______ _____ _____    ______ ____
ROOT
ATOM      1  C   UNL     1      38.547   5.078  17.562  0.00  0.00    +0.000 A 
ATOM      2  C   UNL     1      39.128   5.328  18.755  0.00  0.00    +0.000 A 
ATOM      3  N   UNL     1      39.331   6.680  18.869  0.00  0.00    +0.000 N 
ATOM      4  C   UNL     1      38.885   7.235  17.765  0.00  0.00    +0.000 A 
ATOM      5  C   UNL     1      38.901   8.580  17.357  0.00  0.00    +0.000 A 
ATOM      6  C   UNL     1      38.409   8.920  16.109  0.00  0.00    +0.000 A 
ATOM      7  C   UNL     1      37.897   7.970  15.243  0.00  0.00    +0.000 A 
ATOM      8  C   UNL     1      37.890   6.644  15.660  0.00  0.00    +0.000 A 
ATOM      9  C   UNL     1      38.378   6.346  16.891  0.00  0.00    +0.000 A 
ENDROOT
BRANCH   1  11
ATOM     10  N   UNL     1      38.018   3.333  15.847  0.00  0.00    +0.000 NA
ATOM     11  C   UNL     1      38.089   3.883  16.976  0.00  0.00    +0.000 C 
BRANCH  10  14
ATOM     12  C   UNL     1      36.227   1.625  16.186  0.00  0.00    +0.000 C 
ATOM     13  O   UNL     1      35.397   2.349  16.676  0.00  0.00    +0.000 OA
ATOM     14  N   UNL     1      37.466   2.101  15.772  0.00  0.00    +0.000 NA
BRANCH  12  17
ATOM     15  C   UNL     1      35.966  -2.026  15.509  0.00  0.00    +0.000 A 
ATOM     16  C   UNL     1      36.639  -0.818  15.299  0.00  0.00    +0.000 A 
ATOM     17  C   UNL     1      36.011   0.148  15.972  0.00  0.00    +0.000 A 
ATOM     18  N   UNL     1      34.951  -0.429  16.605  0.00  0.00    +0.000 NA
ATOM     19  N   UNL     1      34.941  -1.730  16.317  0.00  0.00    +0.000 NA
BRANCH  15  21
ATOM     20  C   UNL     1      36.977  -4.182  16.113  0.00  0.00    +0.000 C 
ATOM     21  C   UNL     1      36.293  -3.388  14.956  0.00  0.00    +0.000 C 
ATOM     22  C   UNL     1      35.024  -4.136  14.667  0.00  0.00    +0.000 C 
ATOM     23  C   UNL     1      37.255  -3.350  13.811  0.00  0.00    +0.000 C 
ENDBRANCH  15  21
ENDBRANCH  12  17
ENDBRANCH  10  14
ENDBRANCH   1  11
BRANCH   3  24
ATOM     24  C   UNL     1      39.834   7.344  20.077  0.00  0.00    +0.000 C 
BRANCH  24  25
ATOM     25  C   UNL     1      41.321   7.385  19.995  0.00  0.00    +0.000 A 
ATOM     26  C   UNL     1      42.032   8.359  19.355  0.00  0.00    +0.000 A 
ATOM     27  C   UNL     1      43.411   8.347  19.353  0.00  0.00    +0.000 A 
ATOM     28  C   UNL     1      44.047   7.315  20.027  0.00  0.00    +0.000 A 
ATOM     29  C   UNL     1      43.340   6.334  20.671  0.00  0.00    +0.000 A 
ATOM     30  C   UNL     1      41.995   6.354  20.664  0.00  0.00    +0.000 A 
ENDBRANCH  24  25
ENDBRANCH   3  24
TORSDOF 6
ENDMDL
MODEL 10
REMARK VINA RESULT:      -7.3     24.374     26.892
REMARK  Name = 
REMARK  6 active torsions:
REMARK  status: ('A' for Active; 'I' for Inactive)
REMARK    1  A    between atoms: C_2  and  C_5
REMARK    2  A    between atoms: C_7  and  C_8
REMARK    3  A    between atoms: N_10  and  N_11
REMARK    4  A    between atoms: C_12  and  C_13
REMARK    5  A    between atoms: N_15  and  C_16
REMARK    6  A    between atoms: C_16  and  C_17
REMARK                            x       y       z     vdW  Elec       q    Type
REMARK                         _______ _______ _______ _____ _____    ______ ____
ROOT
ATOM      1  C   UNL     1      36.241   0.648  15.509  0.00  0.00    +0.000 A 
ATOM      2  C   UNL     1      36.704  -0.346  14.720  0.00  0.00    +0.000 A 
ATOM      3  N   UNL     1      37.001  -1.429  15.509  0.00  0.00    +0.000 N 
ATOM      4  C   UNL     1      36.729  -1.093  16.749  0.00  0.00    +0.000 A 
ATOM      5  C   UNL     1      36.900  -1.817  17.942  0.00  0.00    +0.000 A 
ATOM      6  C   UNL     1      36.580  -1.226  19.151  0.00  0.00    +0.000 A 
ATOM      7  C   UNL     1      36.091   0.068  19.224  0.00  0.00    +0.000 A 
ATOM      8  C   UNL     1      35.930   0.772  18.037  0.00  0.00    +0.000 A 
ATOM      9  C   UNL     1      36.252   0.160  16.868  0.00  0.00    +0.000 A 
ENDROOT
BRANCH   1  11
ATOM     10  N   UNL     1      34.782   2.482  14.629  0.00  0.00    +0.000 NA
ATOM     11  C   UNL     1      35.756   1.934  15.206  0.00  0.00    +0.000 C 
BRANCH  10  14
ATOM     12  C   UNL     1      35.491   4.753  13.869  0.00  0.00    +0.000 C 
ATOM     13  O   UNL     1      36.330   4.408  13.076  0.00  0.00    +0.000 OA
ATOM     14  N   UNL     1      34.740   3.833  14.591  0.00  0.00    +0.000 NA
BRANCH  12  17
ATOM     15  C   UNL     1      35.002   8.380  14.550  0.00  0.00    +0.000 A 
ATOM     16  C   UNL     1      35.881   7.312  14.348  0.00  0.00    +0.000 A 
ATOM     17  C   UNL     1      35.171   6.198  14.158  0.00  0.00    +0.000 A 
ATOM     18  N   UNL     1      33.855   6.545  14.237  0.00  0.00    +0.000 NA
ATOM     19  N   UNL     1      33.774   7.854  14.471  0.00  0.00    +0.000 NA
BRANCH  15  21
ATOM     20  C   UNL     1      34.171  10.392  15.689  0.00  0.00    +0.000 C 
ATOM     21  C   UNL     1      35.331   9.826  14.810  0.00  0.00    +0.000 C 
ATOM     22  C   UNL     1      36.555   9.920  15.673  0.00  0.00    +0.000 C 
ATOM     23  C   UNL     1      35.394  10.655  13.567  0.00  0.00    +0.000 C 
ENDBRANCH  15  21
ENDBRANCH  12  17
ENDBRANCH  10  14
ENDBRANCH   1  11
BRANCH   3  24
ATOM     24  C   UNL     1      37.419  -2.739  14.996  0.00  0.00    +0.000 C 
BRANCH  24  25
ATOM     25  C   UNL     1      38.807  -2.607  14.470  0.00  0.00    +0.000 A 
ATOM     26  C   UNL     1      39.896  -2.306  15.234  0.00  0.00    +0.000 A 
ATOM     27  C   UNL     1      41.157  -2.236  14.679  0.00  0.00    +0.000 A 
ATOM     28  C   UNL     1      41.276  -2.486  13.319  0.00  0.00    +0.000 A 
ATOM     29  C   UNL     1      40.187  -2.787  12.546  0.00  0.00    +0.000 A 
ATOM     30  C   UNL     1      38.962  -2.850  13.098  0.00  0.00    +0.000 A 
ENDBRANCH  24  25
ENDBRANCH   3  24
TORSDOF 6
ENDMDL
