MODEL 1
REMARK VINA RESULT:      -7.3      0.000      0.000
REMARK  Name = 
REMARK  3 active torsions:
REMARK  status: ('A' for Active; 'I' for Inactive)
REMARK    1  A    between atoms: O_2  and  C_3
REMARK    2  A    between atoms: C_6  and  N_7
REMARK    3  A    between atoms: N_7  and  C_8
REMARK                            x       y       z     vdW  Elec       q    Type
REMARK                         _______ _______ _______ _____ _____    ______ ____
ROOT
ATOM      1  N   UNL     1      17.784  10.048  36.803  0.00  0.00    +0.000 NA
ENDROOT
BRANCH   1   2
ATOM      2  C   UNL     1      19.130  10.319  37.059  0.00  0.00    +0.000 A 
ATOM      3  C   UNL     1      19.449  11.341  37.922  0.00  0.00    +0.000 A 
ATOM      4  C   UNL     1      20.741  11.693  38.244  0.00  0.00    +0.000 A 
ATOM      5  C   UNL     1      21.774  10.983  37.672  0.00  0.00    +0.000 A 
ATOM      6  N   UNL     1      23.103  11.080  37.783  0.00  0.00    +0.000 NA
ATOM      7  C   UNL     1      23.645  10.139  37.007  0.00  0.00    +0.000 A 
ATOM      8  O   UNL     1      24.882   9.960  36.885  0.00  0.00    +0.000 OA
ATOM      9  O   UNL     1      22.669   9.478  36.433  0.00  0.00    +0.000 OA
ATOM     10  C   UNL     1      21.500   9.951  36.804  0.00  0.00    +0.000 A 
ATOM     11  C   UNL     1      20.185   9.621  36.497  0.00  0.00    +0.000 A 
ENDBRANCH   1   2
BRANCH   1  15
ATOM     12  C   UNL     1      15.610  11.546  33.489  0.00  0.00    +0.000 A 
ATOM     13  C   UNL     1      16.586  10.583  33.346  0.00  0.00    +0.000 A 
ATOM     14  C   UNL     1      17.280  10.111  34.444  0.00  0.00    +0.000 A 
ATOM     15  C   UNL     1      17.036  10.573  35.720  0.00  0.00    +0.000 A 
ATOM     16  C   UNL     1      16.063  11.536  35.872  0.00  0.00    +0.000 A 
ATOM     17  C   UNL     1      15.797  12.036  37.236  0.00  0.00    +0.000 C 
ATOM     18  C   UNL     1      15.368  12.006  34.766  0.00  0.00    +0.000 A 
ATOM     19  C   UNL     1      14.312  13.052  34.943  0.00  0.00    +0.000 C 
BRANCH  12  21
ATOM     20  C   UNL     1      14.656  11.276  31.241  0.00  0.00    +0.000 C 
ATOM     21  O   UNL     1      14.887  12.044  32.392  0.00  0.00    +0.000 OA
ENDBRANCH  12  21
ENDBRANCH   1  15
TORSDOF 3
ENDMDL
MODEL 2
REMARK VINA RESULT:      -7.1      2.834      3.968
REMARK  Name = 
REMARK  3 active torsions:
REMARK  status: ('A' for Active; 'I' for Inactive)
REMARK    1  A    between atoms: O_2  and  C_3
REMARK    2  A    between atoms: C_6  and  N_7
REMARK    3  A    between atoms: N_7  and  C_8
REMARK                            x       y       z     vdW  Elec       q    Type
REMARK                         _______ _______ _______ _____ _____    ______ ____
ROOT
ATOM      1  N   UNL     1      16.526  10.008  34.356  0.00  0.00    +0.000 NA
ENDROOT
BRANCH   1   2
ATOM      2  C   UNL     1      17.348   9.921  35.482  0.00  0.00    +0.000 A 
ATOM      3  C   UNL     1      18.689   9.675  35.307  0.00  0.00    +0.000 A 
ATOM      4  C   UNL     1      19.588   9.569  36.347  0.00  0.00    +0.000 A 
ATOM      5  C   UNL     1      19.121   9.720  37.634  0.00  0.00    +0.000 A 
ATOM      6  N   UNL     1      19.729   9.675  38.823  0.00  0.00    +0.000 NA
ATOM      7  C   UNL     1      18.802   9.888  39.760  0.00  0.00    +0.000 A 
ATOM      8  O   UNL     1      19.047   9.909  40.992  0.00  0.00    +0.000 OA
ATOM      9  O   UNL     1      17.651  10.061  39.158  0.00  0.00    +0.000 OA
ATOM     10  C   UNL     1      17.785   9.969  37.854  0.00  0.00    +0.000 A 
ATOM     11  C   UNL     1      16.902  10.068  36.785  0.00  0.00    +0.000 A 
ENDBRANCH   1   2
BRANCH   1  15
ATOM     12  C   UNL     1      14.131  13.379  33.435  0.00  0.00    +0.000 A 
ATOM     13  C   UNL     1      14.382  12.997  34.736  0.00  0.00    +0.000 A 
ATOM     14  C   UNL     1      15.167  11.893  35.008  0.00  0.00    +0.000 A 
ATOM     15  C   UNL     1      15.731  11.128  34.009  0.00  0.00    +0.000 A 
ATOM     16  C   UNL     1      15.485  11.503  32.706  0.00  0.00    +0.000 A 
ATOM     17  C   UNL     1      16.085  10.688  31.630  0.00  0.00    +0.000 C 
ATOM     18  C   UNL     1      14.696  12.613  32.438  0.00  0.00    +0.000 A 
ATOM     19  C   UNL     1      14.435  13.012  31.018  0.00  0.00    +0.000 C 
BRANCH  12  21
ATOM     20  C   UNL     1      12.945  15.425  34.103  0.00  0.00    +0.000 C 
ATOM     21  O   UNL     1      13.337  14.497  33.127  0.00  0.00    +0.000 OA
ENDBRANCH  12  21
ENDBRANCH   1  15
TORSDOF 3
ENDMDL
MODEL 3
REMARK VINA RESULT:      -6.9      1.607      7.085
REMARK  Name = 
REMARK  3 active torsions:
REMARK  status: ('A' for Active; 'I' for Inactive)
REMARK    1  A    between atoms: O_2  and  C_3
REMARK    2  A    between atoms: C_6  and  N_7
REMARK    3  A    between atoms: N_7  and  C_8
REMARK                            x       y       z     vdW  Elec       q    Type
REMARK                         _______ _______ _______ _____ _____    ______ ____
ROOT
ATOM      1  N   UNL     1      18.947   9.891  37.188  0.00  0.00    +0.000 NA
ENDROOT
BRANCH   1   2
ATOM      2  C   UNL     1      18.024  10.302  36.224  0.00  0.00    +0.000 A 
ATOM      3  C   UNL     1      16.976  11.105  36.609  0.00  0.00    +0.000 A 
ATOM      4  C   UNL     1      16.009  11.567  35.742  0.00  0.00    +0.000 A 
ATOM      5  C   UNL     1      16.094  11.206  34.415  0.00  0.00    +0.000 A 
ATOM      6  N   UNL     1      15.329  11.487  33.356  0.00  0.00    +0.000 NA
ATOM      7  C   UNL     1      15.866  10.879  32.295  0.00  0.00    +0.000 A 
ATOM      8  O   UNL     1      15.387  10.942  31.136  0.00  0.00    +0.000 OA
ATOM      9  O   UNL     1      16.937  10.240  32.697  0.00  0.00    +0.000 OA
ATOM     10  C   UNL     1      17.127  10.404  33.987  0.00  0.00    +0.000 A 
ATOM     11  C   UNL     1      18.087   9.953  34.885  0.00  0.00    +0.000 A 
ENDBRANCH   1   2
BRANCH   1  15
ATOM     12  C   UNL     1      23.069  10.872  37.178  0.00  0.00    +0.000 A 
ATOM     13  C   UNL     1      22.563   9.841  36.415  0.00  0.00    +0.000 A 
ATOM     14  C   UNL     1      21.214   9.542  36.436  0.00  0.00    +0.000 A 
ATOM     15  C   UNL     1      20.318  10.249  37.210  0.00  0.00    +0.000 A 
ATOM     16  C   UNL     1      20.815  11.281  37.976  0.00  0.00    +0.000 A 
ATOM     17  C   UNL     1      19.861  12.042  38.808  0.00  0.00    +0.000 C 
ATOM     18  C   UNL     1      22.170  11.577  37.950  0.00  0.00    +0.000 A 
ATOM     19  C   UNL     1      22.700  12.701  38.786  0.00  0.00    +0.000 C 
BRANCH  12  21
ATOM     20  C   UNL     1      25.435  10.228  37.029  0.00  0.00    +0.000 C 
ATOM     21  O   UNL     1      24.435  11.200  37.175  0.00  0.00    +0.000 OA
ENDBRANCH  12  21
ENDBRANCH   1  15
TORSDOF 3
ENDMDL
MODEL 4
REMARK VINA RESULT:      -6.9      4.128      7.401
REMARK  Name = 
REMARK  3 active torsions:
REMARK  status: ('A' for Active; 'I' for Inactive)
REMARK    1  A    between atoms: O_2  and  C_3
REMARK    2  A    between atoms: C_6  and  N_7
REMARK    3  A    between atoms: N_7  and  C_8
REMARK                            x       y       z     vdW  Elec       q    Type
REMARK                         _______ _______ _______ _____ _____    ______ ____
ROOT
ATOM      1  N   UNL     1      18.068  10.050  38.818  0.00  0.00    +0.000 NA
ENDROOT
BRANCH   1   2
ATOM      2  C   UNL     1      17.713  10.183  37.474  0.00  0.00    +0.000 A 
ATOM      3  C   UNL     1      18.446   9.511  36.524  0.00  0.00    +0.000 A 
ATOM      4  C   UNL     1      18.183   9.572  35.173  0.00  0.00    +0.000 A 
ATOM      5  C   UNL     1      17.127  10.346  34.746  0.00  0.00    +0.000 A 
ATOM      6  N   UNL     1      16.631  10.601  33.531  0.00  0.00    +0.000 NA
ATOM      7  C   UNL     1      15.591  11.425  33.682  0.00  0.00    +0.000 A 
ATOM      8  O   UNL     1      14.900  11.860  32.728  0.00  0.00    +0.000 OA
ATOM      9  O   UNL     1      15.453  11.669  34.962  0.00  0.00    +0.000 OA
ATOM     10  C   UNL     1      16.366  11.035  35.663  0.00  0.00    +0.000 A 
ATOM     11  C   UNL     1      16.657  10.955  37.020  0.00  0.00    +0.000 A 
ENDBRANCH   1   2
BRANCH   1  15
ATOM     12  C   UNL     1      17.612   6.515  41.109  0.00  0.00    +0.000 A 
ATOM     13  C   UNL     1      18.652   6.678  40.219  0.00  0.00    +0.000 A 
ATOM     14  C   UNL     1      18.778   7.841  39.484  0.00  0.00    +0.000 A 
ATOM     15  C   UNL     1      17.883   8.884  39.601  0.00  0.00    +0.000 A 
ATOM     16  C   UNL     1      16.840   8.729  40.488  0.00  0.00    +0.000 A 
ATOM     17  C   UNL     1      15.877   9.841  40.618  0.00  0.00    +0.000 C 
ATOM     18  C   UNL     1      16.718   7.559  41.224  0.00  0.00    +0.000 A 
ATOM     19  C   UNL     1      15.581   7.402  42.185  0.00  0.00    +0.000 C 
BRANCH  12  21
ATOM     20  C   UNL     1      18.556   4.649  42.399  0.00  0.00    +0.000 C 
ATOM     21  O   UNL     1      17.458   5.344  41.870  0.00  0.00    +0.000 OA
ENDBRANCH  12  21
ENDBRANCH   1  15
TORSDOF 3
ENDMDL
MODEL 5
REMARK VINA RESULT:      -6.7     19.979     21.282
REMARK  Name = 
REMARK  3 active torsions:
REMARK  status: ('A' for Active; 'I' for Inactive)
REMARK    1  A    between atoms: O_2  and  C_3
REMARK    2  A    between atoms: C_6  and  N_7
REMARK    3  A    between atoms: N_7  and  C_8
REMARK                            x       y       z     vdW  Elec       q    Type
REMARK                         _______ _______ _______ _____ _____    ______ ____
ROOT
ATOM      1  N   UNL     1      27.815  23.039  23.867  0.00  0.00    +0.000 NA
ENDROOT
BRANCH   1   2
ATOM      2  C   UNL     1      28.173  24.120  23.059  0.00  0.00    +0.000 A 
ATOM      3  C   UNL     1      27.814  25.389  23.451  0.00  0.00    +0.000 A 
ATOM      4  C   UNL     1      28.115  26.524  22.730  0.00  0.00    +0.000 A 
ATOM      5  C   UNL     1      28.814  26.385  21.552  0.00  0.00    +0.000 A 
ATOM      6  N   UNL     1      29.246  27.274  20.651  0.00  0.00    +0.000 NA
ATOM      7  C   UNL     1      29.876  26.600  19.686  0.00  0.00    +0.000 A 
ATOM      8  O   UNL     1      30.402  27.143  18.684  0.00  0.00    +0.000 OA
ATOM      9  O   UNL     1      29.832  25.326  19.989  0.00  0.00    +0.000 OA
ATOM     10  C   UNL     1      29.194  25.134  21.122  0.00  0.00    +0.000 A 
ATOM     11  C   UNL     1      28.875  24.007  21.870  0.00  0.00    +0.000 A 
ENDBRANCH   1   2
BRANCH   1  15
ATOM     12  C   UNL     1      28.500  22.747  28.037  0.00  0.00    +0.000 A 
ATOM     13  C   UNL     1      27.263  23.071  27.523  0.00  0.00    +0.000 A 
ATOM     14  C   UNL     1      27.066  23.159  26.158  0.00  0.00    +0.000 A 
ATOM     15  C   UNL     1      28.083  22.931  25.254  0.00  0.00    +0.000 A 
ATOM     16  C   UNL     1      29.323  22.608  25.760  0.00  0.00    +0.000 A 
ATOM     17  C   UNL     1      30.416  22.363  24.798  0.00  0.00    +0.000 C 
ATOM     18  C   UNL     1      29.514  22.520  27.131  0.00  0.00    +0.000 A 
ATOM     19  C   UNL     1      30.866  22.167  27.671  0.00  0.00    +0.000 C 
BRANCH  12  21
ATOM     20  C   UNL     1      27.740  22.207  30.311  0.00  0.00    +0.000 C 
ATOM     21  O   UNL     1      28.729  22.649  29.420  0.00  0.00    +0.000 OA
ENDBRANCH  12  21
ENDBRANCH   1  15
TORSDOF 3
ENDMDL
MODEL 6
REMARK VINA RESULT:      -6.7     20.463     21.816
REMARK  Name = 
REMARK  3 active torsions:
REMARK  status: ('A' for Active; 'I' for Inactive)
REMARK    1  A    between atoms: O_2  and  C_3
REMARK    2  A    between atoms: C_6  and  N_7
REMARK    3  A    between atoms: N_7  and  C_8
REMARK                            x       y       z     vdW  Elec       q    Type
REMARK                         _______ _______ _______ _____ _____    ______ ____
ROOT
ATOM      1  N   UNL     1      28.175  23.118  23.153  0.00  0.00    +0.000 NA
ENDROOT
BRANCH   1   2
ATOM      2  C   UNL     1      28.291  24.302  22.422  0.00  0.00    +0.000 A 
ATOM      3  C   UNL     1      27.435  25.342  22.702  0.00  0.00    +0.000 A 
ATOM      4  C   UNL     1      27.462  26.551  22.043  0.00  0.00    +0.000 A 
ATOM      5  C   UNL     1      28.397  26.734  21.048  0.00  0.00    +0.000 A 
ATOM      6  N   UNL     1      28.669  27.769  20.247  0.00  0.00    +0.000 NA
ATOM      7  C   UNL     1      29.684  27.414  19.456  0.00  0.00    +0.000 A 
ATOM      8  O   UNL     1      30.185  28.165  18.582  0.00  0.00    +0.000 OA
ATOM      9  O   UNL     1      30.028  26.188  19.766  0.00  0.00    +0.000 OA
ATOM     10  C   UNL     1      29.274  25.720  20.736  0.00  0.00    +0.000 A 
ATOM     11  C   UNL     1      29.222  24.510  21.418  0.00  0.00    +0.000 A 
ENDBRANCH   1   2
BRANCH   1  15
ATOM     12  C   UNL     1      29.844  22.481  26.995  0.00  0.00    +0.000 A 
ATOM     13  C   UNL     1      30.629  22.572  25.865  0.00  0.00    +0.000 A 
ATOM     14  C   UNL     1      30.059  22.781  24.623  0.00  0.00    +0.000 A 
ATOM     15  C   UNL     1      28.696  22.906  24.454  0.00  0.00    +0.000 A 
ATOM     16  C   UNL     1      27.904  22.816  25.578  0.00  0.00    +0.000 A 
ATOM     17  C   UNL     1      26.444  22.949  25.403  0.00  0.00    +0.000 C 
ATOM     18  C   UNL     1      28.482  22.607  26.822  0.00  0.00    +0.000 A 
ATOM     19  C   UNL     1      27.613  22.511  28.037  0.00  0.00    +0.000 C 
BRANCH  12  21
ATOM     20  C   UNL     1      31.773  22.088  28.466  0.00  0.00    +0.000 C 
ATOM     21  O   UNL     1      30.396  22.270  28.270  0.00  0.00    +0.000 OA
ENDBRANCH  12  21
ENDBRANCH   1  15
TORSDOF 3
ENDMDL
MODEL 7
REMARK VINA RESULT:      -6.7     18.813     20.430
REMARK  Name = 
REMARK  3 active torsions:
REMARK  status: ('A' for Active; 'I' for Inactive)
REMARK    1  A    between atoms: O_2  and  C_3
REMARK    2  A    between atoms: C_6  and  N_7
REMARK    3  A    between atoms: N_7  and  C_8
REMARK                            x       y       z     vdW  Elec       q    Type
REMARK                         _______ _______ _______ _____ _____    ______ ____
ROOT
ATOM      1  N   UNL     1      28.281  22.454  25.707  0.00  0.00    +0.000 NA
ENDROOT
BRANCH   1   2
ATOM      2  C   UNL     1      28.385  23.381  24.668  0.00  0.00    +0.000 A 
ATOM      3  C   UNL     1      27.782  24.609  24.811  0.00  0.00    +0.000 A 
ATOM      4  C   UNL     1      27.821  25.596  23.851  0.00  0.00    +0.000 A 
ATOM      5  C   UNL     1      28.503  25.344  22.681  0.00  0.00    +0.000 A 
ATOM      6  N   UNL     1      28.718  26.082  21.587  0.00  0.00    +0.000 NA
ATOM      7  C   UNL     1      29.449  25.351  20.742  0.00  0.00    +0.000 A 
ATOM      8  O   UNL     1      29.825  25.755  19.614  0.00  0.00    +0.000 OA
ATOM      9  O   UNL     1      29.678  24.190  21.306  0.00  0.00    +0.000 OA
ATOM     10  C   UNL     1      29.123  24.129  22.496  0.00  0.00    +0.000 A 
ATOM     11  C   UNL     1      29.065  23.152  23.483  0.00  0.00    +0.000 A 
ENDBRANCH   1   2
BRANCH   1  15
ATOM     12  C   UNL     1      30.621  22.513  29.238  0.00  0.00    +0.000 A 
ATOM     13  C   UNL     1      31.159  22.182  28.012  0.00  0.00    +0.000 A 
ATOM     14  C   UNL     1      30.374  22.171  26.876  0.00  0.00    +0.000 A 
ATOM     15  C   UNL     1      29.031  22.484  26.908  0.00  0.00    +0.000 A 
ATOM     16  C   UNL     1      28.485  22.816  28.129  0.00  0.00    +0.000 A 
ATOM     17  C   UNL     1      27.048  23.153  28.172  0.00  0.00    +0.000 C 
ATOM     18  C   UNL     1      29.279  22.826  29.267  0.00  0.00    +0.000 A 
ATOM     19  C   UNL     1      28.676  23.189  30.589  0.00  0.00    +0.000 C 
BRANCH  12  21
ATOM     20  C   UNL     1      32.115  21.412  30.850  0.00  0.00    +0.000 C 
ATOM     21  O   UNL     1      31.396  22.533  30.410  0.00  0.00    +0.000 OA
ENDBRANCH  12  21
ENDBRANCH   1  15
TORSDOF 3
ENDMDL
MODEL 8
REMARK VINA RESULT:      -6.6      3.494      4.209
REMARK  Name = 
REMARK  3 active torsions:
REMARK  status: ('A' for Active; 'I' for Inactive)
REMARK    1  A    between atoms: O_2  and  C_3
REMARK    2  A    between atoms: C_6  and  N_7
REMARK    3  A    between atoms: N_7  and  C_8
REMARK                            x       y       z     vdW  Elec       q    Type
REMARK                         _______ _______ _______ _____ _____    ______ ____
ROOT
ATOM      1  N   UNL     1      18.230  10.663  37.599  0.00  0.00    +0.000 NA
ENDROOT
BRANCH   1   2
ATOM      2  C   UNL     1      18.023   9.717  38.605  0.00  0.00    +0.000 A 
ATOM      3  C   UNL     1      17.012   9.925  39.514  0.00  0.00    +0.000 A 
ATOM      4  C   UNL     1      16.722   9.059  40.545  0.00  0.00    +0.000 A 
ATOM      5  C   UNL     1      17.484   7.918  40.675  0.00  0.00    +0.000 A 
ATOM      6  N   UNL     1      17.449   6.908  41.550  0.00  0.00    +0.000 NA
ATOM      7  C   UNL     1      18.420   6.053  41.220  0.00  0.00    +0.000 A 
ATOM      8  O   UNL     1      18.658   4.990  41.846  0.00  0.00    +0.000 OA
ATOM      9  O   UNL     1      19.036   6.529  40.165  0.00  0.00    +0.000 OA
ATOM     10  C   UNL     1      18.505   7.670  39.787  0.00  0.00    +0.000 A 
ATOM     11  C   UNL     1      18.775   8.564  38.757  0.00  0.00    +0.000 A 
ENDBRANCH   1   2
BRANCH   1  15
ATOM     12  C   UNL     1      16.152  10.765  33.908  0.00  0.00    +0.000 A 
ATOM     13  C   UNL     1      17.153   9.850  34.156  0.00  0.00    +0.000 A 
ATOM     14  C   UNL     1      17.815   9.838  35.369  0.00  0.00    +0.000 A 
ATOM     15  C   UNL     1      17.513  10.728  36.378  0.00  0.00    +0.000 A 
ATOM     16  C   UNL     1      16.514  11.646  36.139  0.00  0.00    +0.000 A 
ATOM     17  C   UNL     1      16.186  12.602  37.216  0.00  0.00    +0.000 C 
ATOM     18  C   UNL     1      15.852  11.653  34.920  0.00  0.00    +0.000 A 
ATOM     19  C   UNL     1      14.768  12.655  34.669  0.00  0.00    +0.000 C 
BRANCH  12  21
ATOM     20  C   UNL     1      16.106  10.590  31.457  0.00  0.00    +0.000 C 
ATOM     21  O   UNL     1      15.461  10.801  32.685  0.00  0.00    +0.000 OA
ENDBRANCH  12  21
ENDBRANCH   1  15
TORSDOF 3
ENDMDL
MODEL 9
REMARK VINA RESULT:      -6.5     18.730     19.497
REMARK  Name = 
REMARK  3 active torsions:
REMARK  status: ('A' for Active; 'I' for Inactive)
REMARK    1  A    between atoms: O_2  and  C_3
REMARK    2  A    between atoms: C_6  and  N_7
REMARK    3  A    between atoms: N_7  and  C_8
REMARK                            x       y       z     vdW  Elec       q    Type
REMARK                         _______ _______ _______ _____ _____    ______ ____
ROOT
ATOM      1  N   UNL     1      25.695  23.387  25.805  0.00  0.00    +0.000 NA
ENDROOT
BRANCH   1   2
ATOM      2  C   UNL     1      26.746  23.563  24.903  0.00  0.00    +0.000 A 
ATOM      3  C   UNL     1      27.969  23.006  25.192  0.00  0.00    +0.000 A 
ATOM      4  C   UNL     1      29.072  23.118  24.373  0.00  0.00    +0.000 A 
ATOM      5  C   UNL     1      28.946  23.825  23.198  0.00  0.00    +0.000 A 
ATOM      6  N   UNL     1      29.811  24.104  22.218  0.00  0.00    +0.000 NA
ATOM      7  C   UNL     1      29.166  24.831  21.303  0.00  0.00    +0.000 A 
ATOM      8  O   UNL     1      29.698  25.259  20.248  0.00  0.00    +0.000 OA
ATOM      9  O   UNL     1      27.932  24.994  21.713  0.00  0.00    +0.000 OA
ATOM     10  C   UNL     1      27.739  24.399  22.869  0.00  0.00    +0.000 A 
ATOM     11  C   UNL     1      26.644  24.270  23.716  0.00  0.00    +0.000 A 
ENDBRANCH   1   2
BRANCH   1  15
ATOM     12  C   UNL     1      25.417  25.232  29.609  0.00  0.00    +0.000 A 
ATOM     13  C   UNL     1      26.127  24.066  29.414  0.00  0.00    +0.000 A 
ATOM     14  C   UNL     1      26.201  23.485  28.163  0.00  0.00    +0.000 A 
ATOM     15  C   UNL     1      25.580  24.033  27.061  0.00  0.00    +0.000 A 
ATOM     16  C   UNL     1      24.868  25.198  27.247  0.00  0.00    +0.000 A 
ATOM     17  C   UNL     1      24.199  25.791  26.071  0.00  0.00    +0.000 C 
ATOM     18  C   UNL     1      24.797  25.778  28.505  0.00  0.00    +0.000 A 
ATOM     19  C   UNL     1      24.022  27.045  28.696  0.00  0.00    +0.000 C 
BRANCH  12  21
ATOM     20  C   UNL     1      26.170  25.497  31.933  0.00  0.00    +0.000 C 
ATOM     21  O   UNL     1      25.325  25.846  30.869  0.00  0.00    +0.000 OA
ENDBRANCH  12  21
ENDBRANCH   1  15
TORSDOF 3
ENDMDL
MODEL 10
REMARK VINA RESULT:      -6.3     17.218     18.434
REMARK  Name = 
REMARK  3 active torsions:
REMARK  status: ('A' for Active; 'I' for Inactive)
REMARK    1  A    between atoms: O_2  and  C_3
REMARK    2  A    between atoms: C_6  and  N_7
REMARK    3  A    between atoms: N_7  and  C_8
REMARK                            x       y       z     vdW  Elec       q    Type
REMARK                         _______ _______ _______ _____ _____    ______ ____
ROOT
ATOM      1  N   UNL     1      27.982  21.982  28.060  0.00  0.00    +0.000 NA
ENDROOT
BRANCH   1   2
ATOM      2  C   UNL     1      27.689  22.865  29.102  0.00  0.00    +0.000 A 
ATOM      3  C   UNL     1      28.693  23.223  29.971  0.00  0.00    +0.000 A 
ATOM      4  C   UNL     1      28.513  24.084  31.031  0.00  0.00    +0.000 A 
ATOM      5  C   UNL     1      27.261  24.620  31.234  0.00  0.00    +0.000 A 
ATOM      6  N   UNL     1      26.781  25.466  32.152  0.00  0.00    +0.000 NA
ATOM      7  C   UNL     1      25.487  25.659  31.889  0.00  0.00    +0.000 A 
ATOM      8  O   UNL     1      24.739  26.404  32.569  0.00  0.00    +0.000 OA
ATOM      9  O   UNL     1      25.179  24.947  30.832  0.00  0.00    +0.000 OA
ATOM     10  C   UNL     1      26.227  24.290  30.388  0.00  0.00    +0.000 A 
ATOM     11  C   UNL     1      26.439  23.416  29.327  0.00  0.00    +0.000 A 
ENDBRANCH   1   2
BRANCH   1  15
ATOM     12  C   UNL     1      29.045  23.132  24.124  0.00  0.00    +0.000 A 
ATOM     13  C   UNL     1      27.730  23.074  24.537  0.00  0.00    +0.000 A 
ATOM     14  C   UNL     1      27.411  22.696  25.827  0.00  0.00    +0.000 A 
ATOM     15  C   UNL     1      28.376  22.362  26.753  0.00  0.00    +0.000 A 
ATOM     16  C   UNL     1      29.692  22.417  26.349  0.00  0.00    +0.000 A 
ATOM     17  C   UNL     1      30.731  22.060  27.337  0.00  0.00    +0.000 C 
ATOM     18  C   UNL     1      30.007  22.798  25.053  0.00  0.00    +0.000 A 
ATOM     19  C   UNL     1      31.441  22.855  24.624  0.00  0.00    +0.000 C 
BRANCH  12  21
ATOM     20  C   UNL     1      28.648  24.442  22.082  0.00  0.00    +0.000 C 
ATOM     21  O   UNL     1      29.399  23.514  22.819  0.00  0.00    +0.000 OA
ENDBRANCH  12  21
ENDBRANCH   1  15
TORSDOF 3
ENDMDL
