MODEL 1
REMARK VINA RESULT:      -7.0      0.000      0.000
REMARK  Name = 
REMARK  2 active torsions:
REMARK  status: ('A' for Active; 'I' for Inactive)
REMARK    1  A    between atoms: C_5  and  N_6
REMARK    2  A    between atoms: C_7  and  C_9
REMARK                            x       y       z     vdW  Elec       q    Type
REMARK                         _______ _______ _______ _____ _____    ______ ____
ROOT
ATOM      1  N   UNL     1      16.091  10.558  35.155  0.00  0.00    +0.000 NA
ATOM      2  C   UNL     1      16.844  11.208  36.160  0.00  0.00    +0.000 C 
ATOM      3  O   UNL     1      17.247  12.357  35.903  0.00  0.00    +0.000 OA
ENDROOT
BRANCH   2   4
ATOM      4  C   UNL     1      17.150  10.566  37.471  0.00  0.00    +0.000 A 
ATOM      5  C   UNL     1      16.212  10.546  38.467  0.00  0.00    +0.000 A 
ATOM      6  N   UNL     1      14.871  11.095  38.431  0.00  0.00    +0.000 NA
ATOM      7  S   UNL     1      17.003   9.728  39.733  0.00  0.00    +0.000 S 
ATOM      8  C   UNL     1      18.497   9.431  38.977  0.00  0.00    +0.000 A 
ATOM      9  C   UNL     1      18.340   9.985  37.739  0.00  0.00    +0.000 A 
ATOM     10  C   UNL     1      19.578   9.839  36.862  0.00  0.00    +0.000 C 
ATOM     11  C   UNL     1      20.724  10.364  37.684  0.00  0.00    +0.000 C 
ATOM     12  C   UNL     1      20.976   9.591  38.929  0.00  0.00    +0.000 C 
ATOM     13  C   UNL     1      19.794   8.759  39.368  0.00  0.00    +0.000 C 
ENDBRANCH   2   4
BRANCH   1  18
ATOM     14  C   UNL     1      14.828  13.279  30.315  0.00  0.00    +0.000 C 
ATOM     15  C   UNL     1      15.187  12.545  31.559  0.00  0.00    +0.000 A 
ATOM     16  C   UNL     1      14.518  12.874  32.729  0.00  0.00    +0.000 A 
ATOM     17  C   UNL     1      14.855  12.194  33.869  0.00  0.00    +0.000 A 
ATOM     18  C   UNL     1      15.817  11.207  33.907  0.00  0.00    +0.000 A 
ATOM     19  C   UNL     1      16.473  10.888  32.750  0.00  0.00    +0.000 A 
ATOM     20  C   UNL     1      16.158  11.558  31.572  0.00  0.00    +0.000 A 
ENDBRANCH   1  18
TORSDOF 2
ENDMDL
MODEL 2
REMARK VINA RESULT:      -6.7     17.793     19.940
REMARK  Name = 
REMARK  2 active torsions:
REMARK  status: ('A' for Active; 'I' for Inactive)
REMARK    1  A    between atoms: C_5  and  N_6
REMARK    2  A    between atoms: C_7  and  C_9
REMARK                            x       y       z     vdW  Elec       q    Type
REMARK                         _______ _______ _______ _____ _____    ______ ____
ROOT
ATOM      1  N   UNL     1      32.946   0.325  35.148  0.00  0.00    +0.000 NA
ATOM      2  C   UNL     1      33.971   0.806  35.995  0.00  0.00    +0.000 C 
ATOM      3  O   UNL     1      34.852  -0.008  36.326  0.00  0.00    +0.000 OA
ENDROOT
BRANCH   2   4
ATOM      4  C   UNL     1      34.012   2.216  36.479  0.00  0.00    +0.000 A 
ATOM      5  C   UNL     1      34.053   2.486  37.820  0.00  0.00    +0.000 A 
ATOM      6  N   UNL     1      34.061   1.535  38.915  0.00  0.00    +0.000 NA
ATOM      7  S   UNL     1      34.090   4.187  37.876  0.00  0.00    +0.000 S 
ATOM      8  C   UNL     1      34.054   4.517  36.208  0.00  0.00    +0.000 A 
ATOM      9  C   UNL     1      34.013   3.275  35.641  0.00  0.00    +0.000 A 
ATOM     10  C   UNL     1      33.974   3.319  34.118  0.00  0.00    +0.000 C 
ATOM     11  C   UNL     1      32.843   4.248  33.765  0.00  0.00    +0.000 C 
ATOM     12  C   UNL     1      33.041   5.644  34.238  0.00  0.00    +0.000 C 
ATOM     13  C   UNL     1      34.057   5.762  35.350  0.00  0.00    +0.000 C 
ENDBRANCH   2   4
BRANCH   1  18
ATOM     14  C   UNL     1      32.757  -5.143  33.569  0.00  0.00    +0.000 C 
ATOM     15  C   UNL     1      32.834  -3.706  33.951  0.00  0.00    +0.000 A 
ATOM     16  C   UNL     1      32.080  -3.275  35.032  0.00  0.00    +0.000 A 
ATOM     17  C   UNL     1      32.157  -1.952  35.376  0.00  0.00    +0.000 A 
ATOM     18  C   UNL     1      32.940  -1.038  34.704  0.00  0.00    +0.000 A 
ATOM     19  C   UNL     1      33.680  -1.469  33.638  0.00  0.00    +0.000 A 
ATOM     20  C   UNL     1      33.628  -2.806  33.259  0.00  0.00    +0.000 A 
ENDBRANCH   1  18
TORSDOF 2
ENDMDL
MODEL 3
REMARK VINA RESULT:      -6.5      2.672      3.944
REMARK  Name = 
REMARK  2 active torsions:
REMARK  status: ('A' for Active; 'I' for Inactive)
REMARK    1  A    between atoms: C_5  and  N_6
REMARK    2  A    between atoms: C_7  and  C_9
REMARK                            x       y       z     vdW  Elec       q    Type
REMARK                         _______ _______ _______ _____ _____    ______ ____
ROOT
ATOM      1  N   UNL     1      17.489   9.612  37.323  0.00  0.00    +0.000 NA
ATOM      2  C   UNL     1      18.209  10.369  38.276  0.00  0.00    +0.000 C 
ATOM      3  O   UNL     1      18.465  11.549  37.976  0.00  0.00    +0.000 OA
ENDROOT
BRANCH   2   4
ATOM      4  C   UNL     1      18.650   9.799  39.583  0.00  0.00    +0.000 A 
ATOM      5  C   UNL     1      19.971   9.524  39.806  0.00  0.00    +0.000 A 
ATOM      6  N   UNL     1      21.083   9.719  38.896  0.00  0.00    +0.000 NA
ATOM      7  S   UNL     1      19.980   8.908  41.393  0.00  0.00    +0.000 S 
ATOM      8  C   UNL     1      18.317   9.011  41.736  0.00  0.00    +0.000 A 
ATOM      9  C   UNL     1      17.790   9.531  40.589  0.00  0.00    +0.000 A 
ATOM     10  C   UNL     1      16.279   9.718  40.662  0.00  0.00    +0.000 C 
ATOM     11  C   UNL     1      15.725   8.390  41.105  0.00  0.00    +0.000 C 
ATOM     12  C   UNL     1      16.180   7.970  42.458  0.00  0.00    +0.000 C 
ATOM     13  C   UNL     1      17.432   8.679  42.916  0.00  0.00    +0.000 C 
ENDBRANCH   2   4
BRANCH   1  18
ATOM     14  C   UNL     1      16.054  11.788  32.260  0.00  0.00    +0.000 C 
ATOM     15  C   UNL     1      16.399  11.243  33.602  0.00  0.00    +0.000 A 
ATOM     16  C   UNL     1      17.426  10.314  33.687  0.00  0.00    +0.000 A 
ATOM     17  C   UNL     1      17.737   9.818  34.925  0.00  0.00    +0.000 A 
ATOM     18  C   UNL     1      17.083  10.194  36.078  0.00  0.00    +0.000 A 
ATOM     19  C   UNL     1      16.070  11.110  35.988  0.00  0.00    +0.000 A 
ATOM     20  C   UNL     1      15.726  11.636  34.747  0.00  0.00    +0.000 A 
ENDBRANCH   1  18
TORSDOF 2
ENDMDL
MODEL 4
REMARK VINA RESULT:      -6.4     18.257     19.210
REMARK  Name = 
REMARK  2 active torsions:
REMARK  status: ('A' for Active; 'I' for Inactive)
REMARK    1  A    between atoms: C_5  and  N_6
REMARK    2  A    between atoms: C_7  and  C_9
REMARK                            x       y       z     vdW  Elec       q    Type
REMARK                         _______ _______ _______ _____ _____    ______ ____
ROOT
ATOM      1  N   UNL     1      29.202  22.135  27.305  0.00  0.00    +0.000 NA
ATOM      2  C   UNL     1      29.797  23.035  28.218  0.00  0.00    +0.000 C 
ATOM      3  O   UNL     1      29.981  24.199  27.817  0.00  0.00    +0.000 OA
ENDROOT
BRANCH   2   4
ATOM      4  C   UNL     1      30.191  22.631  29.599  0.00  0.00    +0.000 A 
ATOM      5  C   UNL     1      29.360  22.882  30.656  0.00  0.00    +0.000 A 
ATOM      6  N   UNL     1      28.063  23.529  30.629  0.00  0.00    +0.000 NA
ATOM      7  S   UNL     1      30.219  22.255  31.986  0.00  0.00    +0.000 S 
ATOM      8  C   UNL     1      31.604  21.691  31.177  0.00  0.00    +0.000 A 
ATOM      9  C   UNL     1      31.359  22.011  29.872  0.00  0.00    +0.000 A 
ATOM     10  C   UNL     1      32.488  21.593  28.937  0.00  0.00    +0.000 C 
ATOM     11  C   UNL     1      33.746  22.165  29.536  0.00  0.00    +0.000 C 
ATOM     12  C   UNL     1      34.070  21.623  30.882  0.00  0.00    +0.000 C 
ATOM     13  C   UNL     1      32.885  20.996  31.578  0.00  0.00    +0.000 C 
ENDBRANCH   2   4
BRANCH   1  18
ATOM     14  C   UNL     1      27.510  23.849  22.144  0.00  0.00    +0.000 C 
ATOM     15  C   UNL     1      27.992  23.397  23.479  0.00  0.00    +0.000 A 
ATOM     16  C   UNL     1      27.067  23.293  24.508  0.00  0.00    +0.000 A 
ATOM     17  C   UNL     1      27.519  22.877  25.731  0.00  0.00    +0.000 A 
ATOM     18  C   UNL     1      28.836  22.560  25.986  0.00  0.00    +0.000 A 
ATOM     19  C   UNL     1      29.743  22.666  24.967  0.00  0.00    +0.000 A 
ATOM     20  C   UNL     1      29.322  23.086  23.710  0.00  0.00    +0.000 A 
ENDBRANCH   1  18
TORSDOF 2
ENDMDL
MODEL 5
REMARK VINA RESULT:      -6.3      1.507      2.361
REMARK  Name = 
REMARK  2 active torsions:
REMARK  status: ('A' for Active; 'I' for Inactive)
REMARK    1  A    between atoms: C_5  and  N_6
REMARK    2  A    between atoms: C_7  and  C_9
REMARK                            x       y       z     vdW  Elec       q    Type
REMARK                         _______ _______ _______ _____ _____    ______ ____
ROOT
ATOM      1  N   UNL     1      17.493   9.916  36.324  0.00  0.00    +0.000 NA
ATOM      2  C   UNL     1      18.221  10.657  37.283  0.00  0.00    +0.000 C 
ATOM      3  O   UNL     1      18.187  11.896  37.177  0.00  0.00    +0.000 OA
ENDROOT
BRANCH   2   4
ATOM      4  C   UNL     1      18.999  10.004  38.376  0.00  0.00    +0.000 A 
ATOM      5  C   UNL     1      18.368   9.575  39.511  0.00  0.00    +0.000 A 
ATOM      6  N   UNL     1      16.956   9.669  39.830  0.00  0.00    +0.000 NA
ATOM      7  S   UNL     1      19.635   8.915  40.438  0.00  0.00    +0.000 S 
ATOM      8  C   UNL     1      20.929   9.196  39.371  0.00  0.00    +0.000 A 
ATOM      9  C   UNL     1      20.332   9.806  38.304  0.00  0.00    +0.000 A 
ATOM     10  C   UNL     1      21.317  10.160  37.196  0.00  0.00    +0.000 C 
ATOM     11  C   UNL     1      22.425  10.929  37.866  0.00  0.00    +0.000 C 
ATOM     12  C   UNL     1      23.174  10.142  38.881  0.00  0.00    +0.000 C 
ATOM     13  C   UNL     1      22.418   8.933  39.381  0.00  0.00    +0.000 C 
ENDBRANCH   2   4
BRANCH   1  18
ATOM     14  C   UNL     1      14.724  12.442  32.036  0.00  0.00    +0.000 C 
ATOM     15  C   UNL     1      15.422  11.801  33.184  0.00  0.00    +0.000 A 
ATOM     16  C   UNL     1      16.496  10.966  32.914  0.00  0.00    +0.000 A 
ATOM     17  C   UNL     1      17.132  10.380  33.976  0.00  0.00    +0.000 A 
ATOM     18  C   UNL     1      16.757  10.579  35.287  0.00  0.00    +0.000 A 
ATOM     19  C   UNL     1      15.696  11.403  35.547  0.00  0.00    +0.000 A 
ATOM     20  C   UNL     1      15.026  12.016  34.494  0.00  0.00    +0.000 A 
ENDBRANCH   1  18
TORSDOF 2
ENDMDL
MODEL 6
REMARK VINA RESULT:      -6.3     21.454     22.546
REMARK  Name = 
REMARK  2 active torsions:
REMARK  status: ('A' for Active; 'I' for Inactive)
REMARK    1  A    between atoms: C_5  and  N_6
REMARK    2  A    between atoms: C_7  and  C_9
REMARK                            x       y       z     vdW  Elec       q    Type
REMARK                         _______ _______ _______ _____ _____    ______ ____
ROOT
ATOM      1  N   UNL     1      22.361  -7.354  25.557  0.00  0.00    +0.000 NA
ATOM      2  C   UNL     1      21.057  -7.757  25.189  0.00  0.00    +0.000 C 
ATOM      3  O   UNL     1      20.934  -8.311  24.081  0.00  0.00    +0.000 OA
ENDROOT
BRANCH   2   4
ATOM      4  C   UNL     1      19.873  -7.538  26.070  0.00  0.00    +0.000 A 
ATOM      5  C   UNL     1      19.284  -6.305  26.142  0.00  0.00    +0.000 A 
ATOM      6  N   UNL     1      19.669  -5.097  25.438  0.00  0.00    +0.000 NA
ATOM      7  S   UNL     1      18.010  -6.544  27.245  0.00  0.00    +0.000 S 
ATOM      8  C   UNL     1      18.251  -8.192  27.589  0.00  0.00    +0.000 A 
ATOM      9  C   UNL     1      19.334  -8.519  26.824  0.00  0.00    +0.000 A 
ATOM     10  C   UNL     1      19.744  -9.980  26.970  0.00  0.00    +0.000 C 
ATOM     11  C   UNL     1      19.880 -10.219  28.451  0.00  0.00    +0.000 C 
ATOM     12  C   UNL     1      18.611 -10.044  29.207  0.00  0.00    +0.000 C 
ATOM     13  C   UNL     1      17.580  -9.225  28.466  0.00  0.00    +0.000 C 
ENDBRANCH   2   4
BRANCH   1  18
ATOM     14  C   UNL     1      26.758  -8.507  22.125  0.00  0.00    +0.000 C 
ATOM     15  C   UNL     1      25.614  -8.164  23.015  0.00  0.00    +0.000 A 
ATOM     16  C   UNL     1      24.935  -9.201  23.638  0.00  0.00    +0.000 A 
ATOM     17  C   UNL     1      23.885  -8.877  24.454  0.00  0.00    +0.000 A 
ATOM     18  C   UNL     1      23.474  -7.581  24.683  0.00  0.00    +0.000 A 
ATOM     19  C   UNL     1      24.147  -6.563  24.065  0.00  0.00    +0.000 A 
ATOM     20  C   UNL     1      25.219  -6.854  23.228  0.00  0.00    +0.000 A 
ENDBRANCH   1  18
TORSDOF 2
ENDMDL
MODEL 7
REMARK VINA RESULT:      -6.2     19.834     22.310
REMARK  Name = 
REMARK  2 active torsions:
REMARK  status: ('A' for Active; 'I' for Inactive)
REMARK    1  A    between atoms: C_5  and  N_6
REMARK    2  A    between atoms: C_7  and  C_9
REMARK                            x       y       z     vdW  Elec       q    Type
REMARK                         _______ _______ _______ _____ _____    ______ ____
ROOT
ATOM      1  N   UNL     1      34.533  -1.954  34.264  0.00  0.00    +0.000 NA
ATOM      2  C   UNL     1      33.516  -2.935  34.327  0.00  0.00    +0.000 C 
ATOM      3  O   UNL     1      32.343  -2.534  34.215  0.00  0.00    +0.000 OA
ENDROOT
BRANCH   2   4
ATOM      4  C   UNL     1      33.814  -4.384  34.518  0.00  0.00    +0.000 A 
ATOM      5  C   UNL     1      33.992  -4.893  35.775  0.00  0.00    +0.000 A 
ATOM      6  N   UNL     1      33.930  -4.180  37.036  0.00  0.00    +0.000 NA
ATOM      7  S   UNL     1      34.299  -6.543  35.490  0.00  0.00    +0.000 S 
ATOM      8  C   UNL     1      34.195  -6.551  33.792  0.00  0.00    +0.000 A 
ATOM      9  C   UNL     1      33.920  -5.249  33.487  0.00  0.00    +0.000 A 
ATOM     10  C   UNL     1      33.779  -5.009  31.988  0.00  0.00    +0.000 C 
ATOM     11  C   UNL     1      35.020  -5.590  31.363  0.00  0.00    +0.000 C 
ATOM     12  C   UNL     1      35.161  -7.057  31.559  0.00  0.00    +0.000 C 
ATOM     13  C   UNL     1      34.333  -7.592  32.704  0.00  0.00    +0.000 C 
ENDBRANCH   2   4
BRANCH   1  18
ATOM     14  C   UNL     1      33.290   3.516  33.283  0.00  0.00    +0.000 C 
ATOM     15  C   UNL     1      33.607   2.092  33.581  0.00  0.00    +0.000 A 
ATOM     16  C   UNL     1      33.990   1.273  32.529  0.00  0.00    +0.000 A 
ATOM     17  C   UNL     1      34.279  -0.035  32.811  0.00  0.00    +0.000 A 
ATOM     18  C   UNL     1      34.208  -0.571  34.079  0.00  0.00    +0.000 A 
ATOM     19  C   UNL     1      33.829   0.242  35.113  0.00  0.00    +0.000 A 
ATOM     20  C   UNL     1      33.527   1.577  34.864  0.00  0.00    +0.000 A 
ENDBRANCH   1  18
TORSDOF 2
ENDMDL
MODEL 8
REMARK VINA RESULT:      -6.1     20.647     22.625
REMARK  Name = 
REMARK  2 active torsions:
REMARK  status: ('A' for Active; 'I' for Inactive)
REMARK    1  A    between atoms: C_5  and  N_6
REMARK    2  A    between atoms: C_7  and  C_9
REMARK                            x       y       z     vdW  Elec       q    Type
REMARK                         _______ _______ _______ _____ _____    ______ ____
ROOT
ATOM      1  N   UNL     1      31.167  24.780  24.857  0.00  0.00    +0.000 NA
ATOM      2  C   UNL     1      30.572  23.646  24.259  0.00  0.00    +0.000 C 
ATOM      3  O   UNL     1      31.288  22.634  24.140  0.00  0.00    +0.000 OA
ENDROOT
BRANCH   2   4
ATOM      4  C   UNL     1      29.157  23.640  23.787  0.00  0.00    +0.000 A 
ATOM      5  C   UNL     1      28.859  23.958  22.491  0.00  0.00    +0.000 A 
ATOM      6  N   UNL     1      29.783  24.327  21.435  0.00  0.00    +0.000 NA
ATOM      7  S   UNL     1      27.164  23.816  22.432  0.00  0.00    +0.000 S 
ATOM      8  C   UNL     1      26.871  23.358  24.043  0.00  0.00    +0.000 A 
ATOM      9  C   UNL     1      28.120  23.327  24.594  0.00  0.00    +0.000 A 
ATOM     10  C   UNL     1      28.109  22.933  26.067  0.00  0.00    +0.000 C 
ATOM     11  C   UNL     1      27.114  23.849  26.727  0.00  0.00    +0.000 C 
ATOM     12  C   UNL     1      25.724  23.692  26.222  0.00  0.00    +0.000 C 
ATOM     13  C   UNL     1      25.649  23.024  24.869  0.00  0.00    +0.000 C 
ENDBRANCH   2   4
BRANCH   1  18
ATOM     14  C   UNL     1      36.502  24.595  26.842  0.00  0.00    +0.000 C 
ATOM     15  C   UNL     1      35.122  24.653  26.285  0.00  0.00    +0.000 A 
ATOM     16  C   UNL     1      34.059  24.408  27.142  0.00  0.00    +0.000 A 
ATOM     17  C   UNL     1      32.794  24.464  26.621  0.00  0.00    +0.000 A 
ATOM     18  C   UNL     1      32.530  24.748  25.298  0.00  0.00    +0.000 A 
ATOM     19  C   UNL     1      33.583  24.987  24.458  0.00  0.00    +0.000 A 
ATOM     20  C   UNL     1      34.883  24.939  24.951  0.00  0.00    +0.000 A 
ENDBRANCH   1  18
TORSDOF 2
ENDMDL
MODEL 9
REMARK VINA RESULT:      -6.0     18.209     19.619
REMARK  Name = 
REMARK  2 active torsions:
REMARK  status: ('A' for Active; 'I' for Inactive)
REMARK    1  A    between atoms: C_5  and  N_6
REMARK    2  A    between atoms: C_7  and  C_9
REMARK                            x       y       z     vdW  Elec       q    Type
REMARK                         _______ _______ _______ _____ _____    ______ ____
ROOT
ATOM      1  N   UNL     1      26.077  25.126  26.639  0.00  0.00    +0.000 NA
ATOM      2  C   UNL     1      26.439  23.838  26.184  0.00  0.00    +0.000 C 
ATOM      3  O   UNL     1      25.566  23.193  25.575  0.00  0.00    +0.000 OA
ENDROOT
BRANCH   2   4
ATOM      4  C   UNL     1      27.796  23.261  26.411  0.00  0.00    +0.000 A 
ATOM      5  C   UNL     1      28.117  22.704  27.618  0.00  0.00    +0.000 A 
ATOM      6  N   UNL     1      27.271  22.583  28.790  0.00  0.00    +0.000 NA
ATOM      7  S   UNL     1      29.727  22.197  27.400  0.00  0.00    +0.000 S 
ATOM      8  C   UNL     1      29.957  22.701  25.792  0.00  0.00    +0.000 A 
ATOM      9  C   UNL     1      28.756  23.259  25.461  0.00  0.00    +0.000 A 
ATOM     10  C   UNL     1      28.723  23.792  24.033  0.00  0.00    +0.000 C 
ATOM     11  C   UNL     1      29.929  24.685  23.904  0.00  0.00    +0.000 C 
ATOM     12  C   UNL     1      31.224  23.975  24.075  0.00  0.00    +0.000 C 
ATOM     13  C   UNL     1      31.093  22.653  24.794  0.00  0.00    +0.000 C 
ENDBRANCH   2   4
BRANCH   1  18
ATOM     14  C   UNL     1      20.795  27.136  25.936  0.00  0.00    +0.000 C 
ATOM     15  C   UNL     1      22.185  26.620  26.080  0.00  0.00    +0.000 A 
ATOM     16  C   UNL     1      22.565  26.098  27.307  0.00  0.00    +0.000 A 
ATOM     17  C   UNL     1      23.845  25.626  27.430  0.00  0.00    +0.000 A 
ATOM     18  C   UNL     1      24.763  25.647  26.402  0.00  0.00    +0.000 A 
ATOM     19  C   UNL     1      24.381  26.164  25.194  0.00  0.00    +0.000 A 
ATOM     20  C   UNL     1      23.089  26.653  25.032  0.00  0.00    +0.000 A 
ENDBRANCH   1  18
TORSDOF 2
ENDMDL
MODEL 10
REMARK VINA RESULT:      -5.9     18.720     19.727
REMARK  Name = 
REMARK  2 active torsions:
REMARK  status: ('A' for Active; 'I' for Inactive)
REMARK    1  A    between atoms: C_5  and  N_6
REMARK    2  A    between atoms: C_7  and  C_9
REMARK                            x       y       z     vdW  Elec       q    Type
REMARK                         _______ _______ _______ _____ _____    ______ ____
ROOT
ATOM      1  N   UNL     1      25.850  25.501  25.599  0.00  0.00    +0.000 NA
ATOM      2  C   UNL     1      26.200  24.155  25.347  0.00  0.00    +0.000 C 
ATOM      3  O   UNL     1      25.299  23.307  25.481  0.00  0.00    +0.000 OA
ENDROOT
BRANCH   2   4
ATOM      4  C   UNL     1      27.577  23.749  24.939  0.00  0.00    +0.000 A 
ATOM      5  C   UNL     1      27.868  23.521  23.622  0.00  0.00    +0.000 A 
ATOM      6  N   UNL     1      26.972  23.622  22.486  0.00  0.00    +0.000 NA
ATOM      7  S   UNL     1      29.517  23.096  23.654  0.00  0.00    +0.000 S 
ATOM      8  C   UNL     1      29.798  23.217  25.326  0.00  0.00    +0.000 A 
ATOM      9  C   UNL     1      28.583  23.591  25.825  0.00  0.00    +0.000 A 
ATOM     10  C   UNL     1      28.592  23.765  27.340  0.00  0.00    +0.000 C 
ATOM     11  C   UNL     1      29.174  22.491  27.893  0.00  0.00    +0.000 C 
ATOM     12  C   UNL     1      30.578  22.240  27.474  0.00  0.00    +0.000 C 
ATOM     13  C   UNL     1      30.984  23.015  26.242  0.00  0.00    +0.000 C 
ENDBRANCH   2   4
BRANCH   1  18
ATOM     14  C   UNL     1      20.504  26.962  26.910  0.00  0.00    +0.000 C 
ATOM     15  C   UNL     1      21.908  26.570  26.608  0.00  0.00    +0.000 A 
ATOM     16  C   UNL     1      22.358  26.699  25.302  0.00  0.00    +0.000 A 
ATOM     17  C   UNL     1      23.650  26.336  25.033  0.00  0.00    +0.000 A 
ATOM     18  C   UNL     1      24.516  25.852  25.990  0.00  0.00    +0.000 A 
ATOM     19  C   UNL     1      24.067  25.726  27.276  0.00  0.00    +0.000 A 
ATOM     20  C   UNL     1      22.760  26.085  27.587  0.00  0.00    +0.000 A 
ENDBRANCH   1  18
TORSDOF 2
ENDMDL
