MODEL 1
REMARK VINA RESULT:      -8.4      0.000      0.000
REMARK  Name = 
REMARK  2 active torsions:
REMARK  status: ('A' for Active; 'I' for Inactive)
REMARK    1  A    between atoms: C_2  and  C_10
REMARK    2  A    between atoms: N_3  and  C_4
REMARK                            x       y       z     vdW  Elec       q    Type
REMARK                         _______ _______ _______ _____ _____    ______ ____
ROOT
ATOM      1  C   UNL     1      16.071  11.328  33.605  0.00  0.00    +0.000 A 
ATOM      2  C   UNL     1      16.449  10.822  32.388  0.00  0.00    +0.000 A 
ATOM      3  C   UNL     1      15.942  11.322  31.227  0.00  0.00    +0.000 A 
ATOM      4  C   UNL     1      15.025  12.368  31.272  0.00  0.00    +0.000 A 
ATOM      5  O   UNL     1      14.502  12.873  30.099  0.00  0.00    +0.000 OA
ATOM      6  C   UNL     1      14.637  12.885  32.518  0.00  0.00    +0.000 A 
ATOM      7  C   UNL     1      13.725  13.901  32.524  0.00  0.00    +0.000 A 
ATOM      8  C   UNL     1      13.302  14.431  33.750  0.00  0.00    +0.000 A 
ATOM      9  C   UNL     1      13.840  13.878  34.897  0.00  0.00    +0.000 A 
ATOM     10  C   UNL     1      14.756  12.858  34.905  0.00  0.00    +0.000 A 
ATOM     11  C   UNL     1      15.159  12.361  33.667  0.00  0.00    +0.000 A 
ENDROOT
BRANCH   1  13
ATOM     12  O   UNL     1      16.770   9.450  34.847  0.00  0.00    +0.000 OA
ATOM     13  C   UNL     1      16.607  10.672  34.806  0.00  0.00    +0.000 C 
ATOM     14  N   UNL     1      16.933  11.426  35.939  0.00  0.00    +0.000 NA
BRANCH  14  15
ATOM     15  C   UNL     1      17.417  11.059  37.188  0.00  0.00    +0.000 C 
ATOM     16  C   UNL     1      18.869  10.998  37.383  0.00  0.00    +0.000 C 
ATOM     17  C   UNL     1      19.282   9.595  37.725  0.00  0.00    +0.000 C 
ATOM     18  C   UNL     1      18.401   8.951  38.785  0.00  0.00    +0.000 C 
ATOM     19  C   UNL     1      17.367   9.906  39.336  0.00  0.00    +0.000 C 
ATOM     20  C   UNL     1      16.523  10.425  38.159  0.00  0.00    +0.000 C 
ENDBRANCH  14  15
ENDBRANCH   1  13
TORSDOF 2
ENDMDL
MODEL 2
REMARK VINA RESULT:      -8.0      1.436      2.976
REMARK  Name = 
REMARK  2 active torsions:
REMARK  status: ('A' for Active; 'I' for Inactive)
REMARK    1  A    between atoms: C_2  and  C_10
REMARK    2  A    between atoms: N_3  and  C_4
REMARK                            x       y       z     vdW  Elec       q    Type
REMARK                         _______ _______ _______ _____ _____    ______ ____
ROOT
ATOM      1  C   UNL     1      15.288  12.111  35.064  0.00  0.00    +0.000 A 
ATOM      2  C   UNL     1      14.463  13.149  35.416  0.00  0.00    +0.000 A 
ATOM      3  C   UNL     1      13.794  13.869  34.473  0.00  0.00    +0.000 A 
ATOM      4  C   UNL     1      13.946  13.548  33.127  0.00  0.00    +0.000 A 
ATOM      5  O   UNL     1      13.277  14.279  32.168  0.00  0.00    +0.000 OA
ATOM      6  C   UNL     1      14.792  12.487  32.768  0.00  0.00    +0.000 A 
ATOM      7  C   UNL     1      14.929  12.210  31.438  0.00  0.00    +0.000 A 
ATOM      8  C   UNL     1      15.777  11.169  31.041  0.00  0.00    +0.000 A 
ATOM      9  C   UNL     1      16.440  10.479  32.039  0.00  0.00    +0.000 A 
ATOM     10  C   UNL     1      16.312  10.747  33.377  0.00  0.00    +0.000 A 
ATOM     11  C   UNL     1      15.454  11.785  33.735  0.00  0.00    +0.000 A 
ENDROOT
BRANCH   1  13
ATOM     12  O   UNL     1      15.445  10.855  37.054  0.00  0.00    +0.000 OA
ATOM     13  C   UNL     1      16.032  11.444  36.143  0.00  0.00    +0.000 C 
ATOM     14  N   UNL     1      17.431  11.478  36.165  0.00  0.00    +0.000 NA
BRANCH  14  15
ATOM     15  C   UNL     1      18.356  10.967  37.065  0.00  0.00    +0.000 C 
ATOM     16  C   UNL     1      18.708  11.775  38.238  0.00  0.00    +0.000 C 
ATOM     17  C   UNL     1      20.168  12.122  38.202  0.00  0.00    +0.000 C 
ATOM     18  C   UNL     1      21.060  10.935  37.870  0.00  0.00    +0.000 C 
ATOM     19  C   UNL     1      20.284   9.643  37.754  0.00  0.00    +0.000 C 
ATOM     20  C   UNL     1      19.200   9.835  36.680  0.00  0.00    +0.000 C 
ENDBRANCH  14  15
ENDBRANCH   1  13
TORSDOF 2
ENDMDL
MODEL 3
REMARK VINA RESULT:      -7.6     27.529     30.212
REMARK  Name = 
REMARK  2 active torsions:
REMARK  status: ('A' for Active; 'I' for Inactive)
REMARK    1  A    between atoms: C_2  and  C_10
REMARK    2  A    between atoms: N_3  and  C_4
REMARK                            x       y       z     vdW  Elec       q    Type
REMARK                         _______ _______ _______ _____ _____    ______ ____
ROOT
ATOM      1  C   UNL     1      32.094  20.982  11.381  0.00  0.00    +0.000 A 
ATOM      2  C   UNL     1      33.194  20.803  12.180  0.00  0.00    +0.000 A 
ATOM      3  C   UNL     1      34.350  20.284  11.681  0.00  0.00    +0.000 A 
ATOM      4  C   UNL     1      34.421  19.927  10.338  0.00  0.00    +0.000 A 
ATOM      5  O   UNL     1      35.587  19.392   9.830  0.00  0.00    +0.000 OA
ATOM      6  C   UNL     1      33.294  20.109   9.522  0.00  0.00    +0.000 A 
ATOM      7  C   UNL     1      33.395  19.734   8.213  0.00  0.00    +0.000 A 
ATOM      8  C   UNL     1      32.285  19.886   7.372  0.00  0.00    +0.000 A 
ATOM      9  C   UNL     1      31.134  20.408   7.932  0.00  0.00    +0.000 A 
ATOM     10  C   UNL     1      31.019  20.787   9.244  0.00  0.00    +0.000 A 
ATOM     11  C   UNL     1      32.146  20.629  10.049  0.00  0.00    +0.000 A 
ENDROOT
BRANCH   1  13
ATOM     12  O   UNL     1      30.469  20.998  13.090  0.00  0.00    +0.000 OA
ATOM     13  C   UNL     1      30.866  21.473  12.023  0.00  0.00    +0.000 C 
ATOM     14  N   UNL     1      30.110  22.487  11.424  0.00  0.00    +0.000 NA
BRANCH  14  15
ATOM     15  C   UNL     1      28.920  23.099  11.796  0.00  0.00    +0.000 C 
ATOM     16  C   UNL     1      28.957  24.107  12.860  0.00  0.00    +0.000 C 
ATOM     17  C   UNL     1      28.128  23.651  14.027  0.00  0.00    +0.000 C 
ATOM     18  C   UNL     1      26.768  23.104  13.620  0.00  0.00    +0.000 C 
ATOM     19  C   UNL     1      26.510  23.239  12.137  0.00  0.00    +0.000 C 
ATOM     20  C   UNL     1      27.641  22.513  11.390  0.00  0.00    +0.000 C 
ENDBRANCH  14  15
ENDBRANCH   1  13
TORSDOF 2
ENDMDL
MODEL 4
REMARK VINA RESULT:      -7.5      2.433      3.864
REMARK  Name = 
REMARK  2 active torsions:
REMARK  status: ('A' for Active; 'I' for Inactive)
REMARK    1  A    between atoms: C_2  and  C_10
REMARK    2  A    between atoms: N_3  and  C_4
REMARK                            x       y       z     vdW  Elec       q    Type
REMARK                         _______ _______ _______ _____ _____    ______ ____
ROOT
ATOM      1  C   UNL     1      17.600  10.396  36.877  0.00  0.00    +0.000 A 
ATOM      2  C   UNL     1      18.377   9.662  36.017  0.00  0.00    +0.000 A 
ATOM      3  C   UNL     1      18.137   9.660  34.677  0.00  0.00    +0.000 A 
ATOM      4  C   UNL     1      17.087  10.416  34.165  0.00  0.00    +0.000 A 
ATOM      5  O   UNL     1      16.834  10.410  32.809  0.00  0.00    +0.000 OA
ATOM      6  C   UNL     1      16.291  11.165  35.046  0.00  0.00    +0.000 A 
ATOM      7  C   UNL     1      15.260  11.883  34.511  0.00  0.00    +0.000 A 
ATOM      8  C   UNL     1      14.435  12.630  35.361  0.00  0.00    +0.000 A 
ATOM      9  C   UNL     1      14.717  12.587  36.714  0.00  0.00    +0.000 A 
ATOM     10  C   UNL     1      15.748  11.870  37.264  0.00  0.00    +0.000 A 
ATOM     11  C   UNL     1      16.553  11.145  36.387  0.00  0.00    +0.000 A 
ENDROOT
BRANCH   1  13
ATOM     12  O   UNL     1      18.807  10.899  38.840  0.00  0.00    +0.000 OA
ATOM     13  C   UNL     1      17.883  10.273  38.315  0.00  0.00    +0.000 C 
ATOM     14  N   UNL     1      17.112   9.425  39.118  0.00  0.00    +0.000 NA
BRANCH  14  15
ATOM     15  C   UNL     1      17.185   9.108  40.468  0.00  0.00    +0.000 C 
ATOM     16  C   UNL     1      18.082   8.026  40.884  0.00  0.00    +0.000 C 
ATOM     17  C   UNL     1      17.290   6.915  41.512  0.00  0.00    +0.000 C 
ATOM     18  C   UNL     1      16.264   7.407  42.521  0.00  0.00    +0.000 C 
ATOM     19  C   UNL     1      16.342   8.899  42.746  0.00  0.00    +0.000 C 
ATOM     20  C   UNL     1      16.155   9.595  41.387  0.00  0.00    +0.000 C 
ENDBRANCH  14  15
ENDBRANCH   1  13
TORSDOF 2
ENDMDL
MODEL 5
REMARK VINA RESULT:      -7.5     20.681     22.547
REMARK  Name = 
REMARK  2 active torsions:
REMARK  status: ('A' for Active; 'I' for Inactive)
REMARK    1  A    between atoms: C_2  and  C_10
REMARK    2  A    between atoms: N_3  and  C_4
REMARK                            x       y       z     vdW  Elec       q    Type
REMARK                         _______ _______ _______ _____ _____    ______ ____
ROOT
ATOM      1  C   UNL     1      20.550  -7.149  25.865  0.00  0.00    +0.000 A 
ATOM      2  C   UNL     1      20.179  -5.837  25.706  0.00  0.00    +0.000 A 
ATOM      3  C   UNL     1      18.991  -5.377  26.187  0.00  0.00    +0.000 A 
ATOM      4  C   UNL     1      18.135  -6.249  26.854  0.00  0.00    +0.000 A 
ATOM      5  O   UNL     1      16.926  -5.790  27.334  0.00  0.00    +0.000 OA
ATOM      6  C   UNL     1      18.514  -7.590  27.014  0.00  0.00    +0.000 A 
ATOM      7  C   UNL     1      17.643  -8.420  27.660  0.00  0.00    +0.000 A 
ATOM      8  C   UNL     1      17.981  -9.770  27.825  0.00  0.00    +0.000 A 
ATOM      9  C   UNL     1      19.193 -10.185  27.308  0.00  0.00    +0.000 A 
ATOM     10  C   UNL     1      20.076  -9.363  26.657  0.00  0.00    +0.000 A 
ATOM     11  C   UNL     1      19.711  -8.026  26.518  0.00  0.00    +0.000 A 
ENDROOT
BRANCH   1  13
ATOM     12  O   UNL     1      22.455  -8.527  25.689  0.00  0.00    +0.000 OA
ATOM     13  C   UNL     1      21.812  -7.573  25.243  0.00  0.00    +0.000 C 
ATOM     14  N   UNL     1      22.319  -6.890  24.132  0.00  0.00    +0.000 NA
BRANCH  14  15
ATOM     15  C   UNL     1      23.479  -7.062  23.389  0.00  0.00    +0.000 C 
ATOM     16  C   UNL     1      23.456  -8.005  22.266  0.00  0.00    +0.000 C 
ATOM     17  C   UNL     1      24.431  -9.119  22.511  0.00  0.00    +0.000 C 
ATOM     18  C   UNL     1      25.789  -8.633  22.995  0.00  0.00    +0.000 C 
ATOM     19  C   UNL     1      25.889  -7.125  23.020  0.00  0.00    +0.000 C 
ATOM     20  C   UNL     1      24.760  -6.589  23.918  0.00  0.00    +0.000 C 
ENDBRANCH  14  15
ENDBRANCH   1  13
TORSDOF 2
ENDMDL
MODEL 6
REMARK VINA RESULT:      -7.3      3.395      8.550
REMARK  Name = 
REMARK  2 active torsions:
REMARK  status: ('A' for Active; 'I' for Inactive)
REMARK    1  A    between atoms: C_2  and  C_10
REMARK    2  A    between atoms: N_3  and  C_4
REMARK                            x       y       z     vdW  Elec       q    Type
REMARK                         _______ _______ _______ _____ _____    ______ ____
ROOT
ATOM      1  C   UNL     1      17.375   9.065  40.137  0.00  0.00    +0.000 A 
ATOM      2  C   UNL     1      16.406   9.730  40.845  0.00  0.00    +0.000 A 
ATOM      3  C   UNL     1      15.797   9.155  41.919  0.00  0.00    +0.000 A 
ATOM      4  C   UNL     1      16.163   7.871  42.310  0.00  0.00    +0.000 A 
ATOM      5  O   UNL     1      15.543   7.280  43.392  0.00  0.00    +0.000 OA
ATOM      6  C   UNL     1      17.153   7.191  41.585  0.00  0.00    +0.000 A 
ATOM      7  C   UNL     1      17.476   5.927  41.988  0.00  0.00    +0.000 A 
ATOM      8  C   UNL     1      18.449   5.211  41.279  0.00  0.00    +0.000 A 
ATOM      9  C   UNL     1      19.027   5.838  40.190  0.00  0.00    +0.000 A 
ATOM     10  C   UNL     1      18.711   7.106  39.775  0.00  0.00    +0.000 A 
ATOM     11  C   UNL     1      17.745   7.791  40.509  0.00  0.00    +0.000 A 
ENDROOT
BRANCH   1  13
ATOM     12  O   UNL     1      18.975  10.366  38.993  0.00  0.00    +0.000 OA
ATOM     13  C   UNL     1      17.918   9.733  38.945  0.00  0.00    +0.000 C 
ATOM     14  N   UNL     1      17.232   9.673  37.727  0.00  0.00    +0.000 NA
BRANCH  14  15
ATOM     15  C   UNL     1      17.503  10.228  36.483  0.00  0.00    +0.000 C 
ATOM     16  C   UNL     1      17.165  11.637  36.259  0.00  0.00    +0.000 C 
ATOM     17  C   UNL     1      16.139  11.752  35.169  0.00  0.00    +0.000 C 
ATOM     18  C   UNL     1      16.462  10.902  33.949  0.00  0.00    +0.000 C 
ATOM     19  C   UNL     1      17.801  10.211  34.063  0.00  0.00    +0.000 C 
ATOM     20  C   UNL     1      17.787   9.356  35.342  0.00  0.00    +0.000 C 
ENDBRANCH  14  15
ENDBRANCH   1  13
TORSDOF 2
ENDMDL
MODEL 7
REMARK VINA RESULT:      -7.1      2.755      4.731
REMARK  Name = 
REMARK  2 active torsions:
REMARK  status: ('A' for Active; 'I' for Inactive)
REMARK    1  A    between atoms: C_2  and  C_10
REMARK    2  A    between atoms: N_3  and  C_4
REMARK                            x       y       z     vdW  Elec       q    Type
REMARK                         _______ _______ _______ _____ _____    ______ ____
ROOT
ATOM      1  C   UNL     1      16.390  10.871  37.608  0.00  0.00    +0.000 A 
ATOM      2  C   UNL     1      15.350  11.735  37.838  0.00  0.00    +0.000 A 
ATOM      3  C   UNL     1      14.689  12.332  36.808  0.00  0.00    +0.000 A 
ATOM      4  C   UNL     1      15.070  12.062  35.497  0.00  0.00    +0.000 A 
ATOM      5  O   UNL     1      14.410  12.671  34.450  0.00  0.00    +0.000 OA
ATOM      6  C   UNL     1      16.136  11.179  35.263  0.00  0.00    +0.000 A 
ATOM      7  C   UNL     1      16.492  10.949  33.965  0.00  0.00    +0.000 A 
ATOM      8  C   UNL     1      17.561  10.085  33.694  0.00  0.00    +0.000 A 
ATOM      9  C   UNL     1      18.204   9.515  34.777  0.00  0.00    +0.000 A 
ATOM     10  C   UNL     1      17.857   9.738  36.084  0.00  0.00    +0.000 A 
ATOM     11  C   UNL     1      16.784  10.597  36.316  0.00  0.00    +0.000 A 
ENDROOT
BRANCH   1  13
ATOM     12  O   UNL     1      18.318  10.458  38.902  0.00  0.00    +0.000 OA
ATOM     13  C   UNL     1      17.096  10.337  38.782  0.00  0.00    +0.000 C 
ATOM     14  N   UNL     1      16.392   9.664  39.786  0.00  0.00    +0.000 NA
BRANCH  14  15
ATOM     15  C   UNL     1      16.811   9.049  40.959  0.00  0.00    +0.000 C 
ATOM     16  C   UNL     1      17.469   7.742  40.865  0.00  0.00    +0.000 C 
ATOM     17  C   UNL     1      16.656   6.706  41.586  0.00  0.00    +0.000 C 
ATOM     18  C   UNL     1      16.184   7.161  42.959  0.00  0.00    +0.000 C 
ATOM     19  C   UNL     1      16.729   8.519  43.337  0.00  0.00    +0.000 C 
ATOM     20  C   UNL     1      16.306   9.521  42.250  0.00  0.00    +0.000 C 
ENDBRANCH  14  15
ENDBRANCH   1  13
TORSDOF 2
ENDMDL
MODEL 8
REMARK VINA RESULT:      -7.1     28.202     30.911
REMARK  Name = 
REMARK  2 active torsions:
REMARK  status: ('A' for Active; 'I' for Inactive)
REMARK    1  A    between atoms: C_2  and  C_10
REMARK    2  A    between atoms: N_3  and  C_4
REMARK                            x       y       z     vdW  Elec       q    Type
REMARK                         _______ _______ _______ _____ _____    ______ ____
ROOT
ATOM      1  C   UNL     1      31.597  21.725   9.999  0.00  0.00    +0.000 A 
ATOM      2  C   UNL     1      32.727  22.407  10.371  0.00  0.00    +0.000 A 
ATOM      3  C   UNL     1      33.794  22.515   9.532  0.00  0.00    +0.000 A 
ATOM      4  C   UNL     1      33.741  21.925   8.272  0.00  0.00    +0.000 A 
ATOM      5  O   UNL     1      34.822  22.024   7.422  0.00  0.00    +0.000 OA
ATOM      6  C   UNL     1      32.585  21.226   7.893  0.00  0.00    +0.000 A 
ATOM      7  C   UNL     1      32.573  20.647   6.657  0.00  0.00    +0.000 A 
ATOM      8  C   UNL     1      31.442  19.927   6.250  0.00  0.00    +0.000 A 
ATOM      9  C   UNL     1      30.393  19.840   7.146  0.00  0.00    +0.000 A 
ATOM     10  C   UNL     1      30.392  20.415   8.390  0.00  0.00    +0.000 A 
ATOM     11  C   UNL     1      31.530  21.130   8.757  0.00  0.00    +0.000 A 
ENDROOT
BRANCH   1  13
ATOM     12  O   UNL     1      30.563  20.706  11.858  0.00  0.00    +0.000 OA
ATOM     13  C   UNL     1      30.529  21.592  11.000  0.00  0.00    +0.000 C 
ATOM     14  N   UNL     1      29.436  22.466  10.990  0.00  0.00    +0.000 NA
BRANCH  14  15
ATOM     15  C   UNL     1      28.301  22.539  11.786  0.00  0.00    +0.000 C 
ATOM     16  C   UNL     1      27.027  22.070  11.230  0.00  0.00    +0.000 C 
ATOM     17  C   UNL     1      26.048  23.207  11.163  0.00  0.00    +0.000 C 
ATOM     18  C   UNL     1      25.998  24.033  12.439  0.00  0.00    +0.000 C 
ATOM     19  C   UNL     1      26.871  23.462  13.532  0.00  0.00    +0.000 C 
ATOM     20  C   UNL     1      28.308  23.369  12.993  0.00  0.00    +0.000 C 
ENDBRANCH  14  15
ENDBRANCH   1  13
TORSDOF 2
ENDMDL
MODEL 9
REMARK VINA RESULT:      -7.1     20.868     22.682
REMARK  Name = 
REMARK  2 active torsions:
REMARK  status: ('A' for Active; 'I' for Inactive)
REMARK    1  A    between atoms: C_2  and  C_10
REMARK    2  A    between atoms: N_3  and  C_4
REMARK                            x       y       z     vdW  Elec       q    Type
REMARK                         _______ _______ _______ _____ _____    ______ ____
ROOT
ATOM      1  C   UNL     1      20.648  -8.642  25.913  0.00  0.00    +0.000 A 
ATOM      2  C   UNL     1      20.202  -9.883  26.290  0.00  0.00    +0.000 A 
ATOM      3  C   UNL     1      18.999 -10.043  26.908  0.00  0.00    +0.000 A 
ATOM      4  C   UNL     1      18.204  -8.930  27.163  0.00  0.00    +0.000 A 
ATOM      5  O   UNL     1      16.989  -9.086  27.797  0.00  0.00    +0.000 OA
ATOM      6  C   UNL     1      18.661  -7.660  26.778  0.00  0.00    +0.000 A 
ATOM      7  C   UNL     1      17.861  -6.589  27.057  0.00  0.00    +0.000 A 
ATOM      8  C   UNL     1      18.292  -5.305  26.702  0.00  0.00    +0.000 A 
ATOM      9  C   UNL     1      19.525  -5.199  26.087  0.00  0.00    +0.000 A 
ATOM     10  C   UNL     1      20.338  -6.265  25.802  0.00  0.00    +0.000 A 
ATOM     11  C   UNL     1      19.874  -7.529  26.162  0.00  0.00    +0.000 A 
ENDROOT
BRANCH   1  13
ATOM     12  O   UNL     1      22.942  -9.177  25.810  0.00  0.00    +0.000 OA
ATOM     13  C   UNL     1      21.993  -8.557  25.325  0.00  0.00    +0.000 C 
ATOM     14  N   UNL     1      22.226  -7.753  24.203  0.00  0.00    +0.000 NA
BRANCH  14  15
ATOM     15  C   UNL     1      23.382  -7.477  23.486  0.00  0.00    +0.000 C 
ATOM     16  C   UNL     1      23.701  -8.317  22.327  0.00  0.00    +0.000 C 
ATOM     17  C   UNL     1      25.001  -9.033  22.555  0.00  0.00    +0.000 C 
ATOM     18  C   UNL     1      26.099  -8.128  23.094  0.00  0.00    +0.000 C 
ATOM     19  C   UNL     1      25.667  -6.683  23.180  0.00  0.00    +0.000 C 
ATOM     20  C   UNL     1      24.412  -6.614  24.067  0.00  0.00    +0.000 C 
ENDBRANCH  14  15
ENDBRANCH   1  13
TORSDOF 2
ENDMDL
MODEL 10
REMARK VINA RESULT:      -7.0     21.060     23.027
REMARK  Name = 
REMARK  2 active torsions:
REMARK  status: ('A' for Active; 'I' for Inactive)
REMARK    1  A    between atoms: C_2  and  C_10
REMARK    2  A    between atoms: N_3  and  C_4
REMARK                            x       y       z     vdW  Elec       q    Type
REMARK                         _______ _______ _______ _____ _____    ______ ____
ROOT
ATOM      1  C   UNL     1      20.634  -6.928  25.708  0.00  0.00    +0.000 A 
ATOM      2  C   UNL     1      20.011  -5.709  25.621  0.00  0.00    +0.000 A 
ATOM      3  C   UNL     1      18.796  -5.495  26.200  0.00  0.00    +0.000 A 
ATOM      4  C   UNL     1      18.174  -6.528  26.894  0.00  0.00    +0.000 A 
ATOM      5  O   UNL     1      16.940  -6.318  27.474  0.00  0.00    +0.000 OA
ATOM      6  C   UNL     1      18.811  -7.775  26.981  0.00  0.00    +0.000 A 
ATOM      7  C   UNL     1      18.164  -8.770  27.656  0.00  0.00    +0.000 A 
ATOM      8  C   UNL     1      18.762 -10.033  27.750  0.00  0.00    +0.000 A 
ATOM      9  C   UNL     1      19.989 -10.198  27.135  0.00  0.00    +0.000 A 
ATOM     10  C   UNL     1      20.649  -9.209  26.453  0.00  0.00    +0.000 A 
ATOM     11  C   UNL     1      20.027  -7.963  26.387  0.00  0.00    +0.000 A 
ENDROOT
BRANCH   1  13
ATOM     12  O   UNL     1      22.951  -6.602  25.415  0.00  0.00    +0.000 OA
ATOM     13  C   UNL     1      21.903  -7.091  24.985  0.00  0.00    +0.000 C 
ATOM     14  N   UNL     1      21.944  -7.797  23.777  0.00  0.00    +0.000 NA
BRANCH  14  15
ATOM     15  C   UNL     1      22.984  -8.066  22.896  0.00  0.00    +0.000 C 
ATOM     16  C   UNL     1      22.821  -7.688  21.489  0.00  0.00    +0.000 C 
ATOM     17  C   UNL     1      22.867  -8.912  20.620  0.00  0.00    +0.000 C 
ATOM     18  C   UNL     1      24.009  -9.854  20.970  0.00  0.00    +0.000 C 
ATOM     19  C   UNL     1      24.910  -9.296  22.048  0.00  0.00    +0.000 C 
ATOM     20  C   UNL     1      24.045  -8.998  23.284  0.00  0.00    +0.000 C 
ENDBRANCH  14  15
ENDBRANCH   1  13
TORSDOF 2
ENDMDL
