MODEL 1
REMARK VINA RESULT:      -5.4      0.000      0.000
REMARK  Name = 
REMARK  7 active torsions:
REMARK  status: ('A' for Active; 'I' for Inactive)
REMARK    1  A    between atoms: C_2  and  C_3
REMARK    2  A    between atoms: C_3  and  C_4
REMARK    3  A    between atoms: N_6  and  C_7
REMARK    4  A    between atoms: C_7  and  N_9
REMARK    5  A    between atoms: N_9  and  C_10
REMARK    6  A    between atoms: C_13  and  C_14
REMARK    7  A    between atoms: C_14  and  O_16
REMARK                            x       y       z     vdW  Elec       q    Type
REMARK                         _______ _______ _______ _____ _____    ______ ____
ROOT
ATOM      1  C   UNL     1      29.546  22.524  26.236  0.00  0.00    +0.000 A 
ATOM      2  C   UNL     1      28.224  22.707  25.868  0.00  0.00    +0.000 A 
ATOM      3  C   UNL     1      27.844  23.045  24.586  0.00  0.00    +0.000 A 
ATOM      4  C   UNL     1      28.798  23.213  23.608  0.00  0.00    +0.000 A 
ATOM      5  C   UNL     1      30.117  23.030  23.974  0.00  0.00    +0.000 A 
ATOM      6  C   UNL     1      30.502  22.692  25.254  0.00  0.00    +0.000 A 
ENDROOT
BRANCH   4   7
ATOM      7  C   UNL     1      28.446  23.569  22.241  0.00  0.00    +0.000 C 
ATOM      8  O   UNL     1      27.309  23.433  21.780  0.00  0.00    +0.000 OA
BRANCH   7   9
ATOM      9  O   UNL     1      29.439  24.082  21.425  0.00  0.00    +0.000 OA
ATOM     10  C   UNL     1      29.320  25.413  20.958  0.00  0.00    +0.000 C 
ENDBRANCH   7   9
ENDBRANCH   4   7
BRANCH   1  11
ATOM     11  N   UNL     1      29.851  22.179  27.565  0.00  0.00    +0.000 NA
BRANCH  11  12
ATOM     12  C   UNL     1      29.732  23.127  28.611  0.00  0.00    +0.000 C 
ATOM     13  S   UNL     1      31.057  23.529  29.482  0.00  0.00    +0.000 S 
BRANCH  12  16
ATOM     14  C   UNL     1      27.399  23.091  29.513  0.00  0.00    +0.000 C 
ATOM     15  O   UNL     1      27.492  21.865  29.765  0.00  0.00    +0.000 OA
ATOM     16  N   UNL     1      28.492  23.751  28.939  0.00  0.00    +0.000 NA
BRANCH  14  17
ATOM     17  C   UNL     1      26.110  23.783  29.845  0.00  0.00    +0.000 C 
BRANCH  17  19
ATOM     18  C   UNL     1      25.266  24.520  27.600  0.00  0.00    +0.000 C 
ATOM     19  C   UNL     1      25.861  24.939  28.931  0.00  0.00    +0.000 C 
ENDBRANCH  17  19
ENDBRANCH  14  17
ENDBRANCH  12  16
ENDBRANCH  11  12
ENDBRANCH   1  11
TORSDOF 7
ENDMDL
MODEL 2
REMARK VINA RESULT:      -5.3      1.409      1.628
REMARK  Name = 
REMARK  7 active torsions:
REMARK  status: ('A' for Active; 'I' for Inactive)
REMARK    1  A    between atoms: C_2  and  C_3
REMARK    2  A    between atoms: C_3  and  C_4
REMARK    3  A    between atoms: N_6  and  C_7
REMARK    4  A    between atoms: C_7  and  N_9
REMARK    5  A    between atoms: N_9  and  C_10
REMARK    6  A    between atoms: C_13  and  C_14
REMARK    7  A    between atoms: C_14  and  O_16
REMARK                            x       y       z     vdW  Elec       q    Type
REMARK                         _______ _______ _______ _____ _____    ______ ____
ROOT
ATOM      1  C   UNL     1      30.519  22.665  26.313  0.00  0.00    +0.000 A 
ATOM      2  C   UNL     1      29.169  22.475  26.066  0.00  0.00    +0.000 A 
ATOM      3  C   UNL     1      28.581  22.772  24.854  0.00  0.00    +0.000 A 
ATOM      4  C   UNL     1      29.343  23.278  23.825  0.00  0.00    +0.000 A 
ATOM      5  C   UNL     1      30.689  23.467  24.071  0.00  0.00    +0.000 A 
ATOM      6  C   UNL     1      31.281  23.173  25.280  0.00  0.00    +0.000 A 
ENDROOT
BRANCH   4   7
ATOM      7  C   UNL     1      28.768  23.605  22.529  0.00  0.00    +0.000 C 
ATOM      8  O   UNL     1      27.573  23.448  22.262  0.00  0.00    +0.000 OA
BRANCH   7   9
ATOM      9  O   UNL     1      29.608  24.115  21.553  0.00  0.00    +0.000 OA
ATOM     10  C   UNL     1      29.294  25.364  20.967  0.00  0.00    +0.000 C 
ENDBRANCH   7   9
ENDBRANCH   4   7
BRANCH   1  11
ATOM     11  N   UNL     1      31.041  22.337  27.577  0.00  0.00    +0.000 NA
BRANCH  11  12
ATOM     12  C   UNL     1      30.844  23.188  28.691  0.00  0.00    +0.000 C 
ATOM     13  S   UNL     1      32.001  24.277  29.081  0.00  0.00    +0.000 S 
BRANCH  12  16
ATOM     14  C   UNL     1      28.584  24.013  29.374  0.00  0.00    +0.000 C 
ATOM     15  O   UNL     1      28.628  24.918  28.505  0.00  0.00    +0.000 OA
ATOM     16  N   UNL     1      29.668  23.135  29.496  0.00  0.00    +0.000 NA
BRANCH  14  17
ATOM     17  C   UNL     1      27.362  23.927  30.240  0.00  0.00    +0.000 C 
BRANCH  17  19
ATOM     18  C   UNL     1      26.419  21.612  30.461  0.00  0.00    +0.000 C 
ATOM     19  C   UNL     1      26.386  22.928  29.706  0.00  0.00    +0.000 C 
ENDBRANCH  17  19
ENDBRANCH  14  17
ENDBRANCH  12  16
ENDBRANCH  11  12
ENDBRANCH   1  11
TORSDOF 7
ENDMDL
MODEL 3
REMARK VINA RESULT:      -5.3     27.621     28.813
REMARK  Name = 
REMARK  7 active torsions:
REMARK  status: ('A' for Active; 'I' for Inactive)
REMARK    1  A    between atoms: C_2  and  C_3
REMARK    2  A    between atoms: C_3  and  C_4
REMARK    3  A    between atoms: N_6  and  C_7
REMARK    4  A    between atoms: C_7  and  N_9
REMARK    5  A    between atoms: N_9  and  C_10
REMARK    6  A    between atoms: C_13  and  C_14
REMARK    7  A    between atoms: C_14  and  O_16
REMARK                            x       y       z     vdW  Elec       q    Type
REMARK                         _______ _______ _______ _____ _____    ______ ____
ROOT
ATOM      1  C   UNL     1      34.276  -5.144  32.401  0.00  0.00    +0.000 A 
ATOM      2  C   UNL     1      33.311  -4.776  31.477  0.00  0.00    +0.000 A 
ATOM      3  C   UNL     1      33.187  -5.380  30.243  0.00  0.00    +0.000 A 
ATOM      4  C   UNL     1      34.044  -6.396  29.886  0.00  0.00    +0.000 A 
ATOM      5  C   UNL     1      35.006  -6.764  30.807  0.00  0.00    +0.000 A 
ATOM      6  C   UNL     1      35.134  -6.163  32.040  0.00  0.00    +0.000 A 
ENDROOT
BRANCH   4   7
ATOM      7  C   UNL     1      33.952  -7.064  28.596  0.00  0.00    +0.000 C 
ATOM      8  O   UNL     1      34.839  -7.003  27.741  0.00  0.00    +0.000 OA
BRANCH   7   9
ATOM      9  O   UNL     1      32.812  -7.801  28.323  0.00  0.00    +0.000 OA
ATOM     10  C   UNL     1      32.739  -9.139  28.776  0.00  0.00    +0.000 C 
ENDBRANCH   7   9
ENDBRANCH   4   7
BRANCH   1  11
ATOM     11  N   UNL     1      34.335  -4.478  33.638  0.00  0.00    +0.000 NA
BRANCH  11  12
ATOM     12  C   UNL     1      33.442  -3.422  33.942  0.00  0.00    +0.000 C 
ATOM     13  S   UNL     1      32.352  -3.617  35.146  0.00  0.00    +0.000 S 
BRANCH  12  16
ATOM     14  C   UNL     1      34.167  -1.047  33.639  0.00  0.00    +0.000 C 
ATOM     15  O   UNL     1      34.850  -1.099  34.691  0.00  0.00    +0.000 OA
ATOM     16  N   UNL     1      33.454  -2.183  33.236  0.00  0.00    +0.000 NA
BRANCH  14  17
ATOM     17  C   UNL     1      34.155   0.240  32.869  0.00  0.00    +0.000 C 
BRANCH  17  19
ATOM     18  C   UNL     1      33.695   2.703  33.016  0.00  0.00    +0.000 C 
ATOM     19  C   UNL     1      33.508   1.337  33.652  0.00  0.00    +0.000 C 
ENDBRANCH  17  19
ENDBRANCH  14  17
ENDBRANCH  12  16
ENDBRANCH  11  12
ENDBRANCH   1  11
TORSDOF 7
ENDMDL
MODEL 4
REMARK VINA RESULT:      -5.2      2.380      3.872
REMARK  Name = 
REMARK  7 active torsions:
REMARK  status: ('A' for Active; 'I' for Inactive)
REMARK    1  A    between atoms: C_2  and  C_3
REMARK    2  A    between atoms: C_3  and  C_4
REMARK    3  A    between atoms: N_6  and  C_7
REMARK    4  A    between atoms: C_7  and  N_9
REMARK    5  A    between atoms: N_9  and  C_10
REMARK    6  A    between atoms: C_13  and  C_14
REMARK    7  A    between atoms: C_14  and  O_16
REMARK                            x       y       z     vdW  Elec       q    Type
REMARK                         _______ _______ _______ _____ _____    ______ ____
ROOT
ATOM      1  C   UNL     1      26.534  24.304  24.769  0.00  0.00    +0.000 A 
ATOM      2  C   UNL     1      26.892  23.329  23.853  0.00  0.00    +0.000 A 
ATOM      3  C   UNL     1      27.616  23.603  22.711  0.00  0.00    +0.000 A 
ATOM      4  C   UNL     1      28.016  24.893  22.445  0.00  0.00    +0.000 A 
ATOM      5  C   UNL     1      27.659  25.867  23.358  0.00  0.00    +0.000 A 
ATOM      6  C   UNL     1      26.935  25.597  24.499  0.00  0.00    +0.000 A 
ENDROOT
BRANCH   4   7
ATOM      7  C   UNL     1      28.781  25.232  21.254  0.00  0.00    +0.000 C 
ATOM      8  O   UNL     1      29.649  24.496  20.778  0.00  0.00    +0.000 OA
BRANCH   7   9
ATOM      9  O   UNL     1      28.519  26.442  20.633  0.00  0.00    +0.000 OA
ATOM     10  C   UNL     1      29.591  27.333  20.394  0.00  0.00    +0.000 C 
ENDBRANCH   7   9
ENDBRANCH   4   7
BRANCH   1  11
ATOM     11  N   UNL     1      25.795  23.941  25.909  0.00  0.00    +0.000 NA
BRANCH  11  12
ATOM     12  C   UNL     1      26.442  23.614  27.125  0.00  0.00    +0.000 C 
ATOM     13  S   UNL     1      25.846  24.199  28.532  0.00  0.00    +0.000 S 
BRANCH  12  16
ATOM     14  C   UNL     1      28.918  23.266  27.204  0.00  0.00    +0.000 C 
ATOM     15  O   UNL     1      29.114  24.506  27.187  0.00  0.00    +0.000 OA
ATOM     16  N   UNL     1      27.603  22.786  27.175  0.00  0.00    +0.000 NA
BRANCH  14  17
ATOM     17  C   UNL     1      30.115  22.365  27.256  0.00  0.00    +0.000 C 
BRANCH  17  19
ATOM     18  C   UNL     1      30.494  22.541  24.782  0.00  0.00    +0.000 C 
ATOM     19  C   UNL     1      31.089  22.689  26.171  0.00  0.00    +0.000 C 
ENDBRANCH  17  19
ENDBRANCH  14  17
ENDBRANCH  12  16
ENDBRANCH  11  12
ENDBRANCH   1  11
TORSDOF 7
ENDMDL
MODEL 5
REMARK VINA RESULT:      -5.2      3.267      5.873
REMARK  Name = 
REMARK  7 active torsions:
REMARK  status: ('A' for Active; 'I' for Inactive)
REMARK    1  A    between atoms: C_2  and  C_3
REMARK    2  A    between atoms: C_3  and  C_4
REMARK    3  A    between atoms: N_6  and  C_7
REMARK    4  A    between atoms: C_7  and  N_9
REMARK    5  A    between atoms: N_9  and  C_10
REMARK    6  A    between atoms: C_13  and  C_14
REMARK    7  A    between atoms: C_14  and  O_16
REMARK                            x       y       z     vdW  Elec       q    Type
REMARK                         _______ _______ _______ _____ _____    ______ ____
ROOT
ATOM      1  C   UNL     1      30.561  23.591  24.293  0.00  0.00    +0.000 A 
ATOM      2  C   UNL     1      29.863  22.530  24.845  0.00  0.00    +0.000 A 
ATOM      3  C   UNL     1      30.056  22.100  26.141  0.00  0.00    +0.000 A 
ATOM      4  C   UNL     1      30.974  22.735  26.947  0.00  0.00    +0.000 A 
ATOM      5  C   UNL     1      31.670  23.795  26.397  0.00  0.00    +0.000 A 
ATOM      6  C   UNL     1      31.481  24.227  25.103  0.00  0.00    +0.000 A 
ENDROOT
BRANCH   4   7
ATOM      7  C   UNL     1      31.213  22.319  28.321  0.00  0.00    +0.000 C 
ATOM      8  O   UNL     1      32.224  21.706  28.674  0.00  0.00    +0.000 OA
BRANCH   7   9
ATOM      9  O   UNL     1      30.254  22.627  29.271  0.00  0.00    +0.000 OA
ATOM     10  C   UNL     1      30.572  22.463  30.640  0.00  0.00    +0.000 C 
ENDBRANCH   7   9
ENDBRANCH   4   7
BRANCH   1  11
ATOM     11  N   UNL     1      30.305  23.968  22.963  0.00  0.00    +0.000 NA
BRANCH  11  12
ATOM     12  C   UNL     1      29.192  24.779  22.635  0.00  0.00    +0.000 C 
ATOM     13  S   UNL     1      29.239  25.693  21.278  0.00  0.00    +0.000 S 
BRANCH  12  16
ATOM     14  C   UNL     1      26.906  24.001  23.287  0.00  0.00    +0.000 C 
ATOM     15  O   UNL     1      26.916  23.139  22.375  0.00  0.00    +0.000 OA
ATOM     16  N   UNL     1      28.020  24.834  23.446  0.00  0.00    +0.000 NA
BRANCH  14  17
ATOM     17  C   UNL     1      25.690  24.089  24.160  0.00  0.00    +0.000 C 
BRANCH  17  19
ATOM     18  C   UNL     1      26.474  23.536  26.479  0.00  0.00    +0.000 C 
ATOM     19  C   UNL     1      25.724  23.063  25.247  0.00  0.00    +0.000 C 
ENDBRANCH  17  19
ENDBRANCH  14  17
ENDBRANCH  12  16
ENDBRANCH  11  12
ENDBRANCH   1  11
TORSDOF 7
ENDMDL
MODEL 6
REMARK VINA RESULT:      -5.1      3.060      6.579
REMARK  Name = 
REMARK  7 active torsions:
REMARK  status: ('A' for Active; 'I' for Inactive)
REMARK    1  A    between atoms: C_2  and  C_3
REMARK    2  A    between atoms: C_3  and  C_4
REMARK    3  A    between atoms: N_6  and  C_7
REMARK    4  A    between atoms: C_7  and  N_9
REMARK    5  A    between atoms: N_9  and  C_10
REMARK    6  A    between atoms: C_13  and  C_14
REMARK    7  A    between atoms: C_14  and  O_16
REMARK                            x       y       z     vdW  Elec       q    Type
REMARK                         _______ _______ _______ _____ _____    ______ ____
ROOT
ATOM      1  C   UNL     1      26.470  23.189  25.533  0.00  0.00    +0.000 A 
ATOM      2  C   UNL     1      27.317  22.523  26.404  0.00  0.00    +0.000 A 
ATOM      3  C   UNL     1      27.279  22.703  27.771  0.00  0.00    +0.000 A 
ATOM      4  C   UNL     1      26.369  23.576  28.324  0.00  0.00    +0.000 A 
ATOM      5  C   UNL     1      25.524  24.241  27.456  0.00  0.00    +0.000 A 
ATOM      6  C   UNL     1      25.559  24.064  26.090  0.00  0.00    +0.000 A 
ENDROOT
BRANCH   4   7
ATOM      7  C   UNL     1      26.290  23.800  29.760  0.00  0.00    +0.000 C 
ATOM      8  O   UNL     1      25.912  22.937  30.557  0.00  0.00    +0.000 OA
BRANCH   7   9
ATOM      9  O   UNL     1      26.657  25.043  30.247  0.00  0.00    +0.000 OA
ATOM     10  C   UNL     1      26.178  25.448  31.515  0.00  0.00    +0.000 C 
ENDBRANCH   7   9
ENDBRANCH   4   7
BRANCH   1  11
ATOM     11  N   UNL     1      26.573  22.948  24.152  0.00  0.00    +0.000 NA
BRANCH  11  12
ATOM     12  C   UNL     1      27.648  23.476  23.397  0.00  0.00    +0.000 C 
ATOM     13  S   UNL     1      27.340  24.574  22.224  0.00  0.00    +0.000 S 
BRANCH  12  16
ATOM     14  C   UNL     1      29.941  23.849  24.326  0.00  0.00    +0.000 C 
ATOM     15  O   UNL     1      29.589  24.953  24.808  0.00  0.00    +0.000 OA
ATOM     16  N   UNL     1      29.003  23.087  23.619  0.00  0.00    +0.000 NA
BRANCH  14  17
ATOM     17  C   UNL     1      31.358  23.406  24.539  0.00  0.00    +0.000 C 
BRANCH  17  19
ATOM     18  C   UNL     1      30.991  22.573  26.877  0.00  0.00    +0.000 C 
ATOM     19  C   UNL     1      31.756  23.523  25.975  0.00  0.00    +0.000 C 
ENDBRANCH  17  19
ENDBRANCH  14  17
ENDBRANCH  12  16
ENDBRANCH  11  12
ENDBRANCH   1  11
TORSDOF 7
ENDMDL
MODEL 7
REMARK VINA RESULT:      -5.0      2.429      3.940
REMARK  Name = 
REMARK  7 active torsions:
REMARK  status: ('A' for Active; 'I' for Inactive)
REMARK    1  A    between atoms: C_2  and  C_3
REMARK    2  A    between atoms: C_3  and  C_4
REMARK    3  A    between atoms: N_6  and  C_7
REMARK    4  A    between atoms: C_7  and  N_9
REMARK    5  A    between atoms: N_9  and  C_10
REMARK    6  A    between atoms: C_13  and  C_14
REMARK    7  A    between atoms: C_14  and  O_16
REMARK                            x       y       z     vdW  Elec       q    Type
REMARK                         _______ _______ _______ _____ _____    ______ ____
ROOT
ATOM      1  C   UNL     1      28.591  22.547  26.262  0.00  0.00    +0.000 A 
ATOM      2  C   UNL     1      27.366  22.927  25.739  0.00  0.00    +0.000 A 
ATOM      3  C   UNL     1      27.192  23.276  24.416  0.00  0.00    +0.000 A 
ATOM      4  C   UNL     1      28.264  23.254  23.552  0.00  0.00    +0.000 A 
ATOM      5  C   UNL     1      29.486  22.875  24.073  0.00  0.00    +0.000 A 
ATOM      6  C   UNL     1      29.665  22.526  25.394  0.00  0.00    +0.000 A 
ENDROOT
BRANCH   4   7
ATOM      7  C   UNL     1      28.130  23.613  22.148  0.00  0.00    +0.000 C 
ATOM      8  O   UNL     1      27.057  23.573  21.541  0.00  0.00    +0.000 OA
BRANCH   7   9
ATOM      9  O   UNL     1      29.267  24.017  21.468  0.00  0.00    +0.000 OA
ATOM     10  C   UNL     1      29.321  25.332  20.950  0.00  0.00    +0.000 C 
ENDBRANCH   7   9
ENDBRANCH   4   7
BRANCH   1  11
ATOM     11  N   UNL     1      28.684  22.206  27.622  0.00  0.00    +0.000 NA
BRANCH  11  12
ATOM     12  C   UNL     1      29.508  22.945  28.506  0.00  0.00    +0.000 C 
ATOM     13  S   UNL     1      29.171  24.521  28.786  0.00  0.00    +0.000 S 
BRANCH  12  16
ATOM     14  C   UNL     1      31.957  22.488  28.735  0.00  0.00    +0.000 C 
ATOM     15  O   UNL     1      32.199  23.147  27.694  0.00  0.00    +0.000 OA
ATOM     16  N   UNL     1      30.631  22.366  29.168  0.00  0.00    +0.000 NA
BRANCH  14  17
ATOM     17  C   UNL     1      33.113  21.864  29.459  0.00  0.00    +0.000 C 
BRANCH  17  19
ATOM     18  C   UNL     1      34.793  22.262  31.280  0.00  0.00    +0.000 C 
ATOM     19  C   UNL     1      33.419  22.594  30.727  0.00  0.00    +0.000 C 
ENDBRANCH  17  19
ENDBRANCH  14  17
ENDBRANCH  12  16
ENDBRANCH  11  12
ENDBRANCH   1  11
TORSDOF 7
ENDMDL
MODEL 8
REMARK VINA RESULT:      -4.9     18.991     20.825
REMARK  Name = 
REMARK  7 active torsions:
REMARK  status: ('A' for Active; 'I' for Inactive)
REMARK    1  A    between atoms: C_2  and  C_3
REMARK    2  A    between atoms: C_3  and  C_4
REMARK    3  A    between atoms: N_6  and  C_7
REMARK    4  A    between atoms: C_7  and  N_9
REMARK    5  A    between atoms: N_9  and  C_10
REMARK    6  A    between atoms: C_13  and  C_14
REMARK    7  A    between atoms: C_14  and  O_16
REMARK                            x       y       z     vdW  Elec       q    Type
REMARK                         _______ _______ _______ _____ _____    ______ ____
ROOT
ATOM      1  C   UNL     1      33.899   5.468  36.520  0.00  0.00    +0.000 A 
ATOM      2  C   UNL     1      34.079   4.108  36.706  0.00  0.00    +0.000 A 
ATOM      3  C   UNL     1      34.007   3.195  35.674  0.00  0.00    +0.000 A 
ATOM      4  C   UNL     1      33.749   3.625  34.393  0.00  0.00    +0.000 A 
ATOM      5  C   UNL     1      33.571   4.983  34.206  0.00  0.00    +0.000 A 
ATOM      6  C   UNL     1      33.640   5.898  35.234  0.00  0.00    +0.000 A 
ENDROOT
BRANCH   4   7
ATOM      7  C   UNL     1      33.665   2.701  33.272  0.00  0.00    +0.000 C 
ATOM      8  O   UNL     1      33.796   3.053  32.096  0.00  0.00    +0.000 OA
BRANCH   7   9
ATOM      9  O   UNL     1      33.425   1.365  33.545  0.00  0.00    +0.000 OA
ATOM     10  C   UNL     1      34.091   0.381  32.778  0.00  0.00    +0.000 C 
ENDBRANCH   7   9
ENDBRANCH   4   7
BRANCH   1  11
ATOM     11  N   UNL     1      33.988   6.333  37.625  0.00  0.00    +0.000 NA
BRANCH  11  12
ATOM     12  C   UNL     1      34.845   7.460  37.603  0.00  0.00    +0.000 C 
ATOM     13  S   UNL     1      36.462   7.235  37.503  0.00  0.00    +0.000 S 
BRANCH  12  16
ATOM     14  C   UNL     1      34.284   9.669  36.571  0.00  0.00    +0.000 C 
ATOM     15  O   UNL     1      34.679   9.268  35.449  0.00  0.00    +0.000 OA
ATOM     16  N   UNL     1      34.351   8.797  37.665  0.00  0.00    +0.000 NA
BRANCH  14  17
ATOM     17  C   UNL     1      33.759  11.070  36.675  0.00  0.00    +0.000 C 
BRANCH  17  19
ATOM     18  C   UNL     1      34.429  13.478  36.890  0.00  0.00    +0.000 C 
ATOM     19  C   UNL     1      34.849  12.075  36.490  0.00  0.00    +0.000 C 
ENDBRANCH  17  19
ENDBRANCH  14  17
ENDBRANCH  12  16
ENDBRANCH  11  12
ENDBRANCH   1  11
TORSDOF 7
ENDMDL
MODEL 9
REMARK VINA RESULT:      -4.9     32.350     33.124
REMARK  Name = 
REMARK  7 active torsions:
REMARK  status: ('A' for Active; 'I' for Inactive)
REMARK    1  A    between atoms: C_2  and  C_3
REMARK    2  A    between atoms: C_3  and  C_4
REMARK    3  A    between atoms: N_6  and  C_7
REMARK    4  A    between atoms: C_7  and  N_9
REMARK    5  A    between atoms: N_9  and  C_10
REMARK    6  A    between atoms: C_13  and  C_14
REMARK    7  A    between atoms: C_14  and  O_16
REMARK                            x       y       z     vdW  Elec       q    Type
REMARK                         _______ _______ _______ _____ _____    ______ ____
ROOT
ATOM      1  C   UNL     1      18.741  -7.440  26.884  0.00  0.00    +0.000 A 
ATOM      2  C   UNL     1      19.716  -8.385  26.608  0.00  0.00    +0.000 A 
ATOM      3  C   UNL     1      20.849  -8.099  25.874  0.00  0.00    +0.000 A 
ATOM      4  C   UNL     1      21.048  -6.829  25.383  0.00  0.00    +0.000 A 
ATOM      5  C   UNL     1      20.076  -5.886  25.659  0.00  0.00    +0.000 A 
ATOM      6  C   UNL     1      18.943  -6.166  26.390  0.00  0.00    +0.000 A 
ENDROOT
BRANCH   4   7
ATOM      7  C   UNL     1      22.227  -6.480  24.605  0.00  0.00    +0.000 C 
ATOM      8  O   UNL     1      22.209  -5.656  23.686  0.00  0.00    +0.000 OA
BRANCH   7   9
ATOM      9  O   UNL     1      23.422  -7.107  24.915  0.00  0.00    +0.000 OA
ATOM     10  C   UNL     1      24.119  -7.791  23.891  0.00  0.00    +0.000 C 
ENDBRANCH   7   9
ENDBRANCH   4   7
BRANCH   1  11
ATOM     11  N   UNL     1      17.615  -7.812  27.640  0.00  0.00    +0.000 NA
BRANCH  11  12
ATOM     12  C   UNL     1      16.769  -8.866  27.219  0.00  0.00    +0.000 C 
ATOM     13  S   UNL     1      16.987 -10.365  27.838  0.00  0.00    +0.000 S 
BRANCH  12  16
ATOM     14  C   UNL     1      15.870  -8.832  24.884  0.00  0.00    +0.000 C 
ATOM     15  O   UNL     1      16.991  -9.166  24.426  0.00  0.00    +0.000 OA
ATOM     16  N   UNL     1      15.723  -8.674  26.268  0.00  0.00    +0.000 NA
BRANCH  14  17
ATOM     17  C   UNL     1      14.747  -8.621  23.914  0.00  0.00    +0.000 C 
BRANCH  17  19
ATOM     18  C   UNL     1      12.389  -8.473  24.761  0.00  0.00    +0.000 C 
ATOM     19  C   UNL     1      13.525  -9.379  24.322  0.00  0.00    +0.000 C 
ENDBRANCH  17  19
ENDBRANCH  14  17
ENDBRANCH  12  16
ENDBRANCH  11  12
ENDBRANCH   1  11
TORSDOF 7
ENDMDL
MODEL 10
REMARK VINA RESULT:      -4.9      2.055      6.051
REMARK  Name = 
REMARK  7 active torsions:
REMARK  status: ('A' for Active; 'I' for Inactive)
REMARK    1  A    between atoms: C_2  and  C_3
REMARK    2  A    between atoms: C_3  and  C_4
REMARK    3  A    between atoms: N_6  and  C_7
REMARK    4  A    between atoms: C_7  and  N_9
REMARK    5  A    between atoms: N_9  and  C_10
REMARK    6  A    between atoms: C_13  and  C_14
REMARK    7  A    between atoms: C_14  and  O_16
REMARK                            x       y       z     vdW  Elec       q    Type
REMARK                         _______ _______ _______ _____ _____    ______ ____
ROOT
ATOM      1  C   UNL     1      29.479  22.588  27.387  0.00  0.00    +0.000 A 
ATOM      2  C   UNL     1      29.763  22.839  28.719  0.00  0.00    +0.000 A 
ATOM      3  C   UNL     1      28.798  22.841  29.704  0.00  0.00    +0.000 A 
ATOM      4  C   UNL     1      27.485  22.583  29.380  0.00  0.00    +0.000 A 
ATOM      5  C   UNL     1      27.200  22.331  28.052  0.00  0.00    +0.000 A 
ATOM      6  C   UNL     1      28.161  22.329  27.064  0.00  0.00    +0.000 A 
ENDROOT
BRANCH   4   7
ATOM      7  C   UNL     1      26.431  22.573  30.383  0.00  0.00    +0.000 C 
ATOM      8  O   UNL     1      25.866  21.542  30.758  0.00  0.00    +0.000 OA
BRANCH   7   9
ATOM      9  O   UNL     1      26.049  23.782  30.939  0.00  0.00    +0.000 OA
ATOM     10  C   UNL     1      25.667  24.839  30.079  0.00  0.00    +0.000 C 
ENDBRANCH   7   9
ENDBRANCH   4   7
BRANCH   1  11
ATOM     11  N   UNL     1      30.522  22.604  26.444  0.00  0.00    +0.000 NA
BRANCH  11  12
ATOM     12  C   UNL     1      30.796  23.764  25.679  0.00  0.00    +0.000 C 
ATOM     13  S   UNL     1      32.351  24.207  25.427  0.00  0.00    +0.000 S 
BRANCH  12  16
ATOM     14  C   UNL     1      29.300  24.456  23.797  0.00  0.00    +0.000 C 
ATOM     15  O   UNL     1      29.814  23.593  23.044  0.00  0.00    +0.000 OA
ATOM     16  N   UNL     1      29.763  24.569  25.114  0.00  0.00    +0.000 NA
BRANCH  14  17
ATOM     17  C   UNL     1      28.212  25.322  23.238  0.00  0.00    +0.000 C 
BRANCH  17  19
ATOM     18  C   UNL     1      26.217  25.191  24.754  0.00  0.00    +0.000 C 
ATOM     19  C   UNL     1      26.864  24.718  23.465  0.00  0.00    +0.000 C 
ENDBRANCH  17  19
ENDBRANCH  14  17
ENDBRANCH  12  16
ENDBRANCH  11  12
ENDBRANCH   1  11
TORSDOF 7
ENDMDL
