MODEL 1
REMARK VINA RESULT:      -7.8      0.000      0.000
REMARK  Name = 
REMARK  2 active torsions:
REMARK  status: ('A' for Active; 'I' for Inactive)
REMARK    1  A    between atoms: C_6  and  N_7
REMARK    2  A    between atoms: C_8  and  C_10
REMARK                            x       y       z     vdW  Elec       q    Type
REMARK                         _______ _______ _______ _____ _____    ______ ____
ROOT
ATOM      1  N   UNL     1      15.585  11.116  36.016  0.00  0.00    +0.000 NA
ATOM      2  C   UNL     1      16.564  11.436  36.945  0.00  0.00    +0.000 C 
ATOM      3  O   UNL     1      17.071  12.579  36.961  0.00  0.00    +0.000 OA
ENDROOT
BRANCH   1   9
ATOM      4  C   UNL     1      13.739  14.270  31.671  0.00  0.00    +0.000 C 
ATOM      5  C   UNL     1      14.166  13.493  32.843  0.00  0.00    +0.000 A 
ATOM      6  C   UNL     1      14.941  12.381  32.604  0.00  0.00    +0.000 A 
ATOM      7  C   UNL     1      15.365  11.640  33.698  0.00  0.00    +0.000 A 
ATOM      8  O   UNL     1      16.163  10.491  33.488  0.00  0.00    +0.000 OA
ATOM      9  C   UNL     1      15.052  11.956  35.010  0.00  0.00    +0.000 A 
ATOM     10  C   UNL     1      14.270  13.076  35.231  0.00  0.00    +0.000 A 
ATOM     11  C   UNL     1      13.844  13.821  34.160  0.00  0.00    +0.000 A 
ATOM     12  C   UNL     1      13.015  15.062  34.350  0.00  0.00    +0.000 C 
ENDBRANCH   1   9
BRANCH   2  13
ATOM     13  C   UNL     1      17.075  10.483  37.961  0.00  0.00    +0.000 A 
ATOM     14  C   UNL     1      16.387  10.436  39.186  0.00  0.00    +0.000 A 
ATOM     15  C   UNL     1      16.763   9.561  40.137  0.00  0.00    +0.000 A 
ATOM     16  C   UNL     1      17.805   8.705  39.950  0.00  0.00    +0.000 A 
ATOM     17  C   UNL     1      18.513   8.728  38.733  0.00  0.00    +0.000 A 
ATOM     18  C   UNL     1      18.120   9.634  37.756  0.00  0.00    +0.000 A 
ATOM     19 BR   UNL     1      19.083   9.709  36.106  0.00  0.00    +0.000 Br
ENDBRANCH   2  13
TORSDOF 2
ENDMDL
MODEL 2
REMARK VINA RESULT:      -7.7      1.742      2.181
REMARK  Name = 
REMARK  2 active torsions:
REMARK  status: ('A' for Active; 'I' for Inactive)
REMARK    1  A    between atoms: C_6  and  N_7
REMARK    2  A    between atoms: C_8  and  C_10
REMARK                            x       y       z     vdW  Elec       q    Type
REMARK                         _______ _______ _______ _____ _____    ______ ____
ROOT
ATOM      1  N   UNL     1      15.783  11.002  35.317  0.00  0.00    +0.000 NA
ATOM      2  C   UNL     1      16.178  11.601  36.503  0.00  0.00    +0.000 C 
ATOM      3  O   UNL     1      16.345  12.840  36.561  0.00  0.00    +0.000 OA
ENDROOT
BRANCH   1   9
ATOM      4  C   UNL     1      15.188  13.350  30.181  0.00  0.00    +0.000 C 
ATOM      5  C   UNL     1      15.274  12.779  31.532  0.00  0.00    +0.000 A 
ATOM      6  C   UNL     1      16.196  11.775  31.727  0.00  0.00    +0.000 A 
ATOM      7  C   UNL     1      16.302  11.230  32.998  0.00  0.00    +0.000 A 
ATOM      8  O   UNL     1      17.239  10.197  33.232  0.00  0.00    +0.000 OA
ATOM      9  C   UNL     1      15.534  11.638  34.077  0.00  0.00    +0.000 A 
ATOM     10  C   UNL     1      14.612  12.647  33.863  0.00  0.00    +0.000 A 
ATOM     11  C   UNL     1      14.496  13.198  32.611  0.00  0.00    +0.000 A 
ATOM     12  C   UNL     1      13.527  14.315  32.335  0.00  0.00    +0.000 C 
ENDBRANCH   1   9
BRANCH   2  13
ATOM     13  C   UNL     1      16.430  10.852  37.758  0.00  0.00    +0.000 A 
ATOM     14  C   UNL     1      17.756  10.453  38.000  0.00  0.00    +0.000 A 
ATOM     15  C   UNL     1      18.071   9.813  39.142  0.00  0.00    +0.000 A 
ATOM     16  C   UNL     1      17.131   9.534  40.087  0.00  0.00    +0.000 A 
ATOM     17  C   UNL     1      15.795   9.922  39.874  0.00  0.00    +0.000 A 
ATOM     18  C   UNL     1      15.477  10.582  38.693  0.00  0.00    +0.000 A 
ATOM     19 BR   UNL     1      13.664  11.094  38.364  0.00  0.00    +0.000 Br
ENDBRANCH   2  13
TORSDOF 2
ENDMDL
MODEL 3
REMARK VINA RESULT:      -7.2      1.720      6.607
REMARK  Name = 
REMARK  2 active torsions:
REMARK  status: ('A' for Active; 'I' for Inactive)
REMARK    1  A    between atoms: C_6  and  N_7
REMARK    2  A    between atoms: C_8  and  C_10
REMARK                            x       y       z     vdW  Elec       q    Type
REMARK                         _______ _______ _______ _____ _____    ______ ____
ROOT
ATOM      1  N   UNL     1      16.260  11.720  35.720  0.00  0.00    +0.000 NA
ATOM      2  C   UNL     1      14.914  11.936  35.466  0.00  0.00    +0.000 C 
ATOM      3  O   UNL     1      14.042  11.381  36.170  0.00  0.00    +0.000 OA
ENDROOT
BRANCH   1   9
ATOM      4  C   UNL     1      18.748   8.192  39.407  0.00  0.00    +0.000 C 
ATOM      5  C   UNL     1      18.067   9.140  38.515  0.00  0.00    +0.000 A 
ATOM      6  C   UNL     1      18.513   9.200  37.214  0.00  0.00    +0.000 A 
ATOM      7  C   UNL     1      17.876  10.081  36.351  0.00  0.00    +0.000 A 
ATOM      8  O   UNL     1      18.308  10.167  35.007  0.00  0.00    +0.000 OA
ATOM      9  C   UNL     1      16.822  10.899  36.725  0.00  0.00    +0.000 A 
ATOM     10  C   UNL     1      16.388  10.826  38.037  0.00  0.00    +0.000 A 
ATOM     11  C   UNL     1      17.007   9.958  38.903  0.00  0.00    +0.000 A 
ATOM     12  C   UNL     1      16.555   9.824  40.332  0.00  0.00    +0.000 C 
ENDBRANCH   1   9
BRANCH   2  13
ATOM     13  C   UNL     1      14.413  12.808  34.376  0.00  0.00    +0.000 A 
ATOM     14  C   UNL     1      13.731  13.975  34.764  0.00  0.00    +0.000 A 
ATOM     15  C   UNL     1      13.290  14.841  33.832  0.00  0.00    +0.000 A 
ATOM     16  C   UNL     1      13.486  14.621  32.503  0.00  0.00    +0.000 A 
ATOM     17  C   UNL     1      14.167  13.462  32.083  0.00  0.00    +0.000 A 
ATOM     18  C   UNL     1      14.618  12.572  33.051  0.00  0.00    +0.000 A 
ATOM     19 BR   UNL     1      15.518  10.975  32.508  0.00  0.00    +0.000 Br
ENDBRANCH   2  13
TORSDOF 2
ENDMDL
MODEL 4
REMARK VINA RESULT:      -6.7      2.200      6.842
REMARK  Name = 
REMARK  2 active torsions:
REMARK  status: ('A' for Active; 'I' for Inactive)
REMARK    1  A    between atoms: C_6  and  N_7
REMARK    2  A    between atoms: C_8  and  C_10
REMARK                            x       y       z     vdW  Elec       q    Type
REMARK                         _______ _______ _______ _____ _____    ______ ____
ROOT
ATOM      1  N   UNL     1      16.895  10.119  35.897  0.00  0.00    +0.000 NA
ATOM      2  C   UNL     1      16.742  11.319  35.221  0.00  0.00    +0.000 C 
ATOM      3  O   UNL     1      17.107  12.393  35.749  0.00  0.00    +0.000 OA
ENDROOT
BRANCH   1   9
ATOM      4  C   UNL     1      19.454   9.181  40.878  0.00  0.00    +0.000 C 
ATOM      5  C   UNL     1      18.728   9.451  39.629  0.00  0.00    +0.000 A 
ATOM      6  C   UNL     1      19.457   9.405  38.463  0.00  0.00    +0.000 A 
ATOM      7  C   UNL     1      18.788   9.645  37.271  0.00  0.00    +0.000 A 
ATOM      8  O   UNL     1      19.508   9.605  36.054  0.00  0.00    +0.000 OA
ATOM      9  C   UNL     1      17.434   9.927  37.191  0.00  0.00    +0.000 A 
ATOM     10  C   UNL     1      16.717   9.970  38.374  0.00  0.00    +0.000 A 
ATOM     11  C   UNL     1      17.364   9.734  39.562  0.00  0.00    +0.000 A 
ATOM     12  C   UNL     1      16.624   9.744  40.872  0.00  0.00    +0.000 C 
ENDBRANCH   1   9
BRANCH   2  13
ATOM     13  C   UNL     1      16.152  11.429  33.864  0.00  0.00    +0.000 A 
ATOM     14  C   UNL     1      16.755  10.667  32.849  0.00  0.00    +0.000 A 
ATOM     15  C   UNL     1      16.244  10.676  31.603  0.00  0.00    +0.000 A 
ATOM     16  C   UNL     1      15.144  11.412  31.288  0.00  0.00    +0.000 A 
ATOM     17  C   UNL     1      14.516  12.185  32.284  0.00  0.00    +0.000 A 
ATOM     18  C   UNL     1      15.049  12.171  33.567  0.00  0.00    +0.000 A 
ATOM     19 BR   UNL     1      14.236  13.236  34.931  0.00  0.00    +0.000 Br
ENDBRANCH   2  13
TORSDOF 2
ENDMDL
MODEL 5
REMARK VINA RESULT:      -6.2     19.164     20.044
REMARK  Name = 
REMARK  2 active torsions:
REMARK  status: ('A' for Active; 'I' for Inactive)
REMARK    1  A    between atoms: C_6  and  N_7
REMARK    2  A    between atoms: C_8  and  C_10
REMARK                            x       y       z     vdW  Elec       q    Type
REMARK                         _______ _______ _______ _____ _____    ______ ____
ROOT
ATOM      1  N   UNL     1      29.962  22.060  27.060  0.00  0.00    +0.000 NA
ATOM      2  C   UNL     1      30.549  22.866  28.024  0.00  0.00    +0.000 C 
ATOM      3  O   UNL     1      30.425  24.109  27.969  0.00  0.00    +0.000 OA
ENDROOT
BRANCH   1   9
ATOM      4  C   UNL     1      27.314  23.859  22.371  0.00  0.00    +0.000 C 
ATOM      5  C   UNL     1      27.928  23.374  23.615  0.00  0.00    +0.000 A 
ATOM      6  C   UNL     1      29.295  23.210  23.612  0.00  0.00    +0.000 A 
ATOM      7  C   UNL     1      29.895  22.764  24.781  0.00  0.00    +0.000 A 
ATOM      8  O   UNL     1      31.298  22.585  24.812  0.00  0.00    +0.000 OA
ATOM      9  C   UNL     1      29.199  22.477  25.944  0.00  0.00    +0.000 A 
ATOM     10  C   UNL     1      27.826  22.647  25.928  0.00  0.00    +0.000 A 
ATOM     11  C   UNL     1      27.216  23.088  24.779  0.00  0.00    +0.000 A 
ATOM     12  C   UNL     1      25.729  23.313  24.720  0.00  0.00    +0.000 C 
ENDBRANCH   1   9
BRANCH   2  13
ATOM     13  C   UNL     1      31.346  22.341  29.160  0.00  0.00    +0.000 A 
ATOM     14  C   UNL     1      32.681  21.995  28.887  0.00  0.00    +0.000 A 
ATOM     15  C   UNL     1      33.481  21.559  29.878  0.00  0.00    +0.000 A 
ATOM     16  C   UNL     1      33.033  21.440  31.158  0.00  0.00    +0.000 A 
ATOM     17  C   UNL     1      31.701  21.780  31.462  0.00  0.00    +0.000 A 
ATOM     18  C   UNL     1      30.881  22.228  30.434  0.00  0.00    +0.000 A 
ATOM     19 BR   UNL     1      29.059  22.668  30.813  0.00  0.00    +0.000 Br
ENDBRANCH   2  13
TORSDOF 2
ENDMDL
MODEL 6
REMARK VINA RESULT:      -6.1     22.367     23.758
REMARK  Name = 
REMARK  2 active torsions:
REMARK  status: ('A' for Active; 'I' for Inactive)
REMARK    1  A    between atoms: C_6  and  N_7
REMARK    2  A    between atoms: C_8  and  C_10
REMARK                            x       y       z     vdW  Elec       q    Type
REMARK                         _______ _______ _______ _____ _____    ______ ____
ROOT
ATOM      1  N   UNL     1      22.513  -7.856  24.778  0.00  0.00    +0.000 NA
ATOM      2  C   UNL     1      23.028  -7.514  23.537  0.00  0.00    +0.000 C 
ATOM      3  O   UNL     1      22.352  -6.827  22.740  0.00  0.00    +0.000 OA
ENDROOT
BRANCH   1   9
ATOM      4  C   UNL     1      17.272  -6.957  26.769  0.00  0.00    +0.000 C 
ATOM      5  C   UNL     1      18.646  -7.114  26.273  0.00  0.00    +0.000 A 
ATOM      6  C   UNL     1      19.065  -8.395  25.995  0.00  0.00    +0.000 A 
ATOM      7  C   UNL     1      20.356  -8.565  25.515  0.00  0.00    +0.000 A 
ATOM      8  O   UNL     1      20.819  -9.868  25.219  0.00  0.00    +0.000 OA
ATOM      9  C   UNL     1      21.241  -7.521  25.301  0.00  0.00    +0.000 A 
ATOM     10  C   UNL     1      20.803  -6.240  25.586  0.00  0.00    +0.000 A 
ATOM     11  C   UNL     1      19.528  -6.055  26.061  0.00  0.00    +0.000 A 
ATOM     12  C   UNL     1      18.997  -4.679  26.362  0.00  0.00    +0.000 C 
ENDBRANCH   1   9
BRANCH   2  13
ATOM     13  C   UNL     1      24.373  -7.922  23.065  0.00  0.00    +0.000 A 
ATOM     14  C   UNL     1      25.423  -7.014  23.285  0.00  0.00    +0.000 A 
ATOM     15  C   UNL     1      26.681  -7.335  22.929  0.00  0.00    +0.000 A 
ATOM     16  C   UNL     1      26.976  -8.531  22.352  0.00  0.00    +0.000 A 
ATOM     17  C   UNL     1      25.946  -9.464  22.119  0.00  0.00    +0.000 A 
ATOM     18  C   UNL     1      24.650  -9.125  22.489  0.00  0.00    +0.000 A 
ATOM     19 BR   UNL     1      23.228 -10.358  22.156  0.00  0.00    +0.000 Br
ENDBRANCH   2  13
TORSDOF 2
ENDMDL
MODEL 7
REMARK VINA RESULT:      -6.1     19.995     22.585
REMARK  Name = 
REMARK  2 active torsions:
REMARK  status: ('A' for Active; 'I' for Inactive)
REMARK    1  A    between atoms: C_6  and  N_7
REMARK    2  A    between atoms: C_8  and  C_10
REMARK                            x       y       z     vdW  Elec       q    Type
REMARK                         _______ _______ _______ _____ _____    ______ ____
ROOT
ATOM      1  N   UNL     1      34.276  -0.855  34.447  0.00  0.00    +0.000 NA
ATOM      2  C   UNL     1      33.298   0.113  34.612  0.00  0.00    +0.000 C 
ATOM      3  O   UNL     1      32.095  -0.215  34.717  0.00  0.00    +0.000 OA
ENDROOT
BRANCH   1   9
ATOM      4  C   UNL     1      33.770  -6.510  34.539  0.00  0.00    +0.000 C 
ATOM      5  C   UNL     1      33.861  -5.046  34.446  0.00  0.00    +0.000 A 
ATOM      6  C   UNL     1      34.280  -4.375  35.573  0.00  0.00    +0.000 A 
ATOM      7  C   UNL     1      34.385  -2.993  35.502  0.00  0.00    +0.000 A 
ATOM      8  O   UNL     1      34.812  -2.273  36.642  0.00  0.00    +0.000 OA
ATOM      9  C   UNL     1      34.091  -2.256  34.367  0.00  0.00    +0.000 A 
ATOM     10  C   UNL     1      33.670  -2.947  33.244  0.00  0.00    +0.000 A 
ATOM     11  C   UNL     1      33.563  -4.315  33.297  0.00  0.00    +0.000 A 
ATOM     12  C   UNL     1      33.135  -5.112  32.095  0.00  0.00    +0.000 C 
ENDBRANCH   1   9
BRANCH   2  13
ATOM     13  C   UNL     1      33.583   1.568  34.673  0.00  0.00    +0.000 A 
ATOM     14  C   UNL     1      33.439   2.290  33.476  0.00  0.00    +0.000 A 
ATOM     15  C   UNL     1      33.632   3.623  33.464  0.00  0.00    +0.000 A 
ATOM     16  C   UNL     1      33.967   4.306  34.593  0.00  0.00    +0.000 A 
ATOM     17  C   UNL     1      34.117   3.610  35.808  0.00  0.00    +0.000 A 
ATOM     18  C   UNL     1      33.917   2.235  35.812  0.00  0.00    +0.000 A 
ATOM     19 BR   UNL     1      34.144   1.260  37.442  0.00  0.00    +0.000 Br
ENDBRANCH   2  13
TORSDOF 2
ENDMDL
MODEL 8
REMARK VINA RESULT:      -6.1      2.170      3.079
REMARK  Name = 
REMARK  2 active torsions:
REMARK  status: ('A' for Active; 'I' for Inactive)
REMARK    1  A    between atoms: C_6  and  N_7
REMARK    2  A    between atoms: C_8  and  C_10
REMARK                            x       y       z     vdW  Elec       q    Type
REMARK                         _______ _______ _______ _____ _____    ______ ____
ROOT
ATOM      1  N   UNL     1      17.420   9.769  37.383  0.00  0.00    +0.000 NA
ATOM      2  C   UNL     1      18.331  10.349  38.253  0.00  0.00    +0.000 C 
ATOM      3  O   UNL     1      18.679  11.541  38.101  0.00  0.00    +0.000 OA
ENDROOT
BRANCH   1   9
ATOM      4  C   UNL     1      15.242  11.985  32.631  0.00  0.00    +0.000 C 
ATOM      5  C   UNL     1      15.749  11.450  33.902  0.00  0.00    +0.000 A 
ATOM      6  C   UNL     1      16.674  10.433  33.825  0.00  0.00    +0.000 A 
ATOM      7  C   UNL     1      17.174   9.922  35.014  0.00  0.00    +0.000 A 
ATOM      8  O   UNL     1      18.126   8.876  34.971  0.00  0.00    +0.000 OA
ATOM      9  C   UNL     1      16.796  10.374  36.267  0.00  0.00    +0.000 A 
ATOM     10  C   UNL     1      15.864  11.396  36.326  0.00  0.00    +0.000 A 
ATOM     11  C   UNL     1      15.360  11.914  35.159  0.00  0.00    +0.000 A 
ATOM     12  C   UNL     1      14.365  13.043  35.169  0.00  0.00    +0.000 C 
ENDBRANCH   1   9
BRANCH   2  13
ATOM     13  C   UNL     1      18.949   9.631  39.395  0.00  0.00    +0.000 A 
ATOM     14  C   UNL     1      20.330   9.384  39.313  0.00  0.00    +0.000 A 
ATOM     15  C   UNL     1      20.970   8.782  40.333  0.00  0.00    +0.000 A 
ATOM     16  C   UNL     1      20.313   8.398  41.461  0.00  0.00    +0.000 A 
ATOM     17  C   UNL     1      18.929   8.633  41.574  0.00  0.00    +0.000 A 
ATOM     18  C   UNL     1      18.275   9.254  40.517  0.00  0.00    +0.000 A 
ATOM     19 BR   UNL     1      16.390   9.557  40.630  0.00  0.00    +0.000 Br
ENDBRANCH   2  13
TORSDOF 2
ENDMDL
MODEL 9
REMARK VINA RESULT:      -6.0      4.091      5.996
REMARK  Name = 
REMARK  2 active torsions:
REMARK  status: ('A' for Active; 'I' for Inactive)
REMARK    1  A    between atoms: C_6  and  N_7
REMARK    2  A    between atoms: C_8  and  C_10
REMARK                            x       y       z     vdW  Elec       q    Type
REMARK                         _______ _______ _______ _____ _____    ______ ____
ROOT
ATOM      1  N   UNL     1      20.242  10.812  37.923  0.00  0.00    +0.000 NA
ATOM      2  C   UNL     1      20.997  10.047  37.047  0.00  0.00    +0.000 C 
ATOM      3  O   UNL     1      20.442   9.416  36.120  0.00  0.00    +0.000 OA
ENDROOT
BRANCH   1   9
ATOM      4  C   UNL     1      14.575  11.089  38.155  0.00  0.00    +0.000 C 
ATOM      5  C   UNL     1      16.041  11.086  38.054  0.00  0.00    +0.000 A 
ATOM      6  C   UNL     1      16.718  10.186  38.845  0.00  0.00    +0.000 A 
ATOM      7  C   UNL     1      18.103  10.158  38.756  0.00  0.00    +0.000 A 
ATOM      8  O   UNL     1      18.830   9.245  39.555  0.00  0.00    +0.000 OA
ATOM      9  C   UNL     1      18.837  10.984  37.920  0.00  0.00    +0.000 A 
ATOM     10  C   UNL     1      18.140  11.883  37.133  0.00  0.00    +0.000 A 
ATOM     11  C   UNL     1      16.770  11.922  37.208  0.00  0.00    +0.000 A 
ATOM     12  C   UNL     1      15.966  12.865  36.354  0.00  0.00    +0.000 C 
ENDBRANCH   1   9
BRANCH   2  13
ATOM     13  C   UNL     1      22.472   9.914  37.133  0.00  0.00    +0.000 A 
ATOM     14  C   UNL     1      23.215  10.403  36.045  0.00  0.00    +0.000 A 
ATOM     15  C   UNL     1      24.560  10.362  36.073  0.00  0.00    +0.000 A 
ATOM     16  C   UNL     1      25.237   9.854  37.139  0.00  0.00    +0.000 A 
ATOM     17  C   UNL     1      24.521   9.358  38.245  0.00  0.00    +0.000 A 
ATOM     18  C   UNL     1      23.132   9.403  38.209  0.00  0.00    +0.000 A 
ATOM     19 BR   UNL     1      22.133   8.707  39.683  0.00  0.00    +0.000 Br
ENDBRANCH   2  13
TORSDOF 2
ENDMDL
MODEL 10
REMARK VINA RESULT:      -6.0      4.047      7.736
REMARK  Name = 
REMARK  2 active torsions:
REMARK  status: ('A' for Active; 'I' for Inactive)
REMARK    1  A    between atoms: C_6  and  N_7
REMARK    2  A    between atoms: C_8  and  C_10
REMARK                            x       y       z     vdW  Elec       q    Type
REMARK                         _______ _______ _______ _____ _____    ______ ____
ROOT
ATOM      1  N   UNL     1      19.934  10.200  37.306  0.00  0.00    +0.000 NA
ATOM      2  C   UNL     1      19.235  11.272  37.840  0.00  0.00    +0.000 C 
ATOM      3  O   UNL     1      19.824  12.123  38.543  0.00  0.00    +0.000 OA
ENDROOT
BRANCH   1   9
ATOM      4  C   UNL     1      25.363   8.937  38.390  0.00  0.00    +0.000 C 
ATOM      5  C   UNL     1      23.979   9.280  38.033  0.00  0.00    +0.000 A 
ATOM      6  C   UNL     1      23.000   8.942  38.940  0.00  0.00    +0.000 A 
ATOM      7  C   UNL     1      21.688   9.268  38.629  0.00  0.00    +0.000 A 
ATOM      8  O   UNL     1      20.658   8.935  39.539  0.00  0.00    +0.000 OA
ATOM      9  C   UNL     1      21.311   9.912  37.462  0.00  0.00    +0.000 A 
ATOM     10  C   UNL     1      22.308  10.243  36.561  0.00  0.00    +0.000 A 
ATOM     11  C   UNL     1      23.612   9.929  36.855  0.00  0.00    +0.000 A 
ATOM     12  C   UNL     1      24.733  10.292  35.920  0.00  0.00    +0.000 C 
ENDBRANCH   1   9
BRANCH   2  13
ATOM     13  C   UNL     1      17.782  11.491  37.635  0.00  0.00    +0.000 A 
ATOM     14  C   UNL     1      17.418  12.441  36.666  0.00  0.00    +0.000 A 
ATOM     15  C   UNL     1      16.118  12.658  36.388  0.00  0.00    +0.000 A 
ATOM     16  C   UNL     1      15.128  11.976  37.026  0.00  0.00    +0.000 A 
ATOM     17  C   UNL     1      15.462  11.015  38.001  0.00  0.00    +0.000 A 
ATOM     18  C   UNL     1      16.805  10.798  38.282  0.00  0.00    +0.000 A 
ATOM     19 BR   UNL     1      17.287   9.522  39.623  0.00  0.00    +0.000 Br
ENDBRANCH   2  13
TORSDOF 2
ENDMDL
