MODEL 1
REMARK VINA RESULT:      -8.1      0.000      0.000
REMARK  Name = 
REMARK  8 active torsions:
REMARK  status: ('A' for Active; 'I' for Inactive)
REMARK    1  A    between atoms: C_2  and  C_17
REMARK    2  A    between atoms: N_3  and  C_4
REMARK    3  A    between atoms: C_4  and  C_5
REMARK    4  A    between atoms: C_5  and  O_6
REMARK    5  A    between atoms: O_6  and  C_7
REMARK    6  A    between atoms: C_20  and  C_21
REMARK    7  A    between atoms: C_21  and  S_22
REMARK    8  A    between atoms: S_22  and  C_23
REMARK                            x       y       z     vdW  Elec       q    Type
REMARK                         _______ _______ _______ _____ _____    ______ ____
ROOT
ATOM      1  O   UNL     1      37.820   4.250  14.942  0.00  0.00    +0.000 OA
ATOM      2  C   UNL     1      37.935   4.086  16.162  0.00  0.00    +0.000 C 
ATOM      3  N   UNL     1      37.143   3.123  16.805  0.00  0.00    +0.000 NA
ENDROOT
BRANCH   2   4
ATOM      4  C   UNL     1      38.884   4.875  16.978  0.00  0.00    +0.000 A 
ATOM      5  C   UNL     1      38.734   5.004  18.343  0.00  0.00    +0.000 A 
ATOM      6  C   UNL     1      39.627   5.743  19.102  0.00  0.00    +0.000 A 
ATOM      7  C   UNL     1      40.701   6.375  18.514  0.00  0.00    +0.000 A 
ATOM      8  C   UNL     1      40.854   6.247  17.149  0.00  0.00    +0.000 A 
ATOM      9  C   UNL     1      39.957   5.507  16.395  0.00  0.00    +0.000 A 
BRANCH   7  10
ATOM     10  C   UNL     1      41.698   7.178  19.285  0.00  0.00    +0.000 C 
BRANCH  10  11
ATOM     11  S   UNL     1      41.614   8.932  18.774  0.00  0.00    +0.000 S 
BRANCH  11  12
ATOM     12  C   UNL     1      39.974   9.593  19.162  0.00  0.00    +0.000 C 
ATOM     13  C   UNL     1      39.064   9.307  18.009  0.00  0.00    +0.000 C 
ATOM     14  C   UNL     1      37.607   9.507  18.354  0.00  0.00    +0.000 C 
ATOM     15  C   UNL     1      37.298   8.654  19.565  0.00  0.00    +0.000 C 
ATOM     16  C   UNL     1      38.058   9.280  20.739  0.00  0.00    +0.000 C 
ATOM     17  C   UNL     1      39.526   9.030  20.469  0.00  0.00    +0.000 C 
ENDBRANCH  11  12
ENDBRANCH  10  11
ENDBRANCH   7  10
ENDBRANCH   2   4
BRANCH   3  18
ATOM     18  C   UNL     1      36.177   2.267  16.242  0.00  0.00    +0.000 C 
BRANCH  18  19
ATOM     19  C   UNL     1      35.412   1.377  17.149  0.00  0.00    +0.000 C 
BRANCH  19  20
ATOM     20  O   UNL     1      35.581   0.032  16.845  0.00  0.00    +0.000 OA
BRANCH  20  21
ATOM     21  C   UNL     1      36.507  -0.795  17.462  0.00  0.00    +0.000 A 
ATOM     22  C   UNL     1      36.506  -0.986  18.827  0.00  0.00    +0.000 A 
ATOM     23  C   UNL     1      37.406  -1.797  19.474  0.00  0.00    +0.000 A 
ATOM     24  C   UNL     1      38.367  -2.463  18.739  0.00  0.00    +0.000 A 
ATOM     25  C   UNL     1      38.394  -2.292  17.363  0.00  0.00    +0.000 A 
ATOM     26  C   UNL     1      39.366  -2.969  16.652  0.00  0.00    +0.000 A 
ATOM     27  C   UNL     1      39.403  -2.804  15.274  0.00  0.00    +0.000 A 
ATOM     28  C   UNL     1      38.495  -1.985  14.629  0.00  0.00    +0.000 A 
ATOM     29  C   UNL     1      37.557  -1.340  15.376  0.00  0.00    +0.000 A 
ATOM     30  C   UNL     1      37.475  -1.469  16.747  0.00  0.00    +0.000 A 
ENDBRANCH  20  21
ENDBRANCH  19  20
ENDBRANCH  18  19
ENDBRANCH   3  18
TORSDOF 8
ENDMDL
MODEL 2
REMARK VINA RESULT:      -7.9      1.244      1.999
REMARK  Name = 
REMARK  8 active torsions:
REMARK  status: ('A' for Active; 'I' for Inactive)
REMARK    1  A    between atoms: C_2  and  C_17
REMARK    2  A    between atoms: N_3  and  C_4
REMARK    3  A    between atoms: C_4  and  C_5
REMARK    4  A    between atoms: C_5  and  O_6
REMARK    5  A    between atoms: O_6  and  C_7
REMARK    6  A    between atoms: C_20  and  C_21
REMARK    7  A    between atoms: C_21  and  S_22
REMARK    8  A    between atoms: S_22  and  C_23
REMARK                            x       y       z     vdW  Elec       q    Type
REMARK                         _______ _______ _______ _____ _____    ______ ____
ROOT
ATOM      1  O   UNL     1      37.007   4.049  15.286  0.00  0.00    +0.000 OA
ATOM      2  C   UNL     1      37.508   3.796  16.388  0.00  0.00    +0.000 C 
ATOM      3  N   UNL     1      37.085   2.658  17.091  0.00  0.00    +0.000 NA
ENDROOT
BRANCH   2   4
ATOM      4  C   UNL     1      38.544   4.656  16.999  0.00  0.00    +0.000 A 
ATOM      5  C   UNL     1      39.464   5.341  16.234  0.00  0.00    +0.000 A 
ATOM      6  C   UNL     1      40.431   6.146  16.813  0.00  0.00    +0.000 A 
ATOM      7  C   UNL     1      40.504   6.292  18.181  0.00  0.00    +0.000 A 
ATOM      8  C   UNL     1      39.585   5.609  18.950  0.00  0.00    +0.000 A 
ATOM      9  C   UNL     1      38.620   4.804  18.365  0.00  0.00    +0.000 A 
BRANCH   7  10
ATOM     10  C   UNL     1      41.521   7.152  18.859  0.00  0.00    +0.000 C 
BRANCH  10  11
ATOM     11  S   UNL     1      41.363   8.878  18.277  0.00  0.00    +0.000 S 
BRANCH  11  12
ATOM     12  C   UNL     1      39.811   9.580  18.890  0.00  0.00    +0.000 C 
ATOM     13  C   UNL     1      38.723   9.240  17.920  0.00  0.00    +0.000 C 
ATOM     14  C   UNL     1      37.343   9.478  18.487  0.00  0.00    +0.000 C 
ATOM     15  C   UNL     1      37.235   8.697  19.780  0.00  0.00    +0.000 C 
ATOM     16  C   UNL     1      38.179   9.380  20.775  0.00  0.00    +0.000 C 
ATOM     17  C   UNL     1      39.582   9.096  20.283  0.00  0.00    +0.000 C 
ENDBRANCH  11  12
ENDBRANCH  10  11
ENDBRANCH   7  10
ENDBRANCH   2   4
BRANCH   3  18
ATOM     18  C   UNL     1      36.119   1.706  16.715  0.00  0.00    +0.000 C 
BRANCH  18  19
ATOM     19  C   UNL     1      36.433   0.270  16.910  0.00  0.00    +0.000 C 
BRANCH  19  20
ATOM     20  O   UNL     1      37.012  -0.308  15.787  0.00  0.00    +0.000 OA
BRANCH  20  21
ATOM     21  C   UNL     1      37.984  -1.296  15.834  0.00  0.00    +0.000 A 
ATOM     22  C   UNL     1      37.758  -2.499  16.468  0.00  0.00    +0.000 A 
ATOM     23  C   UNL     1      38.696  -3.501  16.534  0.00  0.00    +0.000 A 
ATOM     24  C   UNL     1      39.929  -3.314  15.943  0.00  0.00    +0.000 A 
ATOM     25  C   UNL     1      40.187  -2.115  15.298  0.00  0.00    +0.000 A 
ATOM     26  C   UNL     1      41.430  -1.953  14.716  0.00  0.00    +0.000 A 
ATOM     27  C   UNL     1      41.698  -0.755  14.067  0.00  0.00    +0.000 A 
ATOM     28  C   UNL     1      40.751   0.250  14.004  0.00  0.00    +0.000 A 
ATOM     29  C   UNL     1      39.542   0.041  14.594  0.00  0.00    +0.000 A 
ATOM     30  C   UNL     1      39.222  -1.129  15.250  0.00  0.00    +0.000 A 
ENDBRANCH  20  21
ENDBRANCH  19  20
ENDBRANCH  18  19
ENDBRANCH   3  18
TORSDOF 8
ENDMDL
MODEL 3
REMARK VINA RESULT:      -7.9      1.210      2.490
REMARK  Name = 
REMARK  8 active torsions:
REMARK  status: ('A' for Active; 'I' for Inactive)
REMARK    1  A    between atoms: C_2  and  C_17
REMARK    2  A    between atoms: N_3  and  C_4
REMARK    3  A    between atoms: C_4  and  C_5
REMARK    4  A    between atoms: C_5  and  O_6
REMARK    5  A    between atoms: O_6  and  C_7
REMARK    6  A    between atoms: C_20  and  C_21
REMARK    7  A    between atoms: C_21  and  S_22
REMARK    8  A    between atoms: S_22  and  C_23
REMARK                            x       y       z     vdW  Elec       q    Type
REMARK                         _______ _______ _______ _____ _____    ______ ____
ROOT
ATOM      1  O   UNL     1      37.145   3.423  17.297  0.00  0.00    +0.000 OA
ATOM      2  C   UNL     1      38.054   3.929  16.630  0.00  0.00    +0.000 C 
ATOM      3  N   UNL     1      38.181   3.596  15.274  0.00  0.00    +0.000 NA
ENDROOT
BRANCH   2   4
ATOM      4  C   UNL     1      39.025   4.881  17.214  0.00  0.00    +0.000 A 
ATOM      5  C   UNL     1      39.967   5.523  16.440  0.00  0.00    +0.000 A 
ATOM      6  C   UNL     1      40.872   6.415  16.992  0.00  0.00    +0.000 A 
ATOM      7  C   UNL     1      40.859   6.692  18.342  0.00  0.00    +0.000 A 
ATOM      8  C   UNL     1      39.917   6.051  19.119  0.00  0.00    +0.000 A 
ATOM      9  C   UNL     1      39.014   5.159  18.561  0.00  0.00    +0.000 A 
BRANCH   7  10
ATOM     10  C   UNL     1      41.806   7.649  18.990  0.00  0.00    +0.000 C 
BRANCH  10  11
ATOM     11  S   UNL     1      41.488   9.345  18.384  0.00  0.00    +0.000 S 
BRANCH  11  12
ATOM     12  C   UNL     1      39.899   9.925  19.028  0.00  0.00    +0.000 C 
ATOM     13  C   UNL     1      38.812   9.408  18.138  0.00  0.00    +0.000 C 
ATOM     14  C   UNL     1      37.440   9.543  18.757  0.00  0.00    +0.000 C 
ATOM     15  C   UNL     1      37.472   8.848  20.102  0.00  0.00    +0.000 C 
ATOM     16  C   UNL     1      38.380   9.692  21.002  0.00  0.00    +0.000 C 
ATOM     17  C   UNL     1      39.783   9.520  20.459  0.00  0.00    +0.000 C 
ENDBRANCH  11  12
ENDBRANCH  10  11
ENDBRANCH   7  10
ENDBRANCH   2   4
BRANCH   3  18
ATOM     18  C   UNL     1      37.388   2.719  14.510  0.00  0.00    +0.000 C 
BRANCH  18  19
ATOM     19  C   UNL     1      37.982   1.434  14.071  0.00  0.00    +0.000 C 
BRANCH  19  20
ATOM     20  O   UNL     1      37.251   0.332  14.497  0.00  0.00    +0.000 OA
BRANCH  20  21
ATOM     21  C   UNL     1      37.686  -0.565  15.461  0.00  0.00    +0.000 A 
ATOM     22  C   UNL     1      38.725  -1.437  15.217  0.00  0.00    +0.000 A 
ATOM     23  C   UNL     1      39.184  -2.339  16.147  0.00  0.00    +0.000 A 
ATOM     24  C   UNL     1      38.589  -2.389  17.392  0.00  0.00    +0.000 A 
ATOM     25  C   UNL     1      37.542  -1.524  17.668  0.00  0.00    +0.000 A 
ATOM     26  C   UNL     1      36.963  -1.596  18.921  0.00  0.00    +0.000 A 
ATOM     27  C   UNL     1      35.913  -0.734  19.208  0.00  0.00    +0.000 A 
ATOM     28  C   UNL     1      35.455   0.170  18.268  0.00  0.00    +0.000 A 
ATOM     29  C   UNL     1      36.059   0.201  17.048  0.00  0.00    +0.000 A 
ATOM     30  C   UNL     1      37.106  -0.631  16.711  0.00  0.00    +0.000 A 
ENDBRANCH  20  21
ENDBRANCH  19  20
ENDBRANCH  18  19
ENDBRANCH   3  18
TORSDOF 8
ENDMDL
MODEL 4
REMARK VINA RESULT:      -7.6      1.904      3.546
REMARK  Name = 
REMARK  8 active torsions:
REMARK  status: ('A' for Active; 'I' for Inactive)
REMARK    1  A    between atoms: C_2  and  C_17
REMARK    2  A    between atoms: N_3  and  C_4
REMARK    3  A    between atoms: C_4  and  C_5
REMARK    4  A    between atoms: C_5  and  O_6
REMARK    5  A    between atoms: O_6  and  C_7
REMARK    6  A    between atoms: C_20  and  C_21
REMARK    7  A    between atoms: C_21  and  S_22
REMARK    8  A    between atoms: S_22  and  C_23
REMARK                            x       y       z     vdW  Elec       q    Type
REMARK                         _______ _______ _______ _____ _____    ______ ____
ROOT
ATOM      1  O   UNL     1      39.139   3.361  15.158  0.00  0.00    +0.000 OA
ATOM      2  C   UNL     1      38.513   4.054  15.968  0.00  0.00    +0.000 C 
ATOM      3  N   UNL     1      37.110   4.015  15.967  0.00  0.00    +0.000 NA
ENDROOT
BRANCH   2   4
ATOM      4  C   UNL     1      39.191   4.933  16.946  0.00  0.00    +0.000 A 
ATOM      5  C   UNL     1      40.271   5.713  16.594  0.00  0.00    +0.000 A 
ATOM      6  C   UNL     1      40.900   6.536  17.514  0.00  0.00    +0.000 A 
ATOM      7  C   UNL     1      40.464   6.601  18.819  0.00  0.00    +0.000 A 
ATOM      8  C   UNL     1      39.383   5.822  19.175  0.00  0.00    +0.000 A 
ATOM      9  C   UNL     1      38.757   5.001  18.249  0.00  0.00    +0.000 A 
BRANCH   7  10
ATOM     10  C   UNL     1      41.100   7.475  19.851  0.00  0.00    +0.000 C 
BRANCH  10  11
ATOM     11  S   UNL     1      42.760   7.994  19.289  0.00  0.00    +0.000 S 
BRANCH  11  12
ATOM     12  C   UNL     1      44.002   7.429  20.480  0.00  0.00    +0.000 C 
ATOM     13  C   UNL     1      43.292   6.884  21.679  0.00  0.00    +0.000 C 
ATOM     14  C   UNL     1      44.203   6.085  22.581  0.00  0.00    +0.000 C 
ATOM     15  C   UNL     1      44.847   5.002  21.742  0.00  0.00    +0.000 C 
ATOM     16  C   UNL     1      45.798   5.713  20.774  0.00  0.00    +0.000 C 
ATOM     17  C   UNL     1      44.916   6.466  19.800  0.00  0.00    +0.000 C 
ENDBRANCH  11  12
ENDBRANCH  10  11
ENDBRANCH   7  10
ENDBRANCH   2   4
BRANCH   3  18
ATOM     18  C   UNL     1      36.256   3.267  15.134  0.00  0.00    +0.000 C 
BRANCH  18  19
ATOM     19  C   UNL     1      35.494   2.146  15.733  0.00  0.00    +0.000 C 
BRANCH  19  20
ATOM     20  O   UNL     1      36.215   0.958  15.749  0.00  0.00    +0.000 OA
BRANCH  20  21
ATOM     21  C   UNL     1      36.404   0.178  16.880  0.00  0.00    +0.000 A 
ATOM     22  C   UNL     1      35.704   0.414  18.044  0.00  0.00    +0.000 A 
ATOM     23  C   UNL     1      35.863  -0.337  19.183  0.00  0.00    +0.000 A 
ATOM     24  C   UNL     1      36.764  -1.383  19.183  0.00  0.00    +0.000 A 
ATOM     25  C   UNL     1      37.484  -1.646  18.028  0.00  0.00    +0.000 A 
ATOM     26  C   UNL     1      38.379  -2.698  18.055  0.00  0.00    +0.000 A 
ATOM     27  C   UNL     1      39.106  -2.970  16.904  0.00  0.00    +0.000 A 
ATOM     28  C   UNL     1      38.941  -2.210  15.761  0.00  0.00    +0.000 A 
ATOM     29  C   UNL     1      38.047  -1.184  15.786  0.00  0.00    +0.000 A 
ATOM     30  C   UNL     1      37.298  -0.872  16.902  0.00  0.00    +0.000 A 
ENDBRANCH  20  21
ENDBRANCH  19  20
ENDBRANCH  18  19
ENDBRANCH   3  18
TORSDOF 8
ENDMDL
MODEL 5
REMARK VINA RESULT:      -7.4      2.433      4.194
REMARK  Name = 
REMARK  8 active torsions:
REMARK  status: ('A' for Active; 'I' for Inactive)
REMARK    1  A    between atoms: C_2  and  C_17
REMARK    2  A    between atoms: N_3  and  C_4
REMARK    3  A    between atoms: C_4  and  C_5
REMARK    4  A    between atoms: C_5  and  O_6
REMARK    5  A    between atoms: O_6  and  C_7
REMARK    6  A    between atoms: C_20  and  C_21
REMARK    7  A    between atoms: C_21  and  S_22
REMARK    8  A    between atoms: S_22  and  C_23
REMARK                            x       y       z     vdW  Elec       q    Type
REMARK                         _______ _______ _______ _____ _____    ______ ____
ROOT
ATOM      1  O   UNL     1      39.145   2.799  15.319  0.00  0.00    +0.000 OA
ATOM      2  C   UNL     1      39.069   4.033  15.320  0.00  0.00    +0.000 C 
ATOM      3  N   UNL     1      38.693   4.700  14.145  0.00  0.00    +0.000 NA
ENDROOT
BRANCH   2   4
ATOM      4  C   UNL     1      39.362   4.841  16.524  0.00  0.00    +0.000 A 
ATOM      5  C   UNL     1      38.660   4.674  17.699  0.00  0.00    +0.000 A 
ATOM      6  C   UNL     1      38.941   5.433  18.824  0.00  0.00    +0.000 A 
ATOM      7  C   UNL     1      39.939   6.383  18.805  0.00  0.00    +0.000 A 
ATOM      8  C   UNL     1      40.643   6.552  17.631  0.00  0.00    +0.000 A 
ATOM      9  C   UNL     1      40.357   5.790  16.509  0.00  0.00    +0.000 A 
BRANCH   7  10
ATOM     10  C   UNL     1      40.289   7.224  19.989  0.00  0.00    +0.000 C 
BRANCH  10  11
ATOM     11  S   UNL     1      41.741   8.267  19.605  0.00  0.00    +0.000 S 
BRANCH  11  12
ATOM     12  C   UNL     1      43.199   7.601  20.447  0.00  0.00    +0.000 C 
ATOM     13  C   UNL     1      43.567   8.530  21.560  0.00  0.00    +0.000 C 
ATOM     14  C   UNL     1      44.548   7.915  22.531  0.00  0.00    +0.000 C 
ATOM     15  C   UNL     1      43.950   6.616  23.029  0.00  0.00    +0.000 C 
ATOM     16  C   UNL     1      43.944   5.658  21.834  0.00  0.00    +0.000 C 
ATOM     17  C   UNL     1      42.911   6.199  20.869  0.00  0.00    +0.000 C 
ENDBRANCH  11  12
ENDBRANCH  10  11
ENDBRANCH   7  10
ENDBRANCH   2   4
BRANCH   3  18
ATOM     18  C   UNL     1      38.376   4.148  12.889  0.00  0.00    +0.000 C 
BRANCH  18  19
ATOM     19  C   UNL     1      36.982   3.706  12.647  0.00  0.00    +0.000 C 
BRANCH  19  20
ATOM     20  O   UNL     1      36.753   2.403  13.070  0.00  0.00    +0.000 OA
BRANCH  20  21
ATOM     21  C   UNL     1      36.112   2.070  14.255  0.00  0.00    +0.000 A 
ATOM     22  C   UNL     1      35.427   3.012  14.992  0.00  0.00    +0.000 A 
ATOM     23  C   UNL     1      34.779   2.720  16.168  0.00  0.00    +0.000 A 
ATOM     24  C   UNL     1      34.805   1.427  16.652  0.00  0.00    +0.000 A 
ATOM     25  C   UNL     1      35.486   0.457  15.934  0.00  0.00    +0.000 A 
ATOM     26  C   UNL     1      35.497  -0.828  16.440  0.00  0.00    +0.000 A 
ATOM     27  C   UNL     1      36.177  -1.807  15.729  0.00  0.00    +0.000 A 
ATOM     28  C   UNL     1      36.827  -1.507  14.546  0.00  0.00    +0.000 A 
ATOM     29  C   UNL     1      36.787  -0.226  14.089  0.00  0.00    +0.000 A 
ATOM     30  C   UNL     1      36.125   0.785  14.756  0.00  0.00    +0.000 A 
ENDBRANCH  20  21
ENDBRANCH  19  20
ENDBRANCH  18  19
ENDBRANCH   3  18
TORSDOF 8
ENDMDL
MODEL 6
REMARK VINA RESULT:      -7.4      2.987     10.087
REMARK  Name = 
REMARK  8 active torsions:
REMARK  status: ('A' for Active; 'I' for Inactive)
REMARK    1  A    between atoms: C_2  and  C_17
REMARK    2  A    between atoms: N_3  and  C_4
REMARK    3  A    between atoms: C_4  and  C_5
REMARK    4  A    between atoms: C_5  and  O_6
REMARK    5  A    between atoms: O_6  and  C_7
REMARK    6  A    between atoms: C_20  and  C_21
REMARK    7  A    between atoms: C_21  and  S_22
REMARK    8  A    between atoms: S_22  and  C_23
REMARK                            x       y       z     vdW  Elec       q    Type
REMARK                         _______ _______ _______ _____ _____    ______ ____
ROOT
ATOM      1  O   UNL     1      36.665   4.278  15.291  0.00  0.00    +0.000 OA
ATOM      2  C   UNL     1      37.128   3.407  16.036  0.00  0.00    +0.000 C 
ATOM      3  N   UNL     1      38.189   3.729  16.895  0.00  0.00    +0.000 NA
ENDROOT
BRANCH   2   4
ATOM      4  C   UNL     1      36.603   2.024  16.056  0.00  0.00    +0.000 A 
ATOM      5  C   UNL     1      36.576   1.242  14.922  0.00  0.00    +0.000 A 
ATOM      6  C   UNL     1      36.085  -0.053  14.946  0.00  0.00    +0.000 A 
ATOM      7  C   UNL     1      35.605  -0.605  16.115  0.00  0.00    +0.000 A 
ATOM      8  C   UNL     1      35.632   0.175  17.252  0.00  0.00    +0.000 A 
ATOM      9  C   UNL     1      36.124   1.470  17.220  0.00  0.00    +0.000 A 
BRANCH   7  10
ATOM     10  C   UNL     1      35.071  -1.998  16.202  0.00  0.00    +0.000 C 
BRANCH  10  11
ATOM     11  S   UNL     1      36.307  -3.091  16.988  0.00  0.00    +0.000 S 
BRANCH  11  12
ATOM     12  C   UNL     1      37.698  -3.337  15.856  0.00  0.00    +0.000 C 
ATOM     13  C   UNL     1      37.173  -3.336  14.455  0.00  0.00    +0.000 C 
ATOM     14  C   UNL     1      38.268  -3.196  13.424  0.00  0.00    +0.000 C 
ATOM     15  C   UNL     1      39.054  -1.944  13.753  0.00  0.00    +0.000 C 
ATOM     16  C   UNL     1      39.797  -2.233  15.061  0.00  0.00    +0.000 C 
ATOM     17  C   UNL     1      38.736  -2.303  16.139  0.00  0.00    +0.000 C 
ENDBRANCH  11  12
ENDBRANCH  10  11
ENDBRANCH   7  10
ENDBRANCH   2   4
BRANCH   3  18
ATOM     18  C   UNL     1      38.850   4.964  17.045  0.00  0.00    +0.000 C 
BRANCH  18  19
ATOM     19  C   UNL     1      38.394   5.880  18.118  0.00  0.00    +0.000 C 
BRANCH  19  20
ATOM     20  O   UNL     1      39.188   5.808  19.256  0.00  0.00    +0.000 OA
BRANCH  20  21
ATOM     21  C   UNL     1      40.159   6.741  19.588  0.00  0.00    +0.000 A 
ATOM     22  C   UNL     1      41.502   6.464  19.450  0.00  0.00    +0.000 A 
ATOM     23  C   UNL     1      42.492   7.362  19.767  0.00  0.00    +0.000 A 
ATOM     24  C   UNL     1      42.144   8.609  20.250  0.00  0.00    +0.000 A 
ATOM     25  C   UNL     1      40.802   8.918  20.400  0.00  0.00    +0.000 A 
ATOM     26  C   UNL     1      40.482  10.171  20.886  0.00  0.00    +0.000 A 
ATOM     27  C   UNL     1      39.140  10.490  21.041  0.00  0.00    +0.000 A 
ATOM     28  C   UNL     1      38.149   9.582  20.721  0.00  0.00    +0.000 A 
ATOM     29  C   UNL     1      38.516   8.360  20.246  0.00  0.00    +0.000 A 
ATOM     30  C   UNL     1      39.834   7.991  20.072  0.00  0.00    +0.000 A 
ENDBRANCH  20  21
ENDBRANCH  19  20
ENDBRANCH  18  19
ENDBRANCH   3  18
TORSDOF 8
ENDMDL
MODEL 7
REMARK VINA RESULT:      -7.3      2.596      4.315
REMARK  Name = 
REMARK  8 active torsions:
REMARK  status: ('A' for Active; 'I' for Inactive)
REMARK    1  A    between atoms: C_2  and  C_17
REMARK    2  A    between atoms: N_3  and  C_4
REMARK    3  A    between atoms: C_4  and  C_5
REMARK    4  A    between atoms: C_5  and  O_6
REMARK    5  A    between atoms: O_6  and  C_7
REMARK    6  A    between atoms: C_20  and  C_21
REMARK    7  A    between atoms: C_21  and  S_22
REMARK    8  A    between atoms: S_22  and  C_23
REMARK                            x       y       z     vdW  Elec       q    Type
REMARK                         _______ _______ _______ _____ _____    ______ ____
ROOT
ATOM      1  O   UNL     1      38.874   5.772  14.927  0.00  0.00    +0.000 OA
ATOM      2  C   UNL     1      38.820   5.229  16.036  0.00  0.00    +0.000 C 
ATOM      3  N   UNL     1      37.946   4.150  16.232  0.00  0.00    +0.000 NA
ENDROOT
BRANCH   2   4
ATOM      4  C   UNL     1      39.648   5.679  17.176  0.00  0.00    +0.000 A 
ATOM      5  C   UNL     1      40.959   6.071  17.011  0.00  0.00    +0.000 A 
ATOM      6  C   UNL     1      41.729   6.493  18.082  0.00  0.00    +0.000 A 
ATOM      7  C   UNL     1      41.205   6.537  19.356  0.00  0.00    +0.000 A 
ATOM      8  C   UNL     1      39.893   6.146  19.525  0.00  0.00    +0.000 A 
ATOM      9  C   UNL     1      39.128   5.724  18.448  0.00  0.00    +0.000 A 
BRANCH   7  10
ATOM     10  C   UNL     1      41.987   6.990  20.546  0.00  0.00    +0.000 C 
BRANCH  10  11
ATOM     11  S   UNL     1      43.662   7.510  20.030  0.00  0.00    +0.000 S 
BRANCH  11  12
ATOM     12  C   UNL     1      44.892   6.717  21.096  0.00  0.00    +0.000 C 
ATOM     13  C   UNL     1      44.172   5.941  22.152  0.00  0.00    +0.000 C 
ATOM     14  C   UNL     1      45.076   4.977  22.885  0.00  0.00    +0.000 C 
ATOM     15  C   UNL     1      45.732   4.085  21.852  0.00  0.00    +0.000 C 
ATOM     16  C   UNL     1      46.690   4.979  21.058  0.00  0.00    +0.000 C 
ATOM     17  C   UNL     1      45.817   5.911  20.246  0.00  0.00    +0.000 C 
ENDBRANCH  11  12
ENDBRANCH  10  11
ENDBRANCH   7  10
ENDBRANCH   2   4
BRANCH   3  18
ATOM     18  C   UNL     1      37.065   3.557  15.306  0.00  0.00    +0.000 C 
BRANCH  18  19
ATOM     19  C   UNL     1      36.095   2.552  15.803  0.00  0.00    +0.000 C 
BRANCH  19  20
ATOM     20  O   UNL     1      36.709   1.378  16.222  0.00  0.00    +0.000 OA
BRANCH  20  21
ATOM     21  C   UNL     1      36.055   0.162  16.355  0.00  0.00    +0.000 A 
ATOM     22  C   UNL     1      35.059  -0.022  17.291  0.00  0.00    +0.000 A 
ATOM     23  C   UNL     1      34.389  -1.210  17.452  0.00  0.00    +0.000 A 
ATOM     24  C   UNL     1      34.713  -2.284  16.647  0.00  0.00    +0.000 A 
ATOM     25  C   UNL     1      35.710  -2.131  15.696  0.00  0.00    +0.000 A 
ATOM     26  C   UNL     1      36.015  -3.221  14.904  0.00  0.00    +0.000 A 
ATOM     27  C   UNL     1      37.013  -3.079  13.950  0.00  0.00    +0.000 A 
ATOM     28  C   UNL     1      37.684  -1.881  13.793  0.00  0.00    +0.000 A 
ATOM     29  C   UNL     1      37.346  -0.836  14.598  0.00  0.00    +0.000 A 
ATOM     30  C   UNL     1      36.363  -0.923  15.562  0.00  0.00    +0.000 A 
ENDBRANCH  20  21
ENDBRANCH  19  20
ENDBRANCH  18  19
ENDBRANCH   3  18
TORSDOF 8
ENDMDL
MODEL 8
REMARK VINA RESULT:      -7.3      2.623      4.635
REMARK  Name = 
REMARK  8 active torsions:
REMARK  status: ('A' for Active; 'I' for Inactive)
REMARK    1  A    between atoms: C_2  and  C_17
REMARK    2  A    between atoms: N_3  and  C_4
REMARK    3  A    between atoms: C_4  and  C_5
REMARK    4  A    between atoms: C_5  and  O_6
REMARK    5  A    between atoms: O_6  and  C_7
REMARK    6  A    between atoms: C_20  and  C_21
REMARK    7  A    between atoms: C_21  and  S_22
REMARK    8  A    between atoms: S_22  and  C_23
REMARK                            x       y       z     vdW  Elec       q    Type
REMARK                         _______ _______ _______ _____ _____    ______ ____
ROOT
ATOM      1  O   UNL     1      38.627   5.816  15.102  0.00  0.00    +0.000 OA
ATOM      2  C   UNL     1      38.869   5.136  16.106  0.00  0.00    +0.000 C 
ATOM      3  N   UNL     1      38.322   3.849  16.214  0.00  0.00    +0.000 NA
ENDROOT
BRANCH   2   4
ATOM      4  C   UNL     1      39.721   5.633  17.209  0.00  0.00    +0.000 A 
ATOM      5  C   UNL     1      40.995   6.107  16.985  0.00  0.00    +0.000 A 
ATOM      6  C   UNL     1      41.788   6.572  18.021  0.00  0.00    +0.000 A 
ATOM      7  C   UNL     1      41.323   6.578  19.319  0.00  0.00    +0.000 A 
ATOM      8  C   UNL     1      40.047   6.105  19.546  0.00  0.00    +0.000 A 
ATOM      9  C   UNL     1      39.260   5.640  18.505  0.00  0.00    +0.000 A 
BRANCH   7  10
ATOM     10  C   UNL     1      42.130   7.075  20.474  0.00  0.00    +0.000 C 
BRANCH  10  11
ATOM     11  S   UNL     1      43.842   7.423  19.934  0.00  0.00    +0.000 S 
BRANCH  11  12
ATOM     12  C   UNL     1      45.003   6.557  21.020  0.00  0.00    +0.000 C 
ATOM     13  C   UNL     1      44.230   5.597  21.868  0.00  0.00    +0.000 C 
ATOM     14  C   UNL     1      45.117   4.591  22.564  0.00  0.00    +0.000 C 
ATOM     15  C   UNL     1      45.946   3.897  21.505  0.00  0.00    +0.000 C 
ATOM     16  C   UNL     1      46.917   4.948  20.959  0.00  0.00    +0.000 C 
ATOM     17  C   UNL     1      46.072   5.936  20.184  0.00  0.00    +0.000 C 
ENDBRANCH  11  12
ENDBRANCH  10  11
ENDBRANCH   7  10
ENDBRANCH   2   4
BRANCH   3  18
ATOM     18  C   UNL     1      37.486   3.174  15.304  0.00  0.00    +0.000 C 
BRANCH  18  19
ATOM     19  C   UNL     1      38.118   2.348  14.247  0.00  0.00    +0.000 C 
BRANCH  19  20
ATOM     20  O   UNL     1      37.561   1.079  14.155  0.00  0.00    +0.000 OA
BRANCH  20  21
ATOM     21  C   UNL     1      37.846   0.039  15.027  0.00  0.00    +0.000 A 
ATOM     22  C   UNL     1      39.064  -0.606  15.006  0.00  0.00    +0.000 A 
ATOM     23  C   UNL     1      39.382  -1.640  15.853  0.00  0.00    +0.000 A 
ATOM     24  C   UNL     1      38.451  -2.066  16.779  0.00  0.00    +0.000 A 
ATOM     25  C   UNL     1      37.217  -1.438  16.826  0.00  0.00    +0.000 A 
ATOM     26  C   UNL     1      36.303  -1.885  17.761  0.00  0.00    +0.000 A 
ATOM     27  C   UNL     1      35.064  -1.262  17.815  0.00  0.00    +0.000 A 
ATOM     28  C   UNL     1      34.749  -0.224  16.959  0.00  0.00    +0.000 A 
ATOM     29  C   UNL     1      35.684   0.179  16.056  0.00  0.00    +0.000 A 
ATOM     30  C   UNL     1      36.930  -0.403  15.959  0.00  0.00    +0.000 A 
ENDBRANCH  20  21
ENDBRANCH  19  20
ENDBRANCH  18  19
ENDBRANCH   3  18
TORSDOF 8
ENDMDL
MODEL 9
REMARK VINA RESULT:      -7.0      2.991      9.659
REMARK  Name = 
REMARK  8 active torsions:
REMARK  status: ('A' for Active; 'I' for Inactive)
REMARK    1  A    between atoms: C_2  and  C_17
REMARK    2  A    between atoms: N_3  and  C_4
REMARK    3  A    between atoms: C_4  and  C_5
REMARK    4  A    between atoms: C_5  and  O_6
REMARK    5  A    between atoms: O_6  and  C_7
REMARK    6  A    between atoms: C_20  and  C_21
REMARK    7  A    between atoms: C_21  and  S_22
REMARK    8  A    between atoms: S_22  and  C_23
REMARK                            x       y       z     vdW  Elec       q    Type
REMARK                         _______ _______ _______ _____ _____    ______ ____
ROOT
ATOM      1  O   UNL     1      37.126   4.351  14.911  0.00  0.00    +0.000 OA
ATOM      2  C   UNL     1      37.833   3.471  15.417  0.00  0.00    +0.000 C 
ATOM      3  N   UNL     1      38.819   3.832  16.346  0.00  0.00    +0.000 NA
ENDROOT
BRANCH   2   4
ATOM      4  C   UNL     1      37.678   2.040  15.075  0.00  0.00    +0.000 A 
ATOM      5  C   UNL     1      38.761   1.247  14.763  0.00  0.00    +0.000 A 
ATOM      6  C   UNL     1      38.610  -0.093  14.446  0.00  0.00    +0.000 A 
ATOM      7  C   UNL     1      37.364  -0.680  14.433  0.00  0.00    +0.000 A 
ATOM      8  C   UNL     1      36.277   0.111  14.745  0.00  0.00    +0.000 A 
ATOM      9  C   UNL     1      36.435   1.451  15.061  0.00  0.00    +0.000 A 
BRANCH   7  10
ATOM     10  C   UNL     1      37.143  -2.121  14.105  0.00  0.00    +0.000 C 
BRANCH  10  11
ATOM     11  S   UNL     1      35.826  -2.807  15.172  0.00  0.00    +0.000 S 
BRANCH  11  12
ATOM     12  C   UNL     1      36.490  -3.109  16.829  0.00  0.00    +0.000 C 
ATOM     13  C   UNL     1      37.953  -3.401  16.705  0.00  0.00    +0.000 C 
ATOM     14  C   UNL     1      38.673  -3.336  18.031  0.00  0.00    +0.000 C 
ATOM     15  C   UNL     1      38.401  -1.976  18.637  0.00  0.00    +0.000 C 
ATOM     16  C   UNL     1      36.915  -1.959  19.009  0.00  0.00    +0.000 C 
ATOM     17  C   UNL     1      36.155  -1.944  17.700  0.00  0.00    +0.000 C 
ENDBRANCH  11  12
ENDBRANCH  10  11
ENDBRANCH   7  10
ENDBRANCH   2   4
BRANCH   3  18
ATOM     18  C   UNL     1      39.151   5.117  16.817  0.00  0.00    +0.000 C 
BRANCH  18  19
ATOM     19  C   UNL     1      38.359   5.684  17.934  0.00  0.00    +0.000 C 
BRANCH  19  20
ATOM     20  O   UNL     1      39.104   5.832  19.097  0.00  0.00    +0.000 OA
BRANCH  20  21
ATOM     21  C   UNL     1      39.496   7.056  19.619  0.00  0.00    +0.000 A 
ATOM     22  C   UNL     1      38.573   8.009  19.993  0.00  0.00    +0.000 A 
ATOM     23  C   UNL     1      38.923   9.231  20.514  0.00  0.00    +0.000 A 
ATOM     24  C   UNL     1      40.259   9.539  20.679  0.00  0.00    +0.000 A 
ATOM     25  C   UNL     1      41.212   8.601  20.312  0.00  0.00    +0.000 A 
ATOM     26  C   UNL     1      42.541   8.934  20.487  0.00  0.00    +0.000 A 
ATOM     27  C   UNL     1      43.503   8.003  20.123  0.00  0.00    +0.000 A 
ATOM     28  C   UNL     1      43.145   6.775  19.598  0.00  0.00    +0.000 A 
ATOM     29  C   UNL     1      41.822   6.495  19.446  0.00  0.00    +0.000 A 
ATOM     30  C   UNL     1      40.825   7.383  19.792  0.00  0.00    +0.000 A 
ENDBRANCH  20  21
ENDBRANCH  19  20
ENDBRANCH  18  19
ENDBRANCH   3  18
TORSDOF 8
ENDMDL
MODEL 10
REMARK VINA RESULT:      -6.8      2.211      3.816
REMARK  Name = 
REMARK  8 active torsions:
REMARK  status: ('A' for Active; 'I' for Inactive)
REMARK    1  A    between atoms: C_2  and  C_17
REMARK    2  A    between atoms: N_3  and  C_4
REMARK    3  A    between atoms: C_4  and  C_5
REMARK    4  A    between atoms: C_5  and  O_6
REMARK    5  A    between atoms: O_6  and  C_7
REMARK    6  A    between atoms: C_20  and  C_21
REMARK    7  A    between atoms: C_21  and  S_22
REMARK    8  A    between atoms: S_22  and  C_23
REMARK                            x       y       z     vdW  Elec       q    Type
REMARK                         _______ _______ _______ _____ _____    ______ ____
ROOT
ATOM      1  O   UNL     1      38.697   2.830  15.783  0.00  0.00    +0.000 OA
ATOM      2  C   UNL     1      38.968   3.651  14.900  0.00  0.00    +0.000 C 
ATOM      3  N   UNL     1      39.014   3.234  13.562  0.00  0.00    +0.000 NA
ENDROOT
BRANCH   2   4
ATOM      4  C   UNL     1      39.251   5.071  15.204  0.00  0.00    +0.000 A 
ATOM      5  C   UNL     1      40.472   5.645  14.922  0.00  0.00    +0.000 A 
ATOM      6  C   UNL     1      40.730   6.975  15.206  0.00  0.00    +0.000 A 
ATOM      7  C   UNL     1      39.767   7.775  15.783  0.00  0.00    +0.000 A 
ATOM      8  C   UNL     1      38.543   7.204  16.066  0.00  0.00    +0.000 A 
ATOM      9  C   UNL     1      38.292   5.872  15.779  0.00  0.00    +0.000 A 
BRANCH   7  10
ATOM     10  C   UNL     1      39.988   9.217  16.105  0.00  0.00    +0.000 C 
BRANCH  10  11
ATOM     11  S   UNL     1      41.534   9.412  17.061  0.00  0.00    +0.000 S 
BRANCH  11  12
ATOM     12  C   UNL     1      41.356   8.594  18.666  0.00  0.00    +0.000 C 
ATOM     13  C   UNL     1      39.921   8.678  19.083  0.00  0.00    +0.000 C 
ATOM     14  C   UNL     1      39.592   7.749  20.228  0.00  0.00    +0.000 C 
ATOM     15  C   UNL     1      39.998   6.350  19.816  0.00  0.00    +0.000 C 
ATOM     16  C   UNL     1      41.529   6.347  19.751  0.00  0.00    +0.000 C 
ATOM     17  C   UNL     1      41.899   7.208  18.562  0.00  0.00    +0.000 C 
ENDBRANCH  11  12
ENDBRANCH  10  11
ENDBRANCH   7  10
ENDBRANCH   2   4
BRANCH   3  18
ATOM     18  C   UNL     1      38.790   1.946  13.039  0.00  0.00    +0.000 C 
BRANCH  18  19
ATOM     19  C   UNL     1      37.540   1.703  12.278  0.00  0.00    +0.000 C 
BRANCH  19  20
ATOM     20  O   UNL     1      36.644   0.895  12.967  0.00  0.00    +0.000 OA
BRANCH  20  21
ATOM     21  C   UNL     1      36.030   1.254  14.158  0.00  0.00    +0.000 A 
ATOM     22  C   UNL     1      35.524   2.521  14.355  0.00  0.00    +0.000 A 
ATOM     23  C   UNL     1      34.909   2.912  15.520  0.00  0.00    +0.000 A 
ATOM     24  C   UNL     1      34.782   2.006  16.555  0.00  0.00    +0.000 A 
ATOM     25  C   UNL     1      35.281   0.724  16.387  0.00  0.00    +0.000 A 
ATOM     26  C   UNL     1      35.141  -0.162  17.438  0.00  0.00    +0.000 A 
ATOM     27  C   UNL     1      35.638  -1.448  17.281  0.00  0.00    +0.000 A 
ATOM     28  C   UNL     1      36.256  -1.836  16.106  0.00  0.00    +0.000 A 
ATOM     29  C   UNL     1      36.369  -0.926  15.101  0.00  0.00    +0.000 A 
ATOM     30  C   UNL     1      35.892   0.365  15.204  0.00  0.00    +0.000 A 
ENDBRANCH  20  21
ENDBRANCH  19  20
ENDBRANCH  18  19
ENDBRANCH   3  18
TORSDOF 8
ENDMDL
