MODEL 1
REMARK VINA RESULT:      -8.9      0.000      0.000
REMARK  Name = 
REMARK  2 active torsions:
REMARK  status: ('A' for Active; 'I' for Inactive)
REMARK    1  A    between atoms: C_2  and  C_4
REMARK    2  A    between atoms: C_9  and  C_10
REMARK                            x       y       z     vdW  Elec       q    Type
REMARK                         _______ _______ _______ _____ _____    ______ ____
ROOT
ATOM      1  C   UNL     1      14.335  12.693  34.684  0.00  0.00    +0.000 A 
ATOM      2  C   UNL     1      13.663  13.925  34.669  0.00  0.00    +0.000 A 
ATOM      3  C   UNL     1      13.421  14.637  33.525  0.00  0.00    +0.000 A 
ATOM      4  C   UNL     1      13.846  14.146  32.309  0.00  0.00    +0.000 A 
ATOM      5  F   UNL     1      13.616  14.837  31.168  0.00  0.00    +0.000 F 
ATOM      6  C   UNL     1      14.508  12.938  32.314  0.00  0.00    +0.000 A 
ATOM      7  C   UNL     1      14.970  12.439  31.123  0.00  0.00    +0.000 A 
ATOM      8  C   UNL     1      15.660  11.252  31.089  0.00  0.00    +0.000 A 
ATOM      9  C   UNL     1      15.906  10.530  32.256  0.00  0.00    +0.000 A 
ATOM     10  C   UNL     1      15.445  11.030  33.434  0.00  0.00    +0.000 A 
ATOM     11  C   UNL     1      14.755  12.210  33.496  0.00  0.00    +0.000 A 
ENDROOT
BRANCH   1  17
ATOM     12  C   UNL     1      15.666  11.811  36.703  0.00  0.00    +0.000 A 
ATOM     13  N   UNL     1      15.282  11.259  37.895  0.00  0.00    +0.000 NA
ATOM     14  C   UNL     1      13.958  11.212  37.912  0.00  0.00    +0.000 A 
ATOM     15  N   UNL     1      13.185  10.688  39.012  0.00  0.00    +0.000 NA
ATOM     16  O   UNL     1      13.544  11.706  36.800  0.00  0.00    +0.000 OA
ATOM     17  C   UNL     1      14.556  12.103  35.997  0.00  0.00    +0.000 A 
BRANCH  12  19
ATOM     18  C   UNL     1      17.852  12.795  37.290  0.00  0.00    +0.000 C 
ATOM     19  C   UNL     1      17.081  11.949  36.278  0.00  0.00    +0.000 C 
ATOM     20  C   UNL     1      17.719  10.546  36.245  0.00  0.00    +0.000 C 
ENDBRANCH  12  19
ENDBRANCH   1  17
TORSDOF 2
ENDMDL
MODEL 2
REMARK VINA RESULT:      -7.4     17.714     18.741
REMARK  Name = 
REMARK  2 active torsions:
REMARK  status: ('A' for Active; 'I' for Inactive)
REMARK    1  A    between atoms: C_2  and  C_4
REMARK    2  A    between atoms: C_9  and  C_10
REMARK                            x       y       z     vdW  Elec       q    Type
REMARK                         _______ _______ _______ _____ _____    ______ ____
ROOT
ATOM      1  C   UNL     1      28.391  22.808  27.376  0.00  0.00    +0.000 A 
ATOM      2  C   UNL     1      29.724  22.515  27.707  0.00  0.00    +0.000 A 
ATOM      3  C   UNL     1      30.721  22.393  26.777  0.00  0.00    +0.000 A 
ATOM      4  C   UNL     1      30.434  22.561  25.439  0.00  0.00    +0.000 A 
ATOM      5  F   UNL     1      31.407  22.444  24.505  0.00  0.00    +0.000 F 
ATOM      6  C   UNL     1      29.129  22.847  25.104  0.00  0.00    +0.000 A 
ATOM      7  C   UNL     1      28.808  22.990  23.780  0.00  0.00    +0.000 A 
ATOM      8  C   UNL     1      27.512  23.247  23.403  0.00  0.00    +0.000 A 
ATOM      9  C   UNL     1      26.498  23.368  24.353  0.00  0.00    +0.000 A 
ATOM     10  C   UNL     1      26.824  23.227  25.666  0.00  0.00    +0.000 A 
ATOM     11  C   UNL     1      28.106  22.971  26.068  0.00  0.00    +0.000 A 
ENDROOT
BRANCH   1  17
ATOM     12  C   UNL     1      26.697  23.820  29.029  0.00  0.00    +0.000 A 
ATOM     13  N   UNL     1      25.992  23.287  30.075  0.00  0.00    +0.000 NA
ATOM     14  C   UNL     1      26.316  22.006  30.171  0.00  0.00    +0.000 A 
ATOM     15  N   UNL     1      25.771  21.110  31.162  0.00  0.00    +0.000 NA
ATOM     16  O   UNL     1      27.168  21.757  29.241  0.00  0.00    +0.000 OA
ATOM     17  C   UNL     1      27.451  22.843  28.489  0.00  0.00    +0.000 A 
BRANCH  12  19
ATOM     18  C   UNL     1      25.252  25.665  28.254  0.00  0.00    +0.000 C 
ATOM     19  C   UNL     1      26.666  25.258  28.664  0.00  0.00    +0.000 C 
ATOM     20  C   UNL     1      27.059  26.084  29.906  0.00  0.00    +0.000 C 
ENDBRANCH  12  19
ENDBRANCH   1  17
TORSDOF 2
ENDMDL
MODEL 3
REMARK VINA RESULT:      -7.2      3.170      5.038
REMARK  Name = 
REMARK  2 active torsions:
REMARK  status: ('A' for Active; 'I' for Inactive)
REMARK    1  A    between atoms: C_2  and  C_4
REMARK    2  A    between atoms: C_9  and  C_10
REMARK                            x       y       z     vdW  Elec       q    Type
REMARK                         _______ _______ _______ _____ _____    ______ ____
ROOT
ATOM      1  C   UNL     1      15.557  11.413  36.528  0.00  0.00    +0.000 A 
ATOM      2  C   UNL     1      15.919  11.144  37.858  0.00  0.00    +0.000 A 
ATOM      3  C   UNL     1      16.994  10.372  38.205  0.00  0.00    +0.000 A 
ATOM      4  C   UNL     1      17.783   9.815  37.221  0.00  0.00    +0.000 A 
ATOM      5  F   UNL     1      18.851   9.048  37.546  0.00  0.00    +0.000 F 
ATOM      6  C   UNL     1      17.436  10.071  35.913  0.00  0.00    +0.000 A 
ATOM      7  C   UNL     1      18.184   9.505  34.913  0.00  0.00    +0.000 A 
ATOM      8  C   UNL     1      17.853   9.713  33.596  0.00  0.00    +0.000 A 
ATOM      9  C   UNL     1      16.755  10.498  33.246  0.00  0.00    +0.000 A 
ATOM     10  C   UNL     1      16.018  11.057  34.244  0.00  0.00    +0.000 A 
ATOM     11  C   UNL     1      16.326  10.867  35.563  0.00  0.00    +0.000 A 
ENDROOT
BRANCH   1  17
ATOM     12  C   UNL     1      13.072  12.048  36.740  0.00  0.00    +0.000 A 
ATOM     13  N   UNL     1      12.345  13.112  36.278  0.00  0.00    +0.000 NA
ATOM     14  C   UNL     1      13.168  13.904  35.607  0.00  0.00    +0.000 A 
ATOM     15  N   UNL     1      12.763  15.132  34.968  0.00  0.00    +0.000 NA
ATOM     16  O   UNL     1      14.336  13.366  35.650  0.00  0.00    +0.000 OA
ATOM     17  C   UNL     1      14.349  12.206  36.343  0.00  0.00    +0.000 A 
BRANCH  12  19
ATOM     18  C   UNL     1      12.945  10.896  38.920  0.00  0.00    +0.000 C 
ATOM     19  C   UNL     1      12.476  10.898  37.466  0.00  0.00    +0.000 C 
ATOM     20  C   UNL     1      10.943  11.060  37.459  0.00  0.00    +0.000 C 
ENDBRANCH  12  19
ENDBRANCH   1  17
TORSDOF 2
ENDMDL
MODEL 4
REMARK VINA RESULT:      -7.1      2.969      4.709
REMARK  Name = 
REMARK  2 active torsions:
REMARK  status: ('A' for Active; 'I' for Inactive)
REMARK    1  A    between atoms: C_2  and  C_4
REMARK    2  A    between atoms: C_9  and  C_10
REMARK                            x       y       z     vdW  Elec       q    Type
REMARK                         _______ _______ _______ _____ _____    ______ ____
ROOT
ATOM      1  C   UNL     1      17.624  10.394  36.692  0.00  0.00    +0.000 A 
ATOM      2  C   UNL     1      18.313   9.657  35.715  0.00  0.00    +0.000 A 
ATOM      3  C   UNL     1      17.965   9.652  34.391  0.00  0.00    +0.000 A 
ATOM      4  C   UNL     1      16.888  10.398  33.963  0.00  0.00    +0.000 A 
ATOM      5  F   UNL     1      16.529  10.405  32.657  0.00  0.00    +0.000 F 
ATOM      6  C   UNL     1      16.205  11.123  34.914  0.00  0.00    +0.000 A 
ATOM      7  C   UNL     1      15.111  11.851  34.522  0.00  0.00    +0.000 A 
ATOM      8  C   UNL     1      14.386  12.565  35.445  0.00  0.00    +0.000 A 
ATOM      9  C   UNL     1      14.742  12.567  36.794  0.00  0.00    +0.000 A 
ATOM     10  C   UNL     1      15.829  11.843  37.175  0.00  0.00    +0.000 A 
ATOM     11  C   UNL     1      16.568  11.124  36.276  0.00  0.00    +0.000 A 
ENDROOT
BRANCH   1  17
ATOM     12  C   UNL     1      19.074  10.831  38.773  0.00  0.00    +0.000 A 
ATOM     13  N   UNL     1      19.078  10.286  40.030  0.00  0.00    +0.000 NA
ATOM     14  C   UNL     1      18.121   9.372  40.078  0.00  0.00    +0.000 A 
ATOM     15  N   UNL     1      17.821   8.581  41.247  0.00  0.00    +0.000 NA
ATOM     16  O   UNL     1      17.554   9.351  38.924  0.00  0.00    +0.000 OA
ATOM     17  C   UNL     1      18.097  10.237  38.061  0.00  0.00    +0.000 A 
BRANCH  12  19
ATOM     18  C   UNL     1      19.379  13.174  38.060  0.00  0.00    +0.000 C 
ATOM     19  C   UNL     1      20.065  11.832  38.308  0.00  0.00    +0.000 C 
ATOM     20  C   UNL     1      21.115  12.031  39.419  0.00  0.00    +0.000 C 
ENDBRANCH  12  19
ENDBRANCH   1  17
TORSDOF 2
ENDMDL
MODEL 5
REMARK VINA RESULT:      -7.0     20.851     22.611
REMARK  Name = 
REMARK  2 active torsions:
REMARK  status: ('A' for Active; 'I' for Inactive)
REMARK    1  A    between atoms: C_2  and  C_4
REMARK    2  A    between atoms: C_9  and  C_10
REMARK                            x       y       z     vdW  Elec       q    Type
REMARK                         _______ _______ _______ _____ _____    ______ ____
ROOT
ATOM      1  C   UNL     1      18.371  -8.207  27.144  0.00  0.00    +0.000 A 
ATOM      2  C   UNL     1      17.578  -7.067  27.348  0.00  0.00    +0.000 A 
ATOM      3  C   UNL     1      17.918  -5.821  26.891  0.00  0.00    +0.000 A 
ATOM      4  C   UNL     1      19.092  -5.645  26.192  0.00  0.00    +0.000 A 
ATOM      5  F   UNL     1      19.445  -4.421  25.733  0.00  0.00    +0.000 F 
ATOM      6  C   UNL     1      19.878  -6.758  25.988  0.00  0.00    +0.000 A 
ATOM      7  C   UNL     1      21.067  -6.608  25.321  0.00  0.00    +0.000 A 
ATOM      8  C   UNL     1      21.892  -7.688  25.123  0.00  0.00    +0.000 A 
ATOM      9  C   UNL     1      21.544  -8.955  25.590  0.00  0.00    +0.000 A 
ATOM     10  C   UNL     1      20.363  -9.097  26.250  0.00  0.00    +0.000 A 
ATOM     11  C   UNL     1      19.522  -8.038  26.461  0.00  0.00    +0.000 A 
ENDROOT
BRANCH   1  17
ATOM     12  C   UNL     1      18.032  -9.988  28.970  0.00  0.00    +0.000 A 
ATOM     13  N   UNL     1      17.349 -11.175  28.991  0.00  0.00    +0.000 NA
ATOM     14  C   UNL     1      16.797 -11.346  27.799  0.00  0.00    +0.000 A 
ATOM     15  N   UNL     1      15.995 -12.490  27.440  0.00  0.00    +0.000 NA
ATOM     16  O   UNL     1      17.115 -10.327  27.081  0.00  0.00    +0.000 OA
ATOM     17  C   UNL     1      17.884  -9.439  27.749  0.00  0.00    +0.000 A 
BRANCH  12  19
ATOM     18  C   UNL     1      18.373 -10.111  31.412  0.00  0.00    +0.000 C 
ATOM     19  C   UNL     1      18.857  -9.494  30.101  0.00  0.00    +0.000 C 
ATOM     20  C   UNL     1      20.315  -9.942  29.872  0.00  0.00    +0.000 C 
ENDBRANCH  12  19
ENDBRANCH   1  17
TORSDOF 2
ENDMDL
MODEL 6
REMARK VINA RESULT:      -6.9      5.747      8.584
REMARK  Name = 
REMARK  2 active torsions:
REMARK  status: ('A' for Active; 'I' for Inactive)
REMARK    1  A    between atoms: C_2  and  C_4
REMARK    2  A    between atoms: C_9  and  C_10
REMARK                            x       y       z     vdW  Elec       q    Type
REMARK                         _______ _______ _______ _____ _____    ______ ____
ROOT
ATOM      1  C   UNL     1      18.013   8.770  39.668  0.00  0.00    +0.000 A 
ATOM      2  C   UNL     1      16.953   9.617  40.028  0.00  0.00    +0.000 A 
ATOM      3  C   UNL     1      15.991   9.274  40.941  0.00  0.00    +0.000 A 
ATOM      4  C   UNL     1      16.038   8.041  41.555  0.00  0.00    +0.000 A 
ATOM      5  F   UNL     1      15.096   7.684  42.459  0.00  0.00    +0.000 F 
ATOM      6  C   UNL     1      17.074   7.201  41.206  0.00  0.00    +0.000 A 
ATOM      7  C   UNL     1      17.130   5.957  41.778  0.00  0.00    +0.000 A 
ATOM      8  C   UNL     1      18.130   5.080  41.436  0.00  0.00    +0.000 A 
ATOM      9  C   UNL     1      19.107   5.431  40.504  0.00  0.00    +0.000 A 
ATOM     10  C   UNL     1      19.046   6.668  39.942  0.00  0.00    +0.000 A 
ATOM     11  C   UNL     1      18.061   7.561  40.265  0.00  0.00    +0.000 A 
ENDROOT
BRANCH   1  17
ATOM     12  C   UNL     1      18.750   9.553  37.330  0.00  0.00    +0.000 A 
ATOM     13  N   UNL     1      19.945  10.006  36.839  0.00  0.00    +0.000 NA
ATOM     14  C   UNL     1      20.820   9.999  37.834  0.00  0.00    +0.000 A 
ATOM     15  N   UNL     1      22.196  10.412  37.699  0.00  0.00    +0.000 NA
ATOM     16  O   UNL     1      20.207   9.570  38.879  0.00  0.00    +0.000 OA
ATOM     17  C   UNL     1      18.911   9.275  38.638  0.00  0.00    +0.000 A 
BRANCH  12  19
ATOM     18  C   UNL     1      16.687  10.600  36.469  0.00  0.00    +0.000 C 
ATOM     19  C   UNL     1      17.545   9.336  36.490  0.00  0.00    +0.000 C 
ATOM     20  C   UNL     1      18.004   9.046  35.047  0.00  0.00    +0.000 C 
ENDBRANCH  12  19
ENDBRANCH   1  17
TORSDOF 2
ENDMDL
MODEL 7
REMARK VINA RESULT:      -6.9     18.013     19.351
REMARK  Name = 
REMARK  2 active torsions:
REMARK  status: ('A' for Active; 'I' for Inactive)
REMARK    1  A    between atoms: C_2  and  C_4
REMARK    2  A    between atoms: C_9  and  C_10
REMARK                            x       y       z     vdW  Elec       q    Type
REMARK                         _______ _______ _______ _____ _____    ______ ____
ROOT
ATOM      1  C   UNL     1      26.998  23.156  26.678  0.00  0.00    +0.000 A 
ATOM      2  C   UNL     1      27.855  22.240  27.309  0.00  0.00    +0.000 A 
ATOM      3  C   UNL     1      27.967  22.127  28.669  0.00  0.00    +0.000 A 
ATOM      4  C   UNL     1      27.214  22.940  29.488  0.00  0.00    +0.000 A 
ATOM      5  F   UNL     1      27.312  22.843  30.835  0.00  0.00    +0.000 F 
ATOM      6  C   UNL     1      26.371  23.843  28.878  0.00  0.00    +0.000 A 
ATOM      7  C   UNL     1      25.631  24.686  29.667  0.00  0.00    +0.000 A 
ATOM      8  C   UNL     1      24.800  25.620  29.097  0.00  0.00    +0.000 A 
ATOM      9  C   UNL     1      24.690  25.733  27.711  0.00  0.00    +0.000 A 
ATOM     10  C   UNL     1      25.426  24.893  26.934  0.00  0.00    +0.000 A 
ATOM     11  C   UNL     1      26.260  23.954  27.476  0.00  0.00    +0.000 A 
ENDROOT
BRANCH   1  17
ATOM     12  C   UNL     1      28.045  23.381  24.337  0.00  0.00    +0.000 A 
ATOM     13  N   UNL     1      27.521  23.291  23.076  0.00  0.00    +0.000 NA
ATOM     14  C   UNL     1      26.226  23.041  23.192  0.00  0.00    +0.000 A 
ATOM     15  N   UNL     1      25.333  22.879  22.070  0.00  0.00    +0.000 NA
ATOM     16  O   UNL     1      25.960  22.977  24.449  0.00  0.00    +0.000 OA
ATOM     17  C   UNL     1      27.050  23.178  25.222  0.00  0.00    +0.000 A 
BRANCH  12  19
ATOM     18  C   UNL     1      30.323  22.482  24.647  0.00  0.00    +0.000 C 
ATOM     19  C   UNL     1      29.458  23.741  24.617  0.00  0.00    +0.000 C 
ATOM     20  C   UNL     1      29.966  24.643  23.475  0.00  0.00    +0.000 C 
ENDBRANCH  12  19
ENDBRANCH   1  17
TORSDOF 2
ENDMDL
MODEL 8
REMARK VINA RESULT:      -6.8     17.631     18.668
REMARK  Name = 
REMARK  2 active torsions:
REMARK  status: ('A' for Active; 'I' for Inactive)
REMARK    1  A    between atoms: C_2  and  C_4
REMARK    2  A    between atoms: C_9  and  C_10
REMARK                            x       y       z     vdW  Elec       q    Type
REMARK                         _______ _______ _______ _____ _____    ______ ____
ROOT
ATOM      1  C   UNL     1      26.984  23.217  26.473  0.00  0.00    +0.000 A 
ATOM      2  C   UNL     1      25.988  23.492  25.523  0.00  0.00    +0.000 A 
ATOM      3  C   UNL     1      26.222  23.528  24.175  0.00  0.00    +0.000 A 
ATOM      4  C   UNL     1      27.491  23.287  23.693  0.00  0.00    +0.000 A 
ATOM      5  F   UNL     1      27.741  23.319  22.363  0.00  0.00    +0.000 F 
ATOM      6  C   UNL     1      28.476  23.018  24.617  0.00  0.00    +0.000 A 
ATOM      7  C   UNL     1      29.754  22.803  24.170  0.00  0.00    +0.000 A 
ATOM      8  C   UNL     1      30.770  22.560  25.062  0.00  0.00    +0.000 A 
ATOM      9  C   UNL     1      30.529  22.526  26.435  0.00  0.00    +0.000 A 
ATOM     10  C   UNL     1      29.258  22.738  26.872  0.00  0.00    +0.000 A 
ATOM     11  C   UNL     1      28.228  22.982  26.005  0.00  0.00    +0.000 A 
ENDROOT
BRANCH   1  17
ATOM     12  C   UNL     1      26.074  24.261  28.642  0.00  0.00    +0.000 A 
ATOM     13  N   UNL     1      25.859  23.754  29.895  0.00  0.00    +0.000 NA
ATOM     14  C   UNL     1      26.223  22.481  29.884  0.00  0.00    +0.000 A 
ATOM     15  N   UNL     1      26.143  21.610  31.032  0.00  0.00    +0.000 NA
ATOM     16  O   UNL     1      26.636  22.211  28.697  0.00  0.00    +0.000 OA
ATOM     17  C   UNL     1      26.569  23.276  27.868  0.00  0.00    +0.000 A 
BRANCH  12  19
ATOM     18  C   UNL     1      24.402  25.931  27.926  0.00  0.00    +0.000 C 
ATOM     19  C   UNL     1      25.867  25.687  28.285  0.00  0.00    +0.000 C 
ATOM     20  C   UNL     1      26.207  26.551  29.517  0.00  0.00    +0.000 C 
ENDBRANCH  12  19
ENDBRANCH   1  17
TORSDOF 2
ENDMDL
MODEL 9
REMARK VINA RESULT:      -6.8     20.149     21.651
REMARK  Name = 
REMARK  2 active torsions:
REMARK  status: ('A' for Active; 'I' for Inactive)
REMARK    1  A    between atoms: C_2  and  C_4
REMARK    2  A    between atoms: C_9  and  C_10
REMARK                            x       y       z     vdW  Elec       q    Type
REMARK                         _______ _______ _______ _____ _____    ______ ____
ROOT
ATOM      1  C   UNL     1      33.919   3.240  35.200  0.00  0.00    +0.000 A 
ATOM      2  C   UNL     1      33.853   3.601  33.844  0.00  0.00    +0.000 A 
ATOM      3  C   UNL     1      33.773   2.691  32.825  0.00  0.00    +0.000 A 
ATOM      4  C   UNL     1      33.754   1.343  33.111  0.00  0.00    +0.000 A 
ATOM      5  F   UNL     1      33.675   0.428  32.116  0.00  0.00    +0.000 F 
ATOM      6  C   UNL     1      33.820   0.978  34.437  0.00  0.00    +0.000 A 
ATOM      7  C   UNL     1      33.833  -0.357  34.751  0.00  0.00    +0.000 A 
ATOM      8  C   UNL     1      33.927  -0.762  36.060  0.00  0.00    +0.000 A 
ATOM      9  C   UNL     1      34.010   0.168  37.096  0.00  0.00    +0.000 A 
ATOM     10  C   UNL     1      33.996   1.491  36.778  0.00  0.00    +0.000 A 
ATOM     11  C   UNL     1      33.902   1.921  35.483  0.00  0.00    +0.000 A 
ENDROOT
BRANCH   1  17
ATOM     12  C   UNL     1      35.017   5.262  36.353  0.00  0.00    +0.000 A 
ATOM     13  N   UNL     1      34.624   6.062  37.392  0.00  0.00    +0.000 NA
ATOM     14  C   UNL     1      33.445   5.628  37.813  0.00  0.00    +0.000 A 
ATOM     15  N   UNL     1      32.710   6.224  38.902  0.00  0.00    +0.000 NA
ATOM     16  O   UNL     1      33.124   4.622  37.080  0.00  0.00    +0.000 OA
ATOM     17  C   UNL     1      34.058   4.338  36.146  0.00  0.00    +0.000 A 
BRANCH  12  19
ATOM     18  C   UNL     1      36.384   6.672  34.858  0.00  0.00    +0.000 C 
ATOM     19  C   UNL     1      36.332   5.382  35.675  0.00  0.00    +0.000 C 
ATOM     20  C   UNL     1      37.431   5.455  36.753  0.00  0.00    +0.000 C 
ENDBRANCH  12  19
ENDBRANCH   1  17
TORSDOF 2
ENDMDL
MODEL 10
REMARK VINA RESULT:      -6.8     19.536     20.928
REMARK  Name = 
REMARK  2 active torsions:
REMARK  status: ('A' for Active; 'I' for Inactive)
REMARK    1  A    between atoms: C_2  and  C_4
REMARK    2  A    between atoms: C_9  and  C_10
REMARK                            x       y       z     vdW  Elec       q    Type
REMARK                         _______ _______ _______ _____ _____    ______ ____
ROOT
ATOM      1  C   UNL     1      28.741  23.216  24.942  0.00  0.00    +0.000 A 
ATOM      2  C   UNL     1      30.069  22.784  24.790  0.00  0.00    +0.000 A 
ATOM      3  C   UNL     1      30.828  22.304  25.824  0.00  0.00    +0.000 A 
ATOM      4  C   UNL     1      30.290  22.228  27.091  0.00  0.00    +0.000 A 
ATOM      5  F   UNL     1      31.026  21.757  28.125  0.00  0.00    +0.000 F 
ATOM      6  C   UNL     1      28.989  22.651  27.250  0.00  0.00    +0.000 A 
ATOM      7  C   UNL     1      28.437  22.615  28.505  0.00  0.00    +0.000 A 
ATOM      8  C   UNL     1      27.151  23.054  28.710  0.00  0.00    +0.000 A 
ATOM      9  C   UNL     1      26.382  23.544  27.656  0.00  0.00    +0.000 A 
ATOM     10  C   UNL     1      26.935  23.576  26.413  0.00  0.00    +0.000 A 
ATOM     11  C   UNL     1      28.212  23.144  26.181  0.00  0.00    +0.000 A 
ENDROOT
BRANCH   1  17
ATOM     12  C   UNL     1      28.236  24.908  23.070  0.00  0.00    +0.000 A 
ATOM     13  N   UNL     1      27.376  24.881  22.005  0.00  0.00    +0.000 NA
ATOM     14  C   UNL     1      26.729  23.725  22.035  0.00  0.00    +0.000 A 
ATOM     15  N   UNL     1      25.734  23.334  21.067  0.00  0.00    +0.000 NA
ATOM     16  O   UNL     1      27.161  23.073  23.056  0.00  0.00    +0.000 OA
ATOM     17  C   UNL     1      28.104  23.750  23.746  0.00  0.00    +0.000 A 
BRANCH  12  19
ATOM     18  C   UNL     1      29.162  27.037  22.233  0.00  0.00    +0.000 C 
ATOM     19  C   UNL     1      29.073  26.082  23.422  0.00  0.00    +0.000 C 
ATOM     20  C   UNL     1      28.395  26.832  24.587  0.00  0.00    +0.000 C 
ENDBRANCH  12  19
ENDBRANCH   1  17
TORSDOF 2
ENDMDL
