MODEL 1
REMARK VINA RESULT:      -6.5      0.000      0.000
REMARK  Name = 
REMARK  2 active torsions:
REMARK  status: ('A' for Active; 'I' for Inactive)
REMARK    1  A    between atoms: C_7  and  N_8
REMARK    2  A    between atoms: C_9  and  C_11
REMARK                            x       y       z     vdW  Elec       q    Type
REMARK                         _______ _______ _______ _____ _____    ______ ____
ROOT
ATOM      1  C   UNL     1      28.734  23.206  28.462  0.00  0.00    +0.000 A 
ATOM      2  C   UNL     1      27.810  23.031  29.466  0.00  0.00    +0.000 A 
ATOM      3  N   UNL     1      26.387  23.217  29.440  0.00  0.00    +0.000 NA
ATOM      4  S   UNL     1      28.735  22.531  30.796  0.00  0.00    +0.000 S 
ATOM      5  C   UNL     1      30.278  22.548  30.068  0.00  0.00    +0.000 A 
ATOM      6  C   UNL     1      30.024  22.944  28.813  0.00  0.00    +0.000 A 
ATOM      7  C   UNL     1      31.233  23.059  27.896  0.00  0.00    +0.000 C 
ATOM      8  C   UNL     1      32.481  23.076  28.686  0.00  0.00    +0.000 C 
ATOM      9  C   UNL     1      32.378  21.582  29.405  0.00  0.00    +0.000 C 
ATOM     10  C   UNL     1      33.852  21.722  30.104  0.00  0.00    +0.000 C 
ATOM     11  C   UNL     1      31.589  22.210  30.688  0.00  0.00    +0.000 C 
ENDROOT
BRANCH   1  13
ATOM     12  N   UNL     1      28.054  22.698  26.134  0.00  0.00    +0.000 NA
ATOM     13  C   UNL     1      28.283  23.643  27.146  0.00  0.00    +0.000 C 
ATOM     14  O   UNL     1      28.096  24.841  26.903  0.00  0.00    +0.000 OA
BRANCH  12  21
ATOM     15  C   UNL     1      30.008  23.175  24.056  0.00  0.00    +0.000 C 
ATOM     16  C   UNL     1      28.528  23.251  23.819  0.00  0.00    +0.000 A 
ATOM     17  C   UNL     1      28.074  23.562  22.554  0.00  0.00    +0.000 A 
ATOM     18  C   UNL     1      26.727  23.644  22.282  0.00  0.00    +0.000 A 
ATOM     19  C   UNL     1      25.798  23.410  23.297  0.00  0.00    +0.000 A 
ATOM     20  C   UNL     1      26.276  23.099  24.563  0.00  0.00    +0.000 A 
ATOM     21  C   UNL     1      27.615  23.020  24.822  0.00  0.00    +0.000 A 
ENDBRANCH  12  21
ENDBRANCH   1  13
TORSDOF 2
ENDMDL
MODEL 2
REMARK VINA RESULT:      -6.2      2.239      6.656
REMARK  Name = 
REMARK  2 active torsions:
REMARK  status: ('A' for Active; 'I' for Inactive)
REMARK    1  A    between atoms: C_7  and  N_8
REMARK    2  A    between atoms: C_9  and  C_11
REMARK                            x       y       z     vdW  Elec       q    Type
REMARK                         _______ _______ _______ _____ _____    ______ ____
ROOT
ATOM      1  C   UNL     1      26.772  23.518  28.806  0.00  0.00    +0.000 A 
ATOM      2  C   UNL     1      25.869  24.330  29.450  0.00  0.00    +0.000 A 
ATOM      3  N   UNL     1      25.680  24.552  30.856  0.00  0.00    +0.000 NA
ATOM      4  S   UNL     1      24.987  25.047  28.192  0.00  0.00    +0.000 S 
ATOM      5  C   UNL     1      25.769  24.311  26.867  0.00  0.00    +0.000 A 
ATOM      6  C   UNL     1      26.693  23.530  27.446  0.00  0.00    +0.000 A 
ATOM      7  C   UNL     1      27.571  22.725  26.499  0.00  0.00    +0.000 C 
ATOM      8  C   UNL     1      26.972  22.683  25.149  0.00  0.00    +0.000 C 
ATOM      9  C   UNL     1      26.980  24.305  24.788  0.00  0.00    +0.000 C 
ATOM     10  C   UNL     1      26.429  24.056  23.266  0.00  0.00    +0.000 C 
ATOM     11  C   UNL     1      25.486  24.492  25.416  0.00  0.00    +0.000 C 
ENDROOT
BRANCH   1  13
ATOM     12  N   UNL     1      29.015  23.209  29.814  0.00  0.00    +0.000 NA
ATOM     13  C   UNL     1      27.714  22.731  29.595  0.00  0.00    +0.000 C 
ATOM     14  O   UNL     1      27.384  21.642  30.079  0.00  0.00    +0.000 OA
BRANCH  12  21
ATOM     15  C   UNL     1      31.428  22.306  28.503  0.00  0.00    +0.000 C 
ATOM     16  C   UNL     1      31.159  22.083  29.962  0.00  0.00    +0.000 A 
ATOM     17  C   UNL     1      32.104  21.417  30.716  0.00  0.00    +0.000 A 
ATOM     18  C   UNL     1      31.907  21.186  32.059  0.00  0.00    +0.000 A 
ATOM     19  C   UNL     1      30.737  21.629  32.676  0.00  0.00    +0.000 A 
ATOM     20  C   UNL     1      29.799  22.297  31.899  0.00  0.00    +0.000 A 
ATOM     21  C   UNL     1      30.004  22.521  30.567  0.00  0.00    +0.000 A 
ENDBRANCH  12  21
ENDBRANCH   1  13
TORSDOF 2
ENDMDL
MODEL 3
REMARK VINA RESULT:      -6.1     32.247     32.849
REMARK  Name = 
REMARK  2 active torsions:
REMARK  status: ('A' for Active; 'I' for Inactive)
REMARK    1  A    between atoms: C_7  and  N_8
REMARK    2  A    between atoms: C_9  and  C_11
REMARK                            x       y       z     vdW  Elec       q    Type
REMARK                         _______ _______ _______ _____ _____    ______ ____
ROOT
ATOM      1  C   UNL     1      19.849  -7.654  26.033  0.00  0.00    +0.000 A 
ATOM      2  C   UNL     1      19.285  -6.409  26.183  0.00  0.00    +0.000 A 
ATOM      3  N   UNL     1      19.621  -5.170  25.542  0.00  0.00    +0.000 NA
ATOM      4  S   UNL     1      18.058  -6.647  27.330  0.00  0.00    +0.000 S 
ATOM      5  C   UNL     1      18.273  -8.317  27.605  0.00  0.00    +0.000 A 
ATOM      6  C   UNL     1      19.293  -8.636  26.796  0.00  0.00    +0.000 A 
ATOM      7  C   UNL     1      19.729 -10.095  26.819  0.00  0.00    +0.000 C 
ATOM      8  C   UNL     1      19.183 -10.777  28.011  0.00  0.00    +0.000 C 
ATOM      9  C   UNL     1      17.558 -10.612  27.709  0.00  0.00    +0.000 C 
ATOM     10  C   UNL     1      17.138 -11.510  29.013  0.00  0.00    +0.000 C 
ATOM     11  C   UNL     1      17.510  -9.202  28.529  0.00  0.00    +0.000 C 
ENDROOT
BRANCH   1  13
ATOM     12  N   UNL     1      22.277  -7.616  25.537  0.00  0.00    +0.000 NA
ATOM     13  C   UNL     1      20.959  -7.827  25.102  0.00  0.00    +0.000 C 
ATOM     14  O   UNL     1      20.759  -8.158  23.928  0.00  0.00    +0.000 OA
BRANCH  12  21
ATOM     15  C   UNL     1      23.419 -10.240  25.125  0.00  0.00    +0.000 C 
ATOM     16  C   UNL     1      23.984  -8.996  24.503  0.00  0.00    +0.000 A 
ATOM     17  C   UNL     1      25.098  -9.105  23.697  0.00  0.00    +0.000 A 
ATOM     18  C   UNL     1      25.656  -7.996  23.102  0.00  0.00    +0.000 A 
ATOM     19  C   UNL     1      25.091  -6.738  23.311  0.00  0.00    +0.000 A 
ATOM     20  C   UNL     1      23.970  -6.650  24.125  0.00  0.00    +0.000 A 
ATOM     21  C   UNL     1      23.424  -7.757  24.711  0.00  0.00    +0.000 A 
ENDBRANCH  12  21
ENDBRANCH   1  13
TORSDOF 2
ENDMDL
MODEL 4
REMARK VINA RESULT:      -6.1     27.328     29.055
REMARK  Name = 
REMARK  2 active torsions:
REMARK  status: ('A' for Active; 'I' for Inactive)
REMARK    1  A    between atoms: C_7  and  N_8
REMARK    2  A    between atoms: C_9  and  C_11
REMARK                            x       y       z     vdW  Elec       q    Type
REMARK                         _______ _______ _______ _____ _____    ______ ____
ROOT
ATOM      1  C   UNL     1      34.324  -4.774  34.115  0.00  0.00    +0.000 A 
ATOM      2  C   UNL     1      35.008  -5.508  35.056  0.00  0.00    +0.000 A 
ATOM      3  N   UNL     1      35.418  -6.883  35.021  0.00  0.00    +0.000 NA
ATOM      4  S   UNL     1      35.276  -4.410  36.320  0.00  0.00    +0.000 S 
ATOM      5  C   UNL     1      34.523  -3.037  35.643  0.00  0.00    +0.000 A 
ATOM      6  C   UNL     1      34.085  -3.477  34.455  0.00  0.00    +0.000 A 
ATOM      7  C   UNL     1      33.351  -2.456  33.598  0.00  0.00    +0.000 C 
ATOM      8  C   UNL     1      32.943  -1.294  34.414  0.00  0.00    +0.000 C 
ATOM      9  C   UNL     1      34.437  -0.752  34.897  0.00  0.00    +0.000 C 
ATOM     10  C   UNL     1      33.811   0.563  35.648  0.00  0.00    +0.000 C 
ATOM     11  C   UNL     1      34.382  -1.679  36.239  0.00  0.00    +0.000 C 
ENDROOT
BRANCH   1  13
ATOM     12  N   UNL     1      34.836  -5.526  31.809  0.00  0.00    +0.000 NA
ATOM     13  C   UNL     1      33.921  -5.414  32.867  0.00  0.00    +0.000 C 
ATOM     14  O   UNL     1      32.778  -5.863  32.723  0.00  0.00    +0.000 OA
BRANCH  12  21
ATOM     15  C   UNL     1      35.410  -8.332  31.413  0.00  0.00    +0.000 C 
ATOM     16  C   UNL     1      34.808  -7.463  30.348  0.00  0.00    +0.000 A 
ATOM     17  C   UNL     1      34.513  -8.024  29.122  0.00  0.00    +0.000 A 
ATOM     18  C   UNL     1      33.960  -7.272  28.111  0.00  0.00    +0.000 A 
ATOM     19  C   UNL     1      33.689  -5.919  28.320  0.00  0.00    +0.000 A 
ATOM     20  C   UNL     1      33.993  -5.374  29.560  0.00  0.00    +0.000 A 
ATOM     21  C   UNL     1      34.543  -6.130  30.557  0.00  0.00    +0.000 A 
ENDBRANCH  12  21
ENDBRANCH   1  13
TORSDOF 2
ENDMDL
MODEL 5
REMARK VINA RESULT:      -6.0     26.470     28.454
REMARK  Name = 
REMARK  2 active torsions:
REMARK  status: ('A' for Active; 'I' for Inactive)
REMARK    1  A    between atoms: C_7  and  N_8
REMARK    2  A    between atoms: C_9  and  C_11
REMARK                            x       y       z     vdW  Elec       q    Type
REMARK                         _______ _______ _______ _____ _____    ______ ____
ROOT
ATOM      1  C   UNL     1      32.487  -5.143  33.554  0.00  0.00    +0.000 A 
ATOM      2  C   UNL     1      31.480  -5.926  34.069  0.00  0.00    +0.000 A 
ATOM      3  N   UNL     1      30.852  -5.876  35.359  0.00  0.00    +0.000 NA
ATOM      4  S   UNL     1      31.119  -7.010  32.816  0.00  0.00    +0.000 S 
ATOM      5  C   UNL     1      32.244  -6.460  31.657  0.00  0.00    +0.000 A 
ATOM      6  C   UNL     1      32.865  -5.451  32.283  0.00  0.00    +0.000 A 
ATOM      7  C   UNL     1      33.952  -4.743  31.485  0.00  0.00    +0.000 C 
ATOM      8  C   UNL     1      34.354  -5.562  30.323  0.00  0.00    +0.000 C 
ATOM      9  C   UNL     1      32.909  -5.618  29.505  0.00  0.00    +0.000 C 
ATOM     10  C   UNL     1      33.562  -6.418  28.233  0.00  0.00    +0.000 C 
ATOM     11  C   UNL     1      32.478  -6.986  30.283  0.00  0.00    +0.000 C 
ENDROOT
BRANCH   1  13
ATOM     12  N   UNL     1      32.461  -2.808  34.386  0.00  0.00    +0.000 NA
ATOM     13  C   UNL     1      33.055  -4.080  34.377  0.00  0.00    +0.000 C 
ATOM     14  O   UNL     1      34.057  -4.280  35.071  0.00  0.00    +0.000 OA
BRANCH  12  21
ATOM     15  C   UNL     1      34.000  -0.732  33.089  0.00  0.00    +0.000 C 
ATOM     16  C   UNL     1      33.669  -0.711  34.553  0.00  0.00    +0.000 A 
ATOM     17  C   UNL     1      34.118   0.346  35.318  0.00  0.00    +0.000 A 
ATOM     18  C   UNL     1      33.843   0.415  36.665  0.00  0.00    +0.000 A 
ATOM     19  C   UNL     1      33.098  -0.596  37.275  0.00  0.00    +0.000 A 
ATOM     20  C   UNL     1      32.657  -1.650  36.487  0.00  0.00    +0.000 A 
ATOM     21  C   UNL     1      32.936  -1.709  35.150  0.00  0.00    +0.000 A 
ENDBRANCH  12  21
ENDBRANCH   1  13
TORSDOF 2
ENDMDL
MODEL 6
REMARK VINA RESULT:      -6.0     32.003     32.575
REMARK  Name = 
REMARK  2 active torsions:
REMARK  status: ('A' for Active; 'I' for Inactive)
REMARK    1  A    between atoms: C_7  and  N_8
REMARK    2  A    between atoms: C_9  and  C_11
REMARK                            x       y       z     vdW  Elec       q    Type
REMARK                         _______ _______ _______ _____ _____    ______ ____
ROOT
ATOM      1  C   UNL     1      22.771  -9.465  24.456  0.00  0.00    +0.000 A 
ATOM      2  C   UNL     1      22.816 -10.822  24.676  0.00  0.00    +0.000 A 
ATOM      3  N   UNL     1      21.787 -11.707  25.141  0.00  0.00    +0.000 NA
ATOM      4  S   UNL     1      24.405 -11.253  24.270  0.00  0.00    +0.000 S 
ATOM      5  C   UNL     1      24.992  -9.714  23.827  0.00  0.00    +0.000 A 
ATOM      6  C   UNL     1      23.933  -8.913  24.009  0.00  0.00    +0.000 A 
ATOM      7  C   UNL     1      24.150  -7.440  23.690  0.00  0.00    +0.000 C 
ATOM      8  C   UNL     1      25.594  -7.138  23.607  0.00  0.00    +0.000 C 
ATOM      9  C   UNL     1      26.014  -8.124  22.338  0.00  0.00    +0.000 C 
ATOM     10  C   UNL     1      27.556  -7.572  22.308  0.00  0.00    +0.000 C 
ATOM     11  C   UNL     1      26.358  -9.352  23.356  0.00  0.00    +0.000 C 
ENDROOT
BRANCH   1  13
ATOM     12  N   UNL     1      21.338  -8.078  25.928  0.00  0.00    +0.000 NA
ATOM     13  C   UNL     1      21.528  -8.743  24.706  0.00  0.00    +0.000 C 
ATOM     14  O   UNL     1      20.631  -8.706  23.856  0.00  0.00    +0.000 OA
BRANCH  12  21
ATOM     15  C   UNL     1      19.247  -9.373  27.447  0.00  0.00    +0.000 C 
ATOM     16  C   UNL     1      19.161  -7.946  26.991  0.00  0.00    +0.000 A 
ATOM     17  C   UNL     1      18.035  -7.215  27.308  0.00  0.00    +0.000 A 
ATOM     18  C   UNL     1      17.905  -5.902  26.915  0.00  0.00    +0.000 A 
ATOM     19  C   UNL     1      18.925  -5.293  26.182  0.00  0.00    +0.000 A 
ATOM     20  C   UNL     1      20.049  -6.046  25.873  0.00  0.00    +0.000 A 
ATOM     21  C   UNL     1      20.167  -7.349  26.269  0.00  0.00    +0.000 A 
ENDBRANCH  12  21
ENDBRANCH   1  13
TORSDOF 2
ENDMDL
MODEL 7
REMARK VINA RESULT:      -6.0      2.084      6.400
REMARK  Name = 
REMARK  2 active torsions:
REMARK  status: ('A' for Active; 'I' for Inactive)
REMARK    1  A    between atoms: C_7  and  N_8
REMARK    2  A    between atoms: C_9  and  C_11
REMARK                            x       y       z     vdW  Elec       q    Type
REMARK                         _______ _______ _______ _____ _____    ______ ____
ROOT
ATOM      1  C   UNL     1      27.477  23.505  26.743  0.00  0.00    +0.000 A 
ATOM      2  C   UNL     1      26.295  24.131  27.061  0.00  0.00    +0.000 A 
ATOM      3  N   UNL     1      25.597  24.184  28.315  0.00  0.00    +0.000 NA
ATOM      4  S   UNL     1      25.808  24.858  25.609  0.00  0.00    +0.000 S 
ATOM      5  C   UNL     1      27.105  24.362  24.617  0.00  0.00    +0.000 A 
ATOM      6  C   UNL     1      27.875  23.646  25.448  0.00  0.00    +0.000 A 
ATOM      7  C   UNL     1      29.139  23.056  24.839  0.00  0.00    +0.000 C 
ATOM      8  C   UNL     1      29.061  23.078  23.364  0.00  0.00    +0.000 C 
ATOM      9  C   UNL     1      28.949  24.717  23.114  0.00  0.00    +0.000 C 
ATOM     10  C   UNL     1      29.006  24.558  21.485  0.00  0.00    +0.000 C 
ATOM     11  C   UNL     1      27.320  24.654  23.172  0.00  0.00    +0.000 C 
ENDROOT
BRANCH   1  13
ATOM     12  N   UNL     1      29.133  23.419  28.585  0.00  0.00    +0.000 NA
ATOM     13  C   UNL     1      28.192  22.764  27.776  0.00  0.00    +0.000 C 
ATOM     14  O   UNL     1      27.983  21.559  27.954  0.00  0.00    +0.000 OA
BRANCH  12  21
ATOM     15  C   UNL     1      31.786  22.422  28.013  0.00  0.00    +0.000 C 
ATOM     16  C   UNL     1      31.144  22.308  29.365  0.00  0.00    +0.000 A 
ATOM     17  C   UNL     1      31.848  21.700  30.384  0.00  0.00    +0.000 A 
ATOM     18  C   UNL     1      31.306  21.569  31.643  0.00  0.00    +0.000 A 
ATOM     19  C   UNL     1      30.024  22.057  31.901  0.00  0.00    +0.000 A 
ATOM     20  C   UNL     1      29.333  22.665  30.862  0.00  0.00    +0.000 A 
ATOM     21  C   UNL     1      29.881  22.789  29.616  0.00  0.00    +0.000 A 
ENDBRANCH  12  21
ENDBRANCH   1  13
TORSDOF 2
ENDMDL
MODEL 8
REMARK VINA RESULT:      -5.8     21.226     23.252
REMARK  Name = 
REMARK  2 active torsions:
REMARK  status: ('A' for Active; 'I' for Inactive)
REMARK    1  A    between atoms: C_7  and  N_8
REMARK    2  A    between atoms: C_9  and  C_11
REMARK                            x       y       z     vdW  Elec       q    Type
REMARK                         _______ _______ _______ _____ _____    ______ ____
ROOT
ATOM      1  C   UNL     1      23.564   3.140  16.125  0.00  0.00    +0.000 A 
ATOM      2  C   UNL     1      22.907   2.431  17.103  0.00  0.00    +0.000 A 
ATOM      3  N   UNL     1      23.297   2.164  18.458  0.00  0.00    +0.000 NA
ATOM      4  S   UNL     1      21.479   1.913  16.348  0.00  0.00    +0.000 S 
ATOM      5  C   UNL     1      21.730   2.599  14.807  0.00  0.00    +0.000 A 
ATOM      6  C   UNL     1      22.918   3.209  14.928  0.00  0.00    +0.000 A 
ATOM      7  C   UNL     1      23.425   3.928  13.686  0.00  0.00    +0.000 C 
ATOM      8  C   UNL     1      22.679   3.484  12.491  0.00  0.00    +0.000 C 
ATOM      9  C   UNL     1      21.150   3.971  12.918  0.00  0.00    +0.000 C 
ATOM     10  C   UNL     1      20.515   3.534  11.473  0.00  0.00    +0.000 C 
ATOM     11  C   UNL     1      20.842   2.527  13.613  0.00  0.00    +0.000 C 
ENDROOT
BRANCH   1  13
ATOM     12  N   UNL     1      24.914   5.002  17.050  0.00  0.00    +0.000 NA
ATOM     13  C   UNL     1      24.856   3.744  16.430  0.00  0.00    +0.000 C 
ATOM     14  O   UNL     1      25.911   3.164  16.150  0.00  0.00    +0.000 OA
BRANCH  12  21
ATOM     15  C   UNL     1      26.128   6.794  15.134  0.00  0.00    +0.000 C 
ATOM     16  C   UNL     1      26.713   6.531  16.490  0.00  0.00    +0.000 A 
ATOM     17  C   UNL     1      27.883   7.171  16.844  0.00  0.00    +0.000 A 
ATOM     18  C   UNL     1      28.461   6.965  18.076  0.00  0.00    +0.000 A 
ATOM     19  C   UNL     1      27.861   6.097  18.989  0.00  0.00    +0.000 A 
ATOM     20  C   UNL     1      26.684   5.463  18.613  0.00  0.00    +0.000 A 
ATOM     21  C   UNL     1      26.119   5.674  17.388  0.00  0.00    +0.000 A 
ENDBRANCH  12  21
ENDBRANCH   1  13
TORSDOF 2
ENDMDL
MODEL 9
REMARK VINA RESULT:      -5.8     27.195     28.830
REMARK  Name = 
REMARK  2 active torsions:
REMARK  status: ('A' for Active; 'I' for Inactive)
REMARK    1  A    between atoms: C_7  and  N_8
REMARK    2  A    between atoms: C_9  and  C_11
REMARK                            x       y       z     vdW  Elec       q    Type
REMARK                         _______ _______ _______ _____ _____    ______ ____
ROOT
ATOM      1  C   UNL     1      33.402  -4.658  34.158  0.00  0.00    +0.000 A 
ATOM      2  C   UNL     1      32.993  -5.458  35.199  0.00  0.00    +0.000 A 
ATOM      3  N   UNL     1      32.878  -6.887  35.264  0.00  0.00    +0.000 NA
ATOM      4  S   UNL     1      32.638  -4.363  36.445  0.00  0.00    +0.000 S 
ATOM      5  C   UNL     1      33.010  -2.909  35.634  0.00  0.00    +0.000 A 
ATOM      6  C   UNL     1      33.398  -3.322  34.420  0.00  0.00    +0.000 A 
ATOM      7  C   UNL     1      33.802  -2.225  33.443  0.00  0.00    +0.000 C 
ATOM      8  C   UNL     1      33.320  -0.911  33.915  0.00  0.00    +0.000 C 
ATOM      9  C   UNL     1      34.147  -0.808  35.352  0.00  0.00    +0.000 C 
ATOM     10  C   UNL     1      33.612   0.711  35.650  0.00  0.00    +0.000 C 
ATOM     11  C   UNL     1      32.916  -1.517  36.156  0.00  0.00    +0.000 C 
ENDROOT
BRANCH   1  13
ATOM     12  N   UNL     1      32.824  -5.554  31.920  0.00  0.00    +0.000 NA
ATOM     13  C   UNL     1      33.794  -5.276  32.896  0.00  0.00    +0.000 C 
ATOM     14  O   UNL     1      34.975  -5.562  32.667  0.00  0.00    +0.000 OA
BRANCH  12  21
ATOM     15  C   UNL     1      32.489  -8.407  31.596  0.00  0.00    +0.000 C 
ATOM     16  C   UNL     1      32.950  -7.508  30.487  0.00  0.00    +0.000 A 
ATOM     17  C   UNL     1      33.227  -8.063  29.254  0.00  0.00    +0.000 A 
ATOM     18  C   UNL     1      33.652  -7.283  28.203  0.00  0.00    +0.000 A 
ATOM     19  C   UNL     1      33.807  -5.907  28.377  0.00  0.00    +0.000 A 
ATOM     20  C   UNL     1      33.523  -5.369  29.625  0.00  0.00    +0.000 A 
ATOM     21  C   UNL     1      33.102  -6.152  30.662  0.00  0.00    +0.000 A 
ENDBRANCH  12  21
ENDBRANCH   1  13
TORSDOF 2
ENDMDL
MODEL 10
REMARK VINA RESULT:      -5.7      3.226      5.204
REMARK  Name = 
REMARK  2 active torsions:
REMARK  status: ('A' for Active; 'I' for Inactive)
REMARK    1  A    between atoms: C_7  and  N_8
REMARK    2  A    between atoms: C_9  and  C_11
REMARK                            x       y       z     vdW  Elec       q    Type
REMARK                         _______ _______ _______ _____ _____    ______ ____
ROOT
ATOM      1  C   UNL     1      26.265  24.158  28.002  0.00  0.00    +0.000 A 
ATOM      2  C   UNL     1      26.940  23.327  28.866  0.00  0.00    +0.000 A 
ATOM      3  N   UNL     1      27.858  22.262  28.579  0.00  0.00    +0.000 NA
ATOM      4  S   UNL     1      26.444  23.839  30.404  0.00  0.00    +0.000 S 
ATOM      5  C   UNL     1      25.390  25.097  29.938  0.00  0.00    +0.000 A 
ATOM      6  C   UNL     1      25.457  25.078  28.599  0.00  0.00    +0.000 A 
ATOM      7  C   UNL     1      24.603  26.111  27.876  0.00  0.00    +0.000 C 
ATOM      8  C   UNL     1      23.587  26.671  28.790  0.00  0.00    +0.000 C 
ATOM      9  C   UNL     1      24.582  27.363  29.926  0.00  0.00    +0.000 C 
ATOM     10  C   UNL     1      23.328  28.023  30.747  0.00  0.00    +0.000 C 
ATOM     11  C   UNL     1      24.585  25.994  30.814  0.00  0.00    +0.000 C 
ENDROOT
BRANCH   1  13
ATOM     12  N   UNL     1      27.520  24.652  25.923  0.00  0.00    +0.000 NA
ATOM     13  C   UNL     1      26.456  24.000  26.565  0.00  0.00    +0.000 C 
ATOM     14  O   UNL     1      25.692  23.295  25.895  0.00  0.00    +0.000 OA
BRANCH  12  21
ATOM     15  C   UNL     1      29.436  22.707  24.969  0.00  0.00    +0.000 C 
ATOM     16  C   UNL     1      28.700  23.645  24.057  0.00  0.00    +0.000 A 
ATOM     17  C   UNL     1      28.945  23.579  22.701  0.00  0.00    +0.000 A 
ATOM     18  C   UNL     1      28.297  24.415  21.820  0.00  0.00    +0.000 A 
ATOM     19  C   UNL     1      27.375  25.347  22.298  0.00  0.00    +0.000 A 
ATOM     20  C   UNL     1      27.143  25.397  23.666  0.00  0.00    +0.000 A 
ATOM     21  C   UNL     1      27.792  24.562  24.532  0.00  0.00    +0.000 A 
ENDBRANCH  12  21
ENDBRANCH   1  13
TORSDOF 2
ENDMDL
