MODEL 1
REMARK VINA RESULT:      -8.6      0.000      0.000
REMARK  Name = 
REMARK  6 active torsions:
REMARK  status: ('A' for Active; 'I' for Inactive)
REMARK    1  A    between atoms: C_2  and  C_4
REMARK    2  A    between atoms: C_6  and  C_7
REMARK    3  A    between atoms: C_11  and  C_12
REMARK    4  A    between atoms: C_12  and  C_13
REMARK    5  A    between atoms: C_13  and  C_14
REMARK    6  A    between atoms: C_13  and  C_21
REMARK                            x       y       z     vdW  Elec       q    Type
REMARK                         _______ _______ _______ _____ _____    ______ ____
ROOT
ATOM      1  C   UNL     1      37.057   3.411  16.369  0.00  0.00    +0.000 A 
ATOM      2  C   UNL     1      36.108   3.930  15.500  0.00  0.00    +0.000 A 
ATOM      3  C   UNL     1      35.068   3.104  15.135  0.00  0.00    +0.000 A 
ATOM      4  C   UNL     1      35.004   1.825  15.629  0.00  0.00    +0.000 A 
ATOM      5  C   UNL     1      35.939   1.321  16.482  0.00  0.00    +0.000 A 
ATOM      6  C   UNL     1      36.985   2.130  16.858  0.00  0.00    +0.000 A 
ENDROOT
BRANCH   1   9
ATOM      7  C   UNL     1      39.317   5.728  18.276  0.00  0.00    +0.000 A 
ATOM      8  C   UNL     1      38.302   4.874  17.958  0.00  0.00    +0.000 A 
ATOM      9  C   UNL     1      38.141   4.329  16.726  0.00  0.00    +0.000 A 
ATOM     10  C   UNL     1      39.037   4.639  15.727  0.00  0.00    +0.000 A 
ATOM     11  N   UNL     1      38.897   4.106  14.486  0.00  0.00    +0.000 NA
ATOM     12  C   UNL     1      39.729   4.364  13.477  0.00  0.00    +0.000 A 
ATOM     13  C   UNL     1      40.784   5.228  13.735  0.00  0.00    +0.000 A 
ATOM     14  C   UNL     1      40.974   5.797  14.976  0.00  0.00    +0.000 A 
ATOM     15  C   UNL     1      40.077   5.496  16.003  0.00  0.00    +0.000 A 
ATOM     16  C   UNL     1      40.220   6.038  17.263  0.00  0.00    +0.000 A 
BRANCH   7  18
ATOM     17  C   UNL     1      38.991   7.760  19.591  0.00  0.00    +0.000 C 
ATOM     18  C   UNL     1      39.518   6.336  19.604  0.00  0.00    +0.000 C 
ATOM     19  C   UNL     1      40.996   6.399  19.979  0.00  0.00    +0.000 C 
ENDBRANCH   7  18
ENDBRANCH   1   9
BRANCH   5  20
ATOM     20  C   UNL     1      35.816  -0.035  16.967  0.00  0.00    +0.000 C 
BRANCH  20  21
ATOM     21  C   UNL     1      35.502  -1.073  15.775  0.00  0.00    +0.000 C 
BRANCH  21  22
ATOM     22  C   UNL     1      36.961  -1.682  15.691  0.00  0.00    +0.000 A 
ATOM     23  C   UNL     1      37.337  -2.293  14.537  0.00  0.00    +0.000 A 
ATOM     24  C   UNL     1      38.628  -2.838  14.491  0.00  0.00    +0.000 A 
ATOM     25  N   UNL     1      39.451  -2.754  15.554  0.00  0.00    +0.000 N 
ATOM     26  O   UNL     1      40.725  -3.287  15.528  0.00  0.00    +0.000 OA
ATOM     27  C   UNL     1      39.062  -2.155  16.671  0.00  0.00    +0.000 A 
ATOM     28  C   UNL     1      37.796  -1.610  16.740  0.00  0.00    +0.000 A 
ENDBRANCH  21  22
BRANCH  21  29
ATOM     29  C   UNL     1      34.873  -2.271  16.677  0.00  0.00    +0.000 C 
ATOM     30  C   UNL     1      34.414  -3.363  15.771  0.00  0.00    +0.000 C 
ATOM     31  C   UNL     1      33.666  -1.610  17.376  0.00  0.00    +0.000 C 
ATOM     32  O   UNL     1      35.721  -2.589  17.677  0.00  0.00    +0.000 OA
ENDBRANCH  21  29
ENDBRANCH  20  21
ENDBRANCH   5  20
TORSDOF 6
ENDMDL
MODEL 2
REMARK VINA RESULT:      -8.4      1.678      2.424
REMARK  Name = 
REMARK  6 active torsions:
REMARK  status: ('A' for Active; 'I' for Inactive)
REMARK    1  A    between atoms: C_2  and  C_4
REMARK    2  A    between atoms: C_6  and  C_7
REMARK    3  A    between atoms: C_11  and  C_12
REMARK    4  A    between atoms: C_12  and  C_13
REMARK    5  A    between atoms: C_13  and  C_14
REMARK    6  A    between atoms: C_13  and  C_21
REMARK                            x       y       z     vdW  Elec       q    Type
REMARK                         _______ _______ _______ _____ _____    ______ ____
ROOT
ATOM      1  C   UNL     1      37.359   3.635  15.823  0.00  0.00    +0.000 A 
ATOM      2  C   UNL     1      36.385   4.282  15.075  0.00  0.00    +0.000 A 
ATOM      3  C   UNL     1      35.374   3.508  14.552  0.00  0.00    +0.000 A 
ATOM      4  C   UNL     1      35.359   2.154  14.780  0.00  0.00    +0.000 A 
ATOM      5  C   UNL     1      36.318   1.524  15.514  0.00  0.00    +0.000 A 
ATOM      6  C   UNL     1      37.337   2.280  16.045  0.00  0.00    +0.000 A 
ENDROOT
BRANCH   1   9
ATOM      7  C   UNL     1      39.440   5.757  18.120  0.00  0.00    +0.000 A 
ATOM      8  C   UNL     1      38.453   4.949  17.637  0.00  0.00    +0.000 A 
ATOM      9  C   UNL     1      38.411   4.502  16.356  0.00  0.00    +0.000 A 
ATOM     10  C   UNL     1      39.406   4.871  15.479  0.00  0.00    +0.000 A 
ATOM     11  N   UNL     1      39.387   4.438  14.193  0.00  0.00    +0.000 NA
ATOM     12  C   UNL     1      40.318   4.758  13.294  0.00  0.00    +0.000 A 
ATOM     13  C   UNL     1      41.352   5.579  13.723  0.00  0.00    +0.000 A 
ATOM     14  C   UNL     1      41.422   6.048  15.017  0.00  0.00    +0.000 A 
ATOM     15  C   UNL     1      40.422   5.686  15.923  0.00  0.00    +0.000 A 
ATOM     16  C   UNL     1      40.444   6.127  17.230  0.00  0.00    +0.000 A 
BRANCH   7  18
ATOM     17  C   UNL     1      38.830   7.611  19.588  0.00  0.00    +0.000 C 
ATOM     18  C   UNL     1      39.512   6.257  19.505  0.00  0.00    +0.000 C 
ATOM     19  C   UNL     1      40.956   6.445  19.963  0.00  0.00    +0.000 C 
ENDBRANCH   7  18
ENDBRANCH   1   9
BRANCH   5  20
ATOM     20  C   UNL     1      36.249   0.096  15.718  0.00  0.00    +0.000 C 
BRANCH  20  21
ATOM     21  C   UNL     1      37.710  -0.584  15.709  0.00  0.00    +0.000 C 
BRANCH  21  22
ATOM     22  C   UNL     1      37.619  -1.202  17.164  0.00  0.00    +0.000 A 
ATOM     23  C   UNL     1      36.601  -0.800  17.970  0.00  0.00    +0.000 A 
ATOM     24  C   UNL     1      36.549  -1.349  19.260  0.00  0.00    +0.000 A 
ATOM     25  N   UNL     1      37.476  -2.237  19.669  0.00  0.00    +0.000 N 
ATOM     26  O   UNL     1      37.441  -2.787  20.936  0.00  0.00    +0.000 OA
ATOM     27  C   UNL     1      38.460  -2.614  18.866  0.00  0.00    +0.000 A 
ATOM     28  C   UNL     1      38.533  -2.088  17.593  0.00  0.00    +0.000 A 
ENDBRANCH  21  22
BRANCH  21  29
ATOM     29  C   UNL     1      37.319  -1.954  14.923  0.00  0.00    +0.000 C 
ATOM     30  C   UNL     1      38.468  -2.901  15.011  0.00  0.00    +0.000 C 
ATOM     31  C   UNL     1      37.112  -1.493  13.465  0.00  0.00    +0.000 C 
ATOM     32  O   UNL     1      36.106  -2.385  15.325  0.00  0.00    +0.000 OA
ENDBRANCH  21  29
ENDBRANCH  20  21
ENDBRANCH   5  20
TORSDOF 6
ENDMDL
MODEL 3
REMARK VINA RESULT:      -8.4      2.035      3.263
REMARK  Name = 
REMARK  6 active torsions:
REMARK  status: ('A' for Active; 'I' for Inactive)
REMARK    1  A    between atoms: C_2  and  C_4
REMARK    2  A    between atoms: C_6  and  C_7
REMARK    3  A    between atoms: C_11  and  C_12
REMARK    4  A    between atoms: C_12  and  C_13
REMARK    5  A    between atoms: C_13  and  C_14
REMARK    6  A    between atoms: C_13  and  C_21
REMARK                            x       y       z     vdW  Elec       q    Type
REMARK                         _______ _______ _______ _____ _____    ______ ____
ROOT
ATOM      1  C   UNL     1      36.857   2.629  16.174  0.00  0.00    +0.000 A 
ATOM      2  C   UNL     1      35.551   2.519  16.630  0.00  0.00    +0.000 A 
ATOM      3  C   UNL     1      34.926   1.303  16.462  0.00  0.00    +0.000 A 
ATOM      4  C   UNL     1      35.597   0.264  15.866  0.00  0.00    +0.000 A 
ATOM      5  C   UNL     1      36.879   0.379  15.421  0.00  0.00    +0.000 A 
ATOM      6  C   UNL     1      37.520   1.585  15.578  0.00  0.00    +0.000 A 
ENDROOT
BRANCH   1   9
ATOM      7  C   UNL     1      38.789   5.501  17.636  0.00  0.00    +0.000 A 
ATOM      8  C   UNL     1      38.219   4.274  17.462  0.00  0.00    +0.000 A 
ATOM      9  C   UNL     1      37.476   3.941  16.376  0.00  0.00    +0.000 A 
ATOM     10  C   UNL     1      37.273   4.875  15.384  0.00  0.00    +0.000 A 
ATOM     11  N   UNL     1      36.534   4.566  14.288  0.00  0.00    +0.000 NA
ATOM     12  C   UNL     1      36.300   5.422  13.293  0.00  0.00    +0.000 A 
ATOM     13  C   UNL     1      36.854   6.690  13.410  0.00  0.00    +0.000 A 
ATOM     14  C   UNL     1      37.612   7.057  14.500  0.00  0.00    +0.000 A 
ATOM     15  C   UNL     1      37.830   6.126  15.518  0.00  0.00    +0.000 A 
ATOM     16  C   UNL     1      38.582   6.441  16.630  0.00  0.00    +0.000 A 
BRANCH   7  18
ATOM     17  C   UNL     1      38.981   7.110  19.462  0.00  0.00    +0.000 C 
ATOM     18  C   UNL     1      39.601   5.891  18.804  0.00  0.00    +0.000 C 
ATOM     19  C   UNL     1      41.026   6.263  18.402  0.00  0.00    +0.000 C 
ENDBRANCH   7  18
ENDBRANCH   1   9
BRANCH   5  20
ATOM     20  C   UNL     1      37.531  -0.751  14.801  0.00  0.00    +0.000 C 
BRANCH  20  21
ATOM     21  C   UNL     1      38.848  -1.204  15.611  0.00  0.00    +0.000 C 
BRANCH  21  22
ATOM     22  C   UNL     1      38.316  -2.640  16.012  0.00  0.00    +0.000 A 
ATOM     23  C   UNL     1      38.913  -3.280  17.052  0.00  0.00    +0.000 A 
ATOM     24  C   UNL     1      38.435  -4.557  17.379  0.00  0.00    +0.000 A 
ATOM     25  N   UNL     1      37.425  -5.115  16.684  0.00  0.00    +0.000 N 
ATOM     26  O   UNL     1      36.941  -6.372  16.991  0.00  0.00    +0.000 OA
ATOM     27  C   UNL     1      36.857  -4.473  15.672  0.00  0.00    +0.000 A 
ATOM     28  C   UNL     1      37.310  -3.215  15.331  0.00  0.00    +0.000 A 
ENDBRANCH  21  22
BRANCH  21  29
ATOM     29  C   UNL     1      39.735  -1.705  14.342  0.00  0.00    +0.000 C 
ATOM     30  C   UNL     1      40.889  -2.501  14.849  0.00  0.00    +0.000 C 
ATOM     31  C   UNL     1      40.229  -0.391  13.700  0.00  0.00    +0.000 C 
ATOM     32  O   UNL     1      38.934  -2.265  13.413  0.00  0.00    +0.000 OA
ENDBRANCH  21  29
ENDBRANCH  20  21
ENDBRANCH   5  20
TORSDOF 6
ENDMDL
MODEL 4
REMARK VINA RESULT:      -8.2      2.220      3.244
REMARK  Name = 
REMARK  6 active torsions:
REMARK  status: ('A' for Active; 'I' for Inactive)
REMARK    1  A    between atoms: C_2  and  C_4
REMARK    2  A    between atoms: C_6  and  C_7
REMARK    3  A    between atoms: C_11  and  C_12
REMARK    4  A    between atoms: C_12  and  C_13
REMARK    5  A    between atoms: C_13  and  C_14
REMARK    6  A    between atoms: C_13  and  C_21
REMARK                            x       y       z     vdW  Elec       q    Type
REMARK                         _______ _______ _______ _____ _____    ______ ____
ROOT
ATOM      1  C   UNL     1      38.584   4.688  15.618  0.00  0.00    +0.000 A 
ATOM      2  C   UNL     1      37.568   5.532  15.192  0.00  0.00    +0.000 A 
ATOM      3  C   UNL     1      36.565   4.976  14.429  0.00  0.00    +0.000 A 
ATOM      4  C   UNL     1      36.600   3.639  14.121  0.00  0.00    +0.000 A 
ATOM      5  C   UNL     1      37.600   2.816  14.543  0.00  0.00    +0.000 A 
ATOM      6  C   UNL     1      38.611   3.352  15.304  0.00  0.00    +0.000 A 
ENDROOT
BRANCH   1   9
ATOM      7  C   UNL     1      40.522   6.108  18.506  0.00  0.00    +0.000 A 
ATOM      8  C   UNL     1      39.544   5.511  17.767  0.00  0.00    +0.000 A 
ATOM      9  C   UNL     1      39.625   5.328  16.425  0.00  0.00    +0.000 A 
ATOM     10  C   UNL     1      40.746   5.760  15.751  0.00  0.00    +0.000 A 
ATOM     11  N   UNL     1      40.852   5.588  14.409  0.00  0.00    +0.000 NA
ATOM     12  C   UNL     1      41.908   5.983  13.698  0.00  0.00    +0.000 A 
ATOM     13  C   UNL     1      42.940   6.600  14.391  0.00  0.00    +0.000 A 
ATOM     14  C   UNL     1      42.886   6.799  15.754  0.00  0.00    +0.000 A 
ATOM     15  C   UNL     1      41.758   6.369  16.457  0.00  0.00    +0.000 A 
ATOM     16  C   UNL     1      41.653   6.544  17.821  0.00  0.00    +0.000 A 
BRANCH   7  18
ATOM     17  C   UNL     1      39.522   7.476  20.266  0.00  0.00    +0.000 C 
ATOM     18  C   UNL     1      40.461   6.321  19.964  0.00  0.00    +0.000 C 
ATOM     19  C   UNL     1      41.828   6.680  20.539  0.00  0.00    +0.000 C 
ENDBRANCH   7  18
ENDBRANCH   1   9
BRANCH   5  20
ATOM     20  C   UNL     1      37.581   1.416  14.184  0.00  0.00    +0.000 C 
BRANCH  20  21
ATOM     21  C   UNL     1      38.989   0.935  13.565  0.00  0.00    +0.000 C 
BRANCH  21  22
ATOM     22  C   UNL     1      39.149  -0.346  14.481  0.00  0.00    +0.000 A 
ATOM     23  C   UNL     1      38.144  -0.649  15.345  0.00  0.00    +0.000 A 
ATOM     24  C   UNL     1      38.315  -1.779  16.157  0.00  0.00    +0.000 A 
ATOM     25  N   UNL     1      39.433  -2.525  16.074  0.00  0.00    +0.000 N 
ATOM     26  O   UNL     1      39.619  -3.642  16.867  0.00  0.00    +0.000 OA
ATOM     27  C   UNL     1      40.401  -2.211  15.225  0.00  0.00    +0.000 A 
ATOM     28  C   UNL     1      40.257  -1.103  14.416  0.00  0.00    +0.000 A 
ENDBRANCH  21  22
BRANCH  21  29
ATOM     29  C   UNL     1      38.408   0.141  12.270  0.00  0.00    +0.000 C 
ATOM     30  C   UNL     1      39.552  -0.449  11.517  0.00  0.00    +0.000 C 
ATOM     31  C   UNL     1      37.729   1.247  11.436  0.00  0.00    +0.000 C 
ATOM     32  O   UNL     1      37.403  -0.677  12.644  0.00  0.00    +0.000 OA
ENDBRANCH  21  29
ENDBRANCH  20  21
ENDBRANCH   5  20
TORSDOF 6
ENDMDL
MODEL 5
REMARK VINA RESULT:      -8.2      3.801      8.307
REMARK  Name = 
REMARK  6 active torsions:
REMARK  status: ('A' for Active; 'I' for Inactive)
REMARK    1  A    between atoms: C_2  and  C_4
REMARK    2  A    between atoms: C_6  and  C_7
REMARK    3  A    between atoms: C_11  and  C_12
REMARK    4  A    between atoms: C_12  and  C_13
REMARK    5  A    between atoms: C_13  and  C_14
REMARK    6  A    between atoms: C_13  and  C_21
REMARK                            x       y       z     vdW  Elec       q    Type
REMARK                         _______ _______ _______ _____ _____    ______ ____
ROOT
ATOM      1  C   UNL     1      38.630   3.915  14.981  0.00  0.00    +0.000 A 
ATOM      2  C   UNL     1      38.003   4.559  13.924  0.00  0.00    +0.000 A 
ATOM      3  C   UNL     1      38.100   5.932  13.875  0.00  0.00    +0.000 A 
ATOM      4  C   UNL     1      38.796   6.604  14.848  0.00  0.00    +0.000 A 
ATOM      5  C   UNL     1      39.410   5.966  15.884  0.00  0.00    +0.000 A 
ATOM      6  C   UNL     1      39.324   4.596  15.951  0.00  0.00    +0.000 A 
ENDROOT
BRANCH   1   9
ATOM      7  C   UNL     1      39.311   0.247  14.541  0.00  0.00    +0.000 A 
ATOM      8  C   UNL     1      39.448   1.603  14.530  0.00  0.00    +0.000 A 
ATOM      9  C   UNL     1      38.497   2.457  14.986  0.00  0.00    +0.000 A 
ATOM     10  C   UNL     1      37.321   1.949  15.493  0.00  0.00    +0.000 A 
ATOM     11  N   UNL     1      36.354   2.782  15.956  0.00  0.00    +0.000 NA
ATOM     12  C   UNL     1      35.195   2.356  16.458  0.00  0.00    +0.000 A 
ATOM     13  C   UNL     1      34.992   0.984  16.498  0.00  0.00    +0.000 A 
ATOM     14  C   UNL     1      35.939   0.092  16.042  0.00  0.00    +0.000 A 
ATOM     15  C   UNL     1      37.139   0.586  15.524  0.00  0.00    +0.000 A 
ATOM     16  C   UNL     1      38.120  -0.262  15.054  0.00  0.00    +0.000 A 
BRANCH   7  18
ATOM     17  C   UNL     1      40.398  -1.892  14.996  0.00  0.00    +0.000 C 
ATOM     18  C   UNL     1      40.326  -0.705  14.053  0.00  0.00    +0.000 C 
ATOM     19  C   UNL     1      41.714  -0.073  14.004  0.00  0.00    +0.000 C 
ENDBRANCH   7  18
ENDBRANCH   1   9
BRANCH   5  20
ATOM     20  C   UNL     1      40.127   6.730  16.878  0.00  0.00    +0.000 C 
BRANCH  20  21
ATOM     21  C   UNL     1      39.746   6.274  18.376  0.00  0.00    +0.000 C 
BRANCH  21  22
ATOM     22  C   UNL     1      41.205   6.413  18.973  0.00  0.00    +0.000 A 
ATOM     23  C   UNL     1      42.221   6.718  18.124  0.00  0.00    +0.000 A 
ATOM     24  C   UNL     1      43.507   6.821  18.673  0.00  0.00    +0.000 A 
ATOM     25  N   UNL     1      43.714   6.623  19.989  0.00  0.00    +0.000 N 
ATOM     26  O   UNL     1      44.974   6.720  20.547  0.00  0.00    +0.000 OA
ATOM     27  C   UNL     1      42.708   6.326  20.800  0.00  0.00    +0.000 A 
ATOM     28  C   UNL     1      41.433   6.220  20.283  0.00  0.00    +0.000 A 
ENDBRANCH  21  22
BRANCH  21  29
ATOM     29  C   UNL     1      39.207   7.710  18.920  0.00  0.00    +0.000 C 
ATOM     30  C   UNL     1      39.127   7.658  20.409  0.00  0.00    +0.000 C 
ATOM     31  C   UNL     1      37.794   7.827  18.309  0.00  0.00    +0.000 C 
ATOM     32  O   UNL     1      39.913   8.711  18.356  0.00  0.00    +0.000 OA
ENDBRANCH  21  29
ENDBRANCH  20  21
ENDBRANCH   5  20
TORSDOF 6
ENDMDL
MODEL 6
REMARK VINA RESULT:      -8.0      2.501      4.550
REMARK  Name = 
REMARK  6 active torsions:
REMARK  status: ('A' for Active; 'I' for Inactive)
REMARK    1  A    between atoms: C_2  and  C_4
REMARK    2  A    between atoms: C_6  and  C_7
REMARK    3  A    between atoms: C_11  and  C_12
REMARK    4  A    between atoms: C_12  and  C_13
REMARK    5  A    between atoms: C_13  and  C_14
REMARK    6  A    between atoms: C_13  and  C_21
REMARK                            x       y       z     vdW  Elec       q    Type
REMARK                         _______ _______ _______ _____ _____    ______ ____
ROOT
ATOM      1  C   UNL     1      35.979   2.475  15.422  0.00  0.00    +0.000 A 
ATOM      2  C   UNL     1      35.055   2.403  16.454  0.00  0.00    +0.000 A 
ATOM      3  C   UNL     1      34.745   1.151  16.938  0.00  0.00    +0.000 A 
ATOM      4  C   UNL     1      35.345   0.041  16.397  0.00  0.00    +0.000 A 
ATOM      5  C   UNL     1      36.252   0.118  15.384  0.00  0.00    +0.000 A 
ATOM      6  C   UNL     1      36.574   1.358  14.887  0.00  0.00    +0.000 A 
ENDROOT
BRANCH   1   9
ATOM      7  C   UNL     1      35.960   5.665  13.439  0.00  0.00    +0.000 A 
ATOM      8  C   UNL     1      35.676   4.403  13.872  0.00  0.00    +0.000 A 
ATOM      9  C   UNL     1      36.274   3.827  14.945  0.00  0.00    +0.000 A 
ATOM     10  C   UNL     1      37.222   4.535  15.651  0.00  0.00    +0.000 A 
ATOM     11  N   UNL     1      37.834   3.981  16.728  0.00  0.00    +0.000 NA
ATOM     12  C   UNL     1      38.759   4.611  17.454  0.00  0.00    +0.000 A 
ATOM     13  C   UNL     1      39.094   5.900  17.065  0.00  0.00    +0.000 A 
ATOM     14  C   UNL     1      38.504   6.511  15.980  0.00  0.00    +0.000 A 
ATOM     15  C   UNL     1      37.540   5.812  15.249  0.00  0.00    +0.000 A 
ATOM     16  C   UNL     1      36.919   6.376  14.155  0.00  0.00    +0.000 A 
BRANCH   7  18
ATOM     17  C   UNL     1      35.960   5.793  11.000  0.00  0.00    +0.000 C 
ATOM     18  C   UNL     1      35.328   6.317  12.277  0.00  0.00    +0.000 C 
ATOM     19  C   UNL     1      35.529   7.830  12.300  0.00  0.00    +0.000 C 
ENDBRANCH   7  18
ENDBRANCH   1   9
BRANCH   5  20
ATOM     20  C   UNL     1      36.848  -1.088  14.857  0.00  0.00    +0.000 C 
BRANCH  20  21
ATOM     21  C   UNL     1      37.576  -1.951  16.007  0.00  0.00    +0.000 C 
BRANCH  21  22
ATOM     22  C   UNL     1      36.732  -3.272  15.789  0.00  0.00    +0.000 A 
ATOM     23  C   UNL     1      35.827  -3.297  14.775  0.00  0.00    +0.000 A 
ATOM     24  C   UNL     1      35.080  -4.473  14.611  0.00  0.00    +0.000 A 
ATOM     25  N   UNL     1      35.261  -5.526  15.431  0.00  0.00    +0.000 N 
ATOM     26  O   UNL     1      34.534  -6.691  15.285  0.00  0.00    +0.000 OA
ATOM     27  C   UNL     1      36.149  -5.479  16.414  0.00  0.00    +0.000 A 
ATOM     28  C   UNL     1      36.897  -4.333  16.596  0.00  0.00    +0.000 A 
ENDBRANCH  21  22
BRANCH  21  29
ATOM     29  C   UNL     1      38.867  -2.436  15.144  0.00  0.00    +0.000 C 
ATOM     30  C   UNL     1      39.732  -3.285  16.013  0.00  0.00    +0.000 C 
ATOM     31  C   UNL     1      39.588  -1.117  14.792  0.00  0.00    +0.000 C 
ATOM     32  O   UNL     1      38.467  -2.939  13.959  0.00  0.00    +0.000 OA
ENDBRANCH  21  29
ENDBRANCH  20  21
ENDBRANCH   5  20
TORSDOF 6
ENDMDL
MODEL 7
REMARK VINA RESULT:      -7.9      3.600      8.016
REMARK  Name = 
REMARK  6 active torsions:
REMARK  status: ('A' for Active; 'I' for Inactive)
REMARK    1  A    between atoms: C_2  and  C_4
REMARK    2  A    between atoms: C_6  and  C_7
REMARK    3  A    between atoms: C_11  and  C_12
REMARK    4  A    between atoms: C_12  and  C_13
REMARK    5  A    between atoms: C_13  and  C_14
REMARK    6  A    between atoms: C_13  and  C_21
REMARK                            x       y       z     vdW  Elec       q    Type
REMARK                         _______ _______ _______ _____ _____    ______ ____
ROOT
ATOM      1  C   UNL     1      38.671   2.633  14.488  0.00  0.00    +0.000 A 
ATOM      2  C   UNL     1      38.675   2.832  13.115  0.00  0.00    +0.000 A 
ATOM      3  C   UNL     1      39.091   4.063  12.658  0.00  0.00    +0.000 A 
ATOM      4  C   UNL     1      39.479   5.030  13.551  0.00  0.00    +0.000 A 
ATOM      5  C   UNL     1      39.473   4.828  14.898  0.00  0.00    +0.000 A 
ATOM      6  C   UNL     1      39.060   3.607  15.375  0.00  0.00    +0.000 A 
ENDROOT
BRANCH   1   9
ATOM      7  C   UNL     1      36.582  -0.188  15.826  0.00  0.00    +0.000 A 
ATOM      8  C   UNL     1      36.987   1.051  15.425  0.00  0.00    +0.000 A 
ATOM      9  C   UNL     1      38.221   1.309  14.922  0.00  0.00    +0.000 A 
ATOM     10  C   UNL     1      39.130   0.281  14.800  0.00  0.00    +0.000 A 
ATOM     11  N   UNL     1      40.370   0.513  14.300  0.00  0.00    +0.000 NA
ATOM     12  C   UNL     1      41.295  -0.436  14.156  0.00  0.00    +0.000 A 
ATOM     13  C   UNL     1      40.945  -1.721  14.546  0.00  0.00    +0.000 A 
ATOM     14  C   UNL     1      39.700  -2.014  15.059  0.00  0.00    +0.000 A 
ATOM     15  C   UNL     1      38.763  -0.986  15.192  0.00  0.00    +0.000 A 
ATOM     16  C   UNL     1      37.503  -1.224  15.700  0.00  0.00    +0.000 A 
BRANCH   7  18
ATOM     17  C   UNL     1      35.064   0.235  17.691  0.00  0.00    +0.000 C 
ATOM     18  C   UNL     1      35.249  -0.499  16.375  0.00  0.00    +0.000 C 
ATOM     19  C   UNL     1      35.088  -1.990  16.657  0.00  0.00    +0.000 C 
ENDBRANCH   7  18
ENDBRANCH   1   9
BRANCH   5  20
ATOM     20  C   UNL     1      39.892   5.887  15.788  0.00  0.00    +0.000 C 
BRANCH  20  21
ATOM     21  C   UNL     1      39.029   5.904  17.149  0.00  0.00    +0.000 C 
BRANCH  21  22
ATOM     22  C   UNL     1      40.251   6.167  18.121  0.00  0.00    +0.000 A 
ATOM     23  C   UNL     1      41.469   6.413  17.571  0.00  0.00    +0.000 A 
ATOM     24  C   UNL     1      42.539   6.627  18.451  0.00  0.00    +0.000 A 
ATOM     25  N   UNL     1      42.354   6.588  19.785  0.00  0.00    +0.000 N 
ATOM     26  O   UNL     1      43.396   6.796  20.668  0.00  0.00    +0.000 OA
ATOM     27  C   UNL     1      41.157   6.345  20.300  0.00  0.00    +0.000 A 
ATOM     28  C   UNL     1      40.088   6.131  19.454  0.00  0.00    +0.000 A 
ENDBRANCH  21  22
BRANCH  21  29
ATOM     29  C   UNL     1      38.534   7.453  17.084  0.00  0.00    +0.000 C 
ATOM     30  C   UNL     1      37.838   7.786  18.361  0.00  0.00    +0.000 C 
ATOM     31  C   UNL     1      37.535   7.469  15.908  0.00  0.00    +0.000 C 
ATOM     32  O   UNL     1      39.550   8.246  16.688  0.00  0.00    +0.000 OA
ENDBRANCH  21  29
ENDBRANCH  20  21
ENDBRANCH   5  20
TORSDOF 6
ENDMDL
MODEL 8
REMARK VINA RESULT:      -7.8      2.657      4.661
REMARK  Name = 
REMARK  6 active torsions:
REMARK  status: ('A' for Active; 'I' for Inactive)
REMARK    1  A    between atoms: C_2  and  C_4
REMARK    2  A    between atoms: C_6  and  C_7
REMARK    3  A    between atoms: C_11  and  C_12
REMARK    4  A    between atoms: C_12  and  C_13
REMARK    5  A    between atoms: C_13  and  C_14
REMARK    6  A    between atoms: C_13  and  C_21
REMARK                            x       y       z     vdW  Elec       q    Type
REMARK                         _______ _______ _______ _____ _____    ______ ____
ROOT
ATOM      1  C   UNL     1      39.826   5.907  17.060  0.00  0.00    +0.000 A 
ATOM      2  C   UNL     1      40.213   6.522  15.878  0.00  0.00    +0.000 A 
ATOM      3  C   UNL     1      39.806   5.935  14.700  0.00  0.00    +0.000 A 
ATOM      4  C   UNL     1      39.051   4.789  14.731  0.00  0.00    +0.000 A 
ATOM      5  C   UNL     1      38.674   4.191  15.895  0.00  0.00    +0.000 A 
ATOM      6  C   UNL     1      39.070   4.761  17.081  0.00  0.00    +0.000 A 
ENDROOT
BRANCH   1   9
ATOM      7  C   UNL     1      41.944   7.070  19.937  0.00  0.00    +0.000 A 
ATOM      8  C   UNL     1      41.532   6.446  18.796  0.00  0.00    +0.000 A 
ATOM      9  C   UNL     1      40.283   6.571  18.283  0.00  0.00    +0.000 A 
ATOM     10  C   UNL     1      39.362   7.365  18.931  0.00  0.00    +0.000 A 
ATOM     11  N   UNL     1      38.105   7.506  18.439  0.00  0.00    +0.000 NA
ATOM     12  C   UNL     1      37.169   8.259  19.017  0.00  0.00    +0.000 A 
ATOM     13  C   UNL     1      37.524   8.922  20.183  0.00  0.00    +0.000 A 
ATOM     14  C   UNL     1      38.786   8.814  20.728  0.00  0.00    +0.000 A 
ATOM     15  C   UNL     1      39.734   8.014  20.086  0.00  0.00    +0.000 A 
ATOM     16  C   UNL     1      41.011   7.872  20.588  0.00  0.00    +0.000 A 
BRANCH   7  18
ATOM     17  C   UNL     1      44.308   6.773  19.402  0.00  0.00    +0.000 C 
ATOM     18  C   UNL     1      43.295   6.954  20.517  0.00  0.00    +0.000 C 
ATOM     19  C   UNL     1      43.410   5.744  21.441  0.00  0.00    +0.000 C 
ENDBRANCH   7  18
ENDBRANCH   1   9
BRANCH   5  20
ATOM     20  C   UNL     1      37.879   2.985  15.861  0.00  0.00    +0.000 C 
BRANCH  20  21
ATOM     21  C   UNL     1      36.879   2.960  14.598  0.00  0.00    +0.000 C 
BRANCH  21  22
ATOM     22  C   UNL     1      37.423   1.608  13.977  0.00  0.00    +0.000 A 
ATOM     23  C   UNL     1      36.970   1.235  12.751  0.00  0.00    +0.000 A 
ATOM     24  C   UNL     1      37.454   0.028  12.229  0.00  0.00    +0.000 A 
ATOM     25  N   UNL     1      38.331  -0.723  12.923  0.00  0.00    +0.000 N 
ATOM     26  O   UNL     1      38.818  -1.916  12.425  0.00  0.00    +0.000 OA
ATOM     27  C   UNL     1      38.759  -0.340  14.118  0.00  0.00    +0.000 A 
ATOM     28  C   UNL     1      38.297   0.845  14.654  0.00  0.00    +0.000 A 
ENDBRANCH  21  22
BRANCH  21  29
ATOM     29  C   UNL     1      35.592   2.295  15.339  0.00  0.00    +0.000 C 
ATOM     30  C   UNL     1      34.403   3.163  15.102  0.00  0.00    +0.000 C 
ATOM     31  C   UNL     1      35.981   2.312  16.832  0.00  0.00    +0.000 C 
ATOM     32  O   UNL     1      35.500   0.988  15.020  0.00  0.00    +0.000 OA
ENDBRANCH  21  29
ENDBRANCH  20  21
ENDBRANCH   5  20
TORSDOF 6
ENDMDL
MODEL 9
REMARK VINA RESULT:      -7.7      4.321      7.314
REMARK  Name = 
REMARK  6 active torsions:
REMARK  status: ('A' for Active; 'I' for Inactive)
REMARK    1  A    between atoms: C_2  and  C_4
REMARK    2  A    between atoms: C_6  and  C_7
REMARK    3  A    between atoms: C_11  and  C_12
REMARK    4  A    between atoms: C_12  and  C_13
REMARK    5  A    between atoms: C_13  and  C_14
REMARK    6  A    between atoms: C_13  and  C_21
REMARK                            x       y       z     vdW  Elec       q    Type
REMARK                         _______ _______ _______ _____ _____    ______ ____
ROOT
ATOM      1  C   UNL     1      38.215  -1.111  14.394  0.00  0.00    +0.000 A 
ATOM      2  C   UNL     1      37.654  -2.279  13.897  0.00  0.00    +0.000 A 
ATOM      3  C   UNL     1      38.487  -3.139  13.217  0.00  0.00    +0.000 A 
ATOM      4  C   UNL     1      39.813  -2.823  13.055  0.00  0.00    +0.000 A 
ATOM      5  C   UNL     1      40.358  -1.675  13.545  0.00  0.00    +0.000 A 
ATOM      6  C   UNL     1      39.543  -0.803  14.226  0.00  0.00    +0.000 A 
ENDROOT
BRANCH   1   9
ATOM      7  C   UNL     1      35.736   1.592  15.207  0.00  0.00    +0.000 A 
ATOM      8  C   UNL     1      36.597   0.781  14.528  0.00  0.00    +0.000 A 
ATOM      9  C   UNL     1      37.288  -0.232  15.109  0.00  0.00    +0.000 A 
ATOM     10  C   UNL     1      37.128  -0.473  16.456  0.00  0.00    +0.000 A 
ATOM     11  N   UNL     1      37.808  -1.480  17.061  0.00  0.00    +0.000 NA
ATOM     12  C   UNL     1      37.699  -1.766  18.359  0.00  0.00    +0.000 A 
ATOM     13  C   UNL     1      36.838  -0.976  19.108  0.00  0.00    +0.000 A 
ATOM     14  C   UNL     1      36.122   0.059  18.545  0.00  0.00    +0.000 A 
ATOM     15  C   UNL     1      36.269   0.321  17.181  0.00  0.00    +0.000 A 
ATOM     16  C   UNL     1      35.578   1.345  16.568  0.00  0.00    +0.000 A 
BRANCH   7  18
ATOM     17  C   UNL     1      35.935   3.759  14.099  0.00  0.00    +0.000 C 
ATOM     18  C   UNL     1      34.972   2.699  14.603  0.00  0.00    +0.000 C 
ATOM     19  C   UNL     1      34.047   3.366  15.617  0.00  0.00    +0.000 C 
ENDBRANCH   7  18
ENDBRANCH   1   9
BRANCH   5  20
ATOM     20  C   UNL     1      41.761  -1.398  13.340  0.00  0.00    +0.000 C 
BRANCH  20  21
ATOM     21  C   UNL     1      42.286  -0.215  14.300  0.00  0.00    +0.000 C 
BRANCH  21  22
ATOM     22  C   UNL     1      43.705  -0.852  14.595  0.00  0.00    +0.000 A 
ATOM     23  C   UNL     1      44.033  -2.011  13.965  0.00  0.00    +0.000 A 
ATOM     24  C   UNL     1      45.289  -2.564  14.253  0.00  0.00    +0.000 A 
ATOM     25  N   UNL     1      46.126  -1.962  15.120  0.00  0.00    +0.000 N 
ATOM     26  O   UNL     1      47.366  -2.493  15.417  0.00  0.00    +0.000 OA
ATOM     27  C   UNL     1      45.785  -0.832  15.724  0.00  0.00    +0.000 A 
ATOM     28  C   UNL     1      44.555  -0.268  15.456  0.00  0.00    +0.000 A 
ENDBRANCH  21  22
BRANCH  21  29
ATOM     29  C   UNL     1      42.800   0.806  13.142  0.00  0.00    +0.000 C 
ATOM     30  C   UNL     1      41.734   1.817  12.887  0.00  0.00    +0.000 C 
ATOM     31  C   UNL     1      42.985  -0.103  11.909  0.00  0.00    +0.000 C 
ATOM     32  O   UNL     1      44.040   1.249  13.435  0.00  0.00    +0.000 OA
ENDBRANCH  21  29
ENDBRANCH  20  21
ENDBRANCH   5  20
TORSDOF 6
ENDMDL
MODEL 10
REMARK VINA RESULT:      -7.7      3.159      8.364
REMARK  Name = 
REMARK  6 active torsions:
REMARK  status: ('A' for Active; 'I' for Inactive)
REMARK    1  A    between atoms: C_2  and  C_4
REMARK    2  A    between atoms: C_6  and  C_7
REMARK    3  A    between atoms: C_11  and  C_12
REMARK    4  A    between atoms: C_12  and  C_13
REMARK    5  A    between atoms: C_13  and  C_14
REMARK    6  A    between atoms: C_13  and  C_21
REMARK                            x       y       z     vdW  Elec       q    Type
REMARK                         _______ _______ _______ _____ _____    ______ ____
ROOT
ATOM      1  C   UNL     1      36.717   1.485  14.788  0.00  0.00    +0.000 A 
ATOM      2  C   UNL     1      35.558   2.094  14.329  0.00  0.00    +0.000 A 
ATOM      3  C   UNL     1      35.525   3.471  14.330  0.00  0.00    +0.000 A 
ATOM      4  C   UNL     1      36.613   4.181  14.774  0.00  0.00    +0.000 A 
ATOM      5  C   UNL     1      37.748   3.578  15.224  0.00  0.00    +0.000 A 
ATOM      6  C   UNL     1      37.800   2.204  15.231  0.00  0.00    +0.000 A 
ENDROOT
BRANCH   1   9
ATOM      7  C   UNL     1      35.872  -2.106  15.495  0.00  0.00    +0.000 A 
ATOM      8  C   UNL     1      35.876  -0.743  15.526  0.00  0.00    +0.000 A 
ATOM      9  C   UNL     1      36.701   0.021  14.766  0.00  0.00    +0.000 A 
ATOM     10  C   UNL     1      37.590  -0.590  13.909  0.00  0.00    +0.000 A 
ATOM     11  N   UNL     1      38.425   0.152  13.138  0.00  0.00    +0.000 NA
ATOM     12  C   UNL     1      39.307  -0.376  12.290  0.00  0.00    +0.000 A 
ATOM     13  C   UNL     1      39.354  -1.761  12.211  0.00  0.00    +0.000 A 
ATOM     14  C   UNL     1      38.530  -2.563  12.970  0.00  0.00    +0.000 A 
ATOM     15  C   UNL     1      37.620  -1.964  13.846  0.00  0.00    +0.000 A 
ATOM     16  C   UNL     1      36.772  -2.720  14.628  0.00  0.00    +0.000 A 
BRANCH   7  18
ATOM     17  C   UNL     1      34.155  -3.839  15.391  0.00  0.00    +0.000 C 
ATOM     18  C   UNL     1      34.989  -2.962  16.308  0.00  0.00    +0.000 C 
ATOM     19  C   UNL     1      34.024  -2.136  17.153  0.00  0.00    +0.000 C 
ENDBRANCH   7  18
ENDBRANCH   1   9
BRANCH   5  20
ATOM     20  C   UNL     1      38.860   4.381  15.679  0.00  0.00    +0.000 C 
BRANCH  20  21
ATOM     21  C   UNL     1      38.601   5.954  15.441  0.00  0.00    +0.000 C 
BRANCH  21  22
ATOM     22  C   UNL     1      38.744   6.382  16.958  0.00  0.00    +0.000 A 
ATOM     23  C   UNL     1      39.314   5.502  17.824  0.00  0.00    +0.000 A 
ATOM     24  C   UNL     1      39.417   5.897  19.165  0.00  0.00    +0.000 A 
ATOM     25  N   UNL     1      38.965   7.101  19.566  0.00  0.00    +0.000 N 
ATOM     26  O   UNL     1      39.057   7.507  20.884  0.00  0.00    +0.000 OA
ATOM     27  C   UNL     1      38.412   7.943  18.705  0.00  0.00    +0.000 A 
ATOM     28  C   UNL     1      38.300   7.577  17.379  0.00  0.00    +0.000 A 
ENDBRANCH  21  22
BRANCH  21  29
ATOM     29  C   UNL     1      40.114   6.369  15.008  0.00  0.00    +0.000 C 
ATOM     30  C   UNL     1      40.150   7.836  14.743  0.00  0.00    +0.000 C 
ATOM     31  C   UNL     1      40.351   5.581  13.703  0.00  0.00    +0.000 C 
ATOM     32  O   UNL     1      41.001   5.859  15.887  0.00  0.00    +0.000 OA
ENDBRANCH  21  29
ENDBRANCH  20  21
ENDBRANCH   5  20
TORSDOF 6
ENDMDL
