MODEL 1
REMARK VINA RESULT:      -7.9      0.000      0.000
REMARK  Name = 
REMARK  8 active torsions:
REMARK  status: ('A' for Active; 'I' for Inactive)
REMARK    1  A    between atoms: C_2  and  O_3
REMARK    2  A    between atoms: O_3  and  C_4
REMARK    3  A    between atoms: C_7  and  N_8
REMARK    4  A    between atoms: C_9  and  C_11
REMARK    5  A    between atoms: C_11  and  S_12
REMARK    6  A    between atoms: S_12  and  C_13
REMARK    7  A    between atoms: N_15  and  C_16
REMARK    8  A    between atoms: C_16  and  C_17
REMARK                            x       y       z     vdW  Elec       q    Type
REMARK                         _______ _______ _______ _____ _____    ______ ____
ROOT
ATOM      1  C   UNL     1      35.986   1.176  15.511  0.00  0.00    +0.000 A 
ATOM      2  C   UNL     1      36.838   0.884  14.454  0.00  0.00    +0.000 A 
ATOM      3  N   UNL     1      36.910  -0.449  14.289  0.00  0.00    +0.000 N 
ATOM      4  C   UNL     1      36.138  -1.067  15.193  0.00  0.00    +0.000 A 
ATOM      5  C   UNL     1      35.847  -2.386  15.471  0.00  0.00    +0.000 A 
ATOM      6  C   UNL     1      34.995  -2.755  16.491  0.00  0.00    +0.000 A 
ATOM      7  C   UNL     1      34.426  -1.745  17.246  0.00  0.00    +0.000 A 
ATOM      8  C   UNL     1      34.708  -0.423  16.977  0.00  0.00    +0.000 A 
ATOM      9  C   UNL     1      35.557  -0.059  15.961  0.00  0.00    +0.000 A 
ENDROOT
BRANCH   1  10
ATOM     10  S   UNL     1      35.582   2.807  16.116  0.00  0.00    +0.000 S 
BRANCH  10  11
ATOM     11  C   UNL     1      36.609   4.034  15.284  0.00  0.00    +0.000 C 
BRANCH  11  13
ATOM     12  N   UNL     1      38.057   5.640  16.644  0.00  0.00    +0.000 NA
ATOM     13  C   UNL     1      37.835   4.349  16.092  0.00  0.00    +0.000 C 
ATOM     14  O   UNL     1      38.712   3.477  16.311  0.00  0.00    +0.000 OA
BRANCH  12  18
ATOM     15  C   UNL     1      41.554   6.377  18.830  0.00  0.00    +0.000 A 
ATOM     16  C   UNL     1      40.380   6.092  19.517  0.00  0.00    +0.000 A 
ATOM     17  C   UNL     1      39.238   5.853  18.785  0.00  0.00    +0.000 A 
ATOM     18  C   UNL     1      39.253   5.892  17.414  0.00  0.00    +0.000 A 
ATOM     19  C   UNL     1      40.419   6.174  16.764  0.00  0.00    +0.000 A 
ATOM     20  C   UNL     1      41.566   6.416  17.458  0.00  0.00    +0.000 A 
BRANCH  15  21
ATOM     21  O   UNL     1      42.759   6.633  19.492  0.00  0.00    +0.000 OA
BRANCH  21  23
ATOM     22  C   UNL     1      43.523   5.970  21.647  0.00  0.00    +0.000 C 
ATOM     23  C   UNL     1      42.756   7.010  20.860  0.00  0.00    +0.000 C 
ENDBRANCH  21  23
ENDBRANCH  15  21
ENDBRANCH  12  18
ENDBRANCH  11  13
ENDBRANCH  10  11
ENDBRANCH   1  10
BRANCH   3  24
ATOM     24  C   UNL     1      37.691  -1.169  13.292  0.00  0.00    +0.000 C 
BRANCH  24  25
ATOM     25  C   UNL     1      39.106  -1.346  13.738  0.00  0.00    +0.000 A 
ATOM     26  C   UNL     1      40.086  -0.423  13.443  0.00  0.00    +0.000 A 
ATOM     27  C   UNL     1      41.379  -0.621  13.873  0.00  0.00    +0.000 A 
ATOM     28  C   UNL     1      41.726  -1.736  14.601  0.00  0.00    +0.000 A 
ATOM     29  C   UNL     1      40.740  -2.651  14.890  0.00  0.00    +0.000 A 
ATOM     30  C   UNL     1      39.443  -2.465  14.468  0.00  0.00    +0.000 A 
ENDBRANCH  24  25
ENDBRANCH   3  24
TORSDOF 8
ENDMDL
MODEL 2
REMARK VINA RESULT:      -7.8      1.850      2.170
REMARK  Name = 
REMARK  8 active torsions:
REMARK  status: ('A' for Active; 'I' for Inactive)
REMARK    1  A    between atoms: C_2  and  O_3
REMARK    2  A    between atoms: O_3  and  C_4
REMARK    3  A    between atoms: C_7  and  N_8
REMARK    4  A    between atoms: C_9  and  C_11
REMARK    5  A    between atoms: C_11  and  S_12
REMARK    6  A    between atoms: S_12  and  C_13
REMARK    7  A    between atoms: N_15  and  C_16
REMARK    8  A    between atoms: C_16  and  C_17
REMARK                            x       y       z     vdW  Elec       q    Type
REMARK                         _______ _______ _______ _____ _____    ______ ____
ROOT
ATOM      1  C   UNL     1      36.299  -0.228  16.610  0.00  0.00    +0.000 A 
ATOM      2  C   UNL     1      36.832  -0.588  15.379  0.00  0.00    +0.000 A 
ATOM      3  N   UNL     1      37.752  -1.554  15.551  0.00  0.00    +0.000 N 
ATOM      4  C   UNL     1      37.859  -1.861  16.851  0.00  0.00    +0.000 A 
ATOM      5  C   UNL     1      38.626  -2.752  17.571  0.00  0.00    +0.000 A 
ATOM      6  C   UNL     1      38.537  -2.864  18.943  0.00  0.00    +0.000 A 
ATOM      7  C   UNL     1      37.636  -2.041  19.594  0.00  0.00    +0.000 A 
ATOM      8  C   UNL     1      36.862  -1.146  18.886  0.00  0.00    +0.000 A 
ATOM      9  C   UNL     1      36.955  -1.037  17.520  0.00  0.00    +0.000 A 
ENDROOT
BRANCH   1  10
ATOM     10  S   UNL     1      35.053   1.019  16.893  0.00  0.00    +0.000 S 
BRANCH  10  11
ATOM     11  C   UNL     1      35.514   2.541  16.042  0.00  0.00    +0.000 C 
BRANCH  11  13
ATOM     12  N   UNL     1      37.299   4.364  16.170  0.00  0.00    +0.000 NA
ATOM     13  C   UNL     1      36.700   3.188  16.698  0.00  0.00    +0.000 C 
ATOM     14  O   UNL     1      37.205   2.711  17.744  0.00  0.00    +0.000 OA
BRANCH  12  18
ATOM     15  C   UNL     1      40.629   6.060  18.063  0.00  0.00    +0.000 A 
ATOM     16  C   UNL     1      39.547   5.661  18.838  0.00  0.00    +0.000 A 
ATOM     17  C   UNL     1      38.459   5.105  18.201  0.00  0.00    +0.000 A 
ATOM     18  C   UNL     1      38.438   4.947  16.838  0.00  0.00    +0.000 A 
ATOM     19  C   UNL     1      39.513   5.348  16.101  0.00  0.00    +0.000 A 
ATOM     20  C   UNL     1      40.605   5.902  16.700  0.00  0.00    +0.000 A 
BRANCH  15  21
ATOM     21  O   UNL     1      41.774   6.634  18.624  0.00  0.00    +0.000 OA
BRANCH  21  23
ATOM     22  C   UNL     1      42.520   6.220  20.847  0.00  0.00    +0.000 C 
ATOM     23  C   UNL     1      41.739   7.151  19.946  0.00  0.00    +0.000 C 
ENDBRANCH  21  23
ENDBRANCH  15  21
ENDBRANCH  12  18
ENDBRANCH  11  13
ENDBRANCH  10  11
ENDBRANCH   1  10
BRANCH   3  24
ATOM     24  C   UNL     1      38.542  -2.207  14.517  0.00  0.00    +0.000 C 
BRANCH  24  25
ATOM     25  C   UNL     1      39.905  -1.604  14.415  0.00  0.00    +0.000 A 
ATOM     26  C   UNL     1      41.049  -2.346  14.617  0.00  0.00    +0.000 A 
ATOM     27  C   UNL     1      42.288  -1.753  14.513  0.00  0.00    +0.000 A 
ATOM     28  C   UNL     1      42.417  -0.418  14.207  0.00  0.00    +0.000 A 
ATOM     29  C   UNL     1      41.269   0.312  14.007  0.00  0.00    +0.000 A 
ATOM     30  C   UNL     1      40.024  -0.266  14.107  0.00  0.00    +0.000 A 
ENDBRANCH  24  25
ENDBRANCH   3  24
TORSDOF 8
ENDMDL
MODEL 3
REMARK VINA RESULT:      -7.8     23.873     27.823
REMARK  Name = 
REMARK  8 active torsions:
REMARK  status: ('A' for Active; 'I' for Inactive)
REMARK    1  A    between atoms: C_2  and  O_3
REMARK    2  A    between atoms: O_3  and  C_4
REMARK    3  A    between atoms: C_7  and  N_8
REMARK    4  A    between atoms: C_9  and  C_11
REMARK    5  A    between atoms: C_11  and  S_12
REMARK    6  A    between atoms: S_12  and  C_13
REMARK    7  A    between atoms: N_15  and  C_16
REMARK    8  A    between atoms: C_16  and  C_17
REMARK                            x       y       z     vdW  Elec       q    Type
REMARK                         _______ _______ _______ _____ _____    ______ ____
ROOT
ATOM      1  C   UNL     1      12.308   0.613  26.919  0.00  0.00    +0.000 A 
ATOM      2  C   UNL     1      12.297   1.959  27.260  0.00  0.00    +0.000 A 
ATOM      3  N   UNL     1      11.206   2.548  26.738  0.00  0.00    +0.000 N 
ATOM      4  C   UNL     1      10.479   1.650  26.059  0.00  0.00    +0.000 A 
ATOM      5  C   UNL     1       9.302   1.705  25.345  0.00  0.00    +0.000 A 
ATOM      6  C   UNL     1       8.762   0.598  24.724  0.00  0.00    +0.000 A 
ATOM      7  C   UNL     1       9.447  -0.597  24.838  0.00  0.00    +0.000 A 
ATOM      8  C   UNL     1      10.626  -0.666  25.550  0.00  0.00    +0.000 A 
ATOM      9  C   UNL     1      11.161   0.438  26.167  0.00  0.00    +0.000 A 
ENDROOT
BRANCH   1  10
ATOM     10  S   UNL     1      13.560  -0.577  27.372  0.00  0.00    +0.000 S 
BRANCH  10  11
ATOM     11  C   UNL     1      14.898   0.256  28.251  0.00  0.00    +0.000 C 
BRANCH  11  13
ATOM     12  N   UNL     1      16.210   0.065  26.068  0.00  0.00    +0.000 NA
ATOM     13  C   UNL     1      16.186   0.162  27.486  0.00  0.00    +0.000 C 
ATOM     14  O   UNL     1      17.295   0.168  28.076  0.00  0.00    +0.000 OA
BRANCH  12  18
ATOM     15  C   UNL     1      19.880  -0.244  24.072  0.00  0.00    +0.000 A 
ATOM     16  C   UNL     1      19.380   1.019  24.366  0.00  0.00    +0.000 A 
ATOM     17  C   UNL     1      18.171   1.105  25.022  0.00  0.00    +0.000 A 
ATOM     18  C   UNL     1      17.476  -0.023  25.379  0.00  0.00    +0.000 A 
ATOM     19  C   UNL     1      17.990  -1.250  25.079  0.00  0.00    +0.000 A 
ATOM     20  C   UNL     1      19.182  -1.370  24.430  0.00  0.00    +0.000 A 
BRANCH  15  21
ATOM     21  O   UNL     1      21.098  -0.425  23.408  0.00  0.00    +0.000 OA
BRANCH  21  23
ATOM     22  C   UNL     1      20.643  -1.132  21.181  0.00  0.00    +0.000 C 
ATOM     23  C   UNL     1      21.233  -0.042  22.048  0.00  0.00    +0.000 C 
ENDBRANCH  21  23
ENDBRANCH  15  21
ENDBRANCH  12  18
ENDBRANCH  11  13
ENDBRANCH  10  11
ENDBRANCH   1  10
BRANCH   3  24
ATOM     24  C   UNL     1      10.819   3.946  26.862  0.00  0.00    +0.000 C 
BRANCH  24  25
ATOM     25  C   UNL     1       9.786   4.131  27.925  0.00  0.00    +0.000 A 
ATOM     26  C   UNL     1      10.034   3.826  29.246  0.00  0.00    +0.000 A 
ATOM     27  C   UNL     1       9.055   4.011  30.197  0.00  0.00    +0.000 A 
ATOM     28  C   UNL     1       7.814   4.499  29.858  0.00  0.00    +0.000 A 
ATOM     29  C   UNL     1       7.578   4.801  28.536  0.00  0.00    +0.000 A 
ATOM     30  C   UNL     1       8.546   4.622  27.575  0.00  0.00    +0.000 A 
ENDBRANCH  24  25
ENDBRANCH   3  24
TORSDOF 8
ENDMDL
MODEL 4
REMARK VINA RESULT:      -7.4      2.071      3.975
REMARK  Name = 
REMARK  8 active torsions:
REMARK  status: ('A' for Active; 'I' for Inactive)
REMARK    1  A    between atoms: C_2  and  O_3
REMARK    2  A    between atoms: O_3  and  C_4
REMARK    3  A    between atoms: C_7  and  N_8
REMARK    4  A    between atoms: C_9  and  C_11
REMARK    5  A    between atoms: C_11  and  S_12
REMARK    6  A    between atoms: S_12  and  C_13
REMARK    7  A    between atoms: N_15  and  C_16
REMARK    8  A    between atoms: C_16  and  C_17
REMARK                            x       y       z     vdW  Elec       q    Type
REMARK                         _______ _______ _______ _____ _____    ______ ____
ROOT
ATOM      1  C   UNL     1      38.280   0.664  14.228  0.00  0.00    +0.000 A 
ATOM      2  C   UNL     1      37.400  -0.265  14.769  0.00  0.00    +0.000 A 
ATOM      3  N   UNL     1      38.075  -1.371  15.129  0.00  0.00    +0.000 N 
ATOM      4  C   UNL     1      39.378  -1.224  14.852  0.00  0.00    +0.000 A 
ATOM      5  C   UNL     1      40.492  -2.022  15.007  0.00  0.00    +0.000 A 
ATOM      6  C   UNL     1      41.752  -1.613  14.622  0.00  0.00    +0.000 A 
ATOM      7  C   UNL     1      41.874  -0.354  14.064  0.00  0.00    +0.000 A 
ATOM      8  C   UNL     1      40.768   0.454  13.905  0.00  0.00    +0.000 A 
ATOM      9  C   UNL     1      39.515   0.044  14.289  0.00  0.00    +0.000 A 
ENDROOT
BRANCH   1  10
ATOM     10  S   UNL     1      37.851   2.278  13.599  0.00  0.00    +0.000 S 
BRANCH  10  11
ATOM     11  C   UNL     1      36.754   3.111  14.764  0.00  0.00    +0.000 C 
BRANCH  11  13
ATOM     12  N   UNL     1      38.564   3.837  16.413  0.00  0.00    +0.000 NA
ATOM     13  C   UNL     1      37.490   4.164  15.541  0.00  0.00    +0.000 C 
ATOM     14  O   UNL     1      37.182   5.378  15.445  0.00  0.00    +0.000 OA
BRANCH  12  18
ATOM     15  C   UNL     1      40.494   6.873  18.559  0.00  0.00    +0.000 A 
ATOM     16  C   UNL     1      40.852   6.656  17.234  0.00  0.00    +0.000 A 
ATOM     17  C   UNL     1      40.210   5.654  16.541  0.00  0.00    +0.000 A 
ATOM     18  C   UNL     1      39.240   4.888  17.138  0.00  0.00    +0.000 A 
ATOM     19  C   UNL     1      38.908   5.122  18.440  0.00  0.00    +0.000 A 
ATOM     20  C   UNL     1      39.525   6.105  19.153  0.00  0.00    +0.000 A 
BRANCH  15  21
ATOM     21  O   UNL     1      41.094   7.868  19.338  0.00  0.00    +0.000 OA
BRANCH  21  23
ATOM     22  C   UNL     1      42.988   6.658  20.123  0.00  0.00    +0.000 C 
ATOM     23  C   UNL     1      41.808   7.519  20.514  0.00  0.00    +0.000 C 
ENDBRANCH  21  23
ENDBRANCH  15  21
ENDBRANCH  12  18
ENDBRANCH  11  13
ENDBRANCH  10  11
ENDBRANCH   1  10
BRANCH   3  24
ATOM     24  C   UNL     1      37.527  -2.576  15.735  0.00  0.00    +0.000 C 
BRANCH  24  25
ATOM     25  C   UNL     1      37.659  -2.543  17.222  0.00  0.00    +0.000 A 
ATOM     26  C   UNL     1      36.909  -1.690  18.003  0.00  0.00    +0.000 A 
ATOM     27  C   UNL     1      37.059  -1.689  19.372  0.00  0.00    +0.000 A 
ATOM     28  C   UNL     1      37.953  -2.532  19.992  0.00  0.00    +0.000 A 
ATOM     29  C   UNL     1      38.695  -3.380  19.203  0.00  0.00    +0.000 A 
ATOM     30  C   UNL     1      38.556  -3.392  17.834  0.00  0.00    +0.000 A 
ENDBRANCH  24  25
ENDBRANCH   3  24
TORSDOF 8
ENDMDL
MODEL 5
REMARK VINA RESULT:      -7.3     24.318     28.292
REMARK  Name = 
REMARK  8 active torsions:
REMARK  status: ('A' for Active; 'I' for Inactive)
REMARK    1  A    between atoms: C_2  and  O_3
REMARK    2  A    between atoms: O_3  and  C_4
REMARK    3  A    between atoms: C_7  and  N_8
REMARK    4  A    between atoms: C_9  and  C_11
REMARK    5  A    between atoms: C_11  and  S_12
REMARK    6  A    between atoms: S_12  and  C_13
REMARK    7  A    between atoms: N_15  and  C_16
REMARK    8  A    between atoms: C_16  and  C_17
REMARK                            x       y       z     vdW  Elec       q    Type
REMARK                         _______ _______ _______ _____ _____    ______ ____
ROOT
ATOM      1  C   UNL     1      11.439   0.293  27.761  0.00  0.00    +0.000 A 
ATOM      2  C   UNL     1      10.090  -0.030  27.842  0.00  0.00    +0.000 A 
ATOM      3  N   UNL     1       9.348   1.055  27.556  0.00  0.00    +0.000 N 
ATOM      4  C   UNL     1      10.145   2.098  27.285  0.00  0.00    +0.000 A 
ATOM      5  C   UNL     1       9.925   3.415  26.941  0.00  0.00    +0.000 A 
ATOM      6  C   UNL     1      10.956   4.302  26.714  0.00  0.00    +0.000 A 
ATOM      7  C   UNL     1      12.248   3.826  26.842  0.00  0.00    +0.000 A 
ATOM      8  C   UNL     1      12.482   2.510  27.185  0.00  0.00    +0.000 A 
ATOM      9  C   UNL     1      11.452   1.631  27.411  0.00  0.00    +0.000 A 
ENDROOT
BRANCH   1  10
ATOM     10  S   UNL     1      12.806  -0.814  28.065  0.00  0.00    +0.000 S 
BRANCH  10  11
ATOM     11  C   UNL     1      14.297   0.142  28.404  0.00  0.00    +0.000 C 
BRANCH  11  13
ATOM     12  N   UNL     1      16.707   0.092  27.558  0.00  0.00    +0.000 NA
ATOM     13  C   UNL     1      15.312  -0.034  27.312  0.00  0.00    +0.000 C 
ATOM     14  O   UNL     1      14.963  -0.303  26.136  0.00  0.00    +0.000 OA
BRANCH  12  18
ATOM     15  C   UNL     1      19.425  -0.479  24.422  0.00  0.00    +0.000 A 
ATOM     16  C   UNL     1      18.914   0.794  24.644  0.00  0.00    +0.000 A 
ATOM     17  C   UNL     1      18.021   0.967  25.679  0.00  0.00    +0.000 A 
ATOM     18  C   UNL     1      17.642  -0.087  26.473  0.00  0.00    +0.000 A 
ATOM     19  C   UNL     1      18.158  -1.326  26.232  0.00  0.00    +0.000 A 
ATOM     20  C   UNL     1      19.043  -1.531  25.217  0.00  0.00    +0.000 A 
BRANCH  15  21
ATOM     21  O   UNL     1      20.335  -0.745  23.394  0.00  0.00    +0.000 OA
BRANCH  21  23
ATOM     22  C   UNL     1      20.393  -1.590  21.169  0.00  0.00    +0.000 C 
ATOM     23  C   UNL     1      20.222  -1.937  22.632  0.00  0.00    +0.000 C 
ENDBRANCH  21  23
ENDBRANCH  15  21
ENDBRANCH  12  18
ENDBRANCH  11  13
ENDBRANCH  10  11
ENDBRANCH   1  10
BRANCH   3  24
ATOM     24  C   UNL     1       7.895   1.142  27.529  0.00  0.00    +0.000 C 
BRANCH  24  25
ATOM     25  C   UNL     1       7.367   0.952  26.144  0.00  0.00    +0.000 A 
ATOM     26  C   UNL     1       6.835   1.994  25.416  0.00  0.00    +0.000 A 
ATOM     27  C   UNL     1       6.359   1.778  24.141  0.00  0.00    +0.000 A 
ATOM     28  C   UNL     1       6.401   0.529  23.566  0.00  0.00    +0.000 A 
ATOM     29  C   UNL     1       6.935  -0.503  24.302  0.00  0.00    +0.000 A 
ATOM     30  C   UNL     1       7.415  -0.303  25.576  0.00  0.00    +0.000 A 
ENDBRANCH  24  25
ENDBRANCH   3  24
TORSDOF 8
ENDMDL
MODEL 6
REMARK VINA RESULT:      -7.3      3.053      9.012
REMARK  Name = 
REMARK  8 active torsions:
REMARK  status: ('A' for Active; 'I' for Inactive)
REMARK    1  A    between atoms: C_2  and  O_3
REMARK    2  A    between atoms: O_3  and  C_4
REMARK    3  A    between atoms: C_7  and  N_8
REMARK    4  A    between atoms: C_9  and  C_11
REMARK    5  A    between atoms: C_11  and  S_12
REMARK    6  A    between atoms: S_12  and  C_13
REMARK    7  A    between atoms: N_15  and  C_16
REMARK    8  A    between atoms: C_16  and  C_17
REMARK                            x       y       z     vdW  Elec       q    Type
REMARK                         _______ _______ _______ _____ _____    ______ ____
ROOT
ATOM      1  C   UNL     1      40.041   5.660  15.305  0.00  0.00    +0.000 A 
ATOM      2  C   UNL     1      39.183   5.467  16.380  0.00  0.00    +0.000 A 
ATOM      3  N   UNL     1      39.820   5.766  17.526  0.00  0.00    +0.000 N 
ATOM      4  C   UNL     1      41.076   6.154  17.266  0.00  0.00    +0.000 A 
ATOM      5  C   UNL     1      42.140   6.560  18.043  0.00  0.00    +0.000 A 
ATOM      6  C   UNL     1      43.359   6.911  17.501  0.00  0.00    +0.000 A 
ATOM      7  C   UNL     1      43.492   6.843  16.127  0.00  0.00    +0.000 A 
ATOM      8  C   UNL     1      42.435   6.439  15.338  0.00  0.00    +0.000 A 
ATOM      9  C   UNL     1      41.223   6.090  15.881  0.00  0.00    +0.000 A 
ENDROOT
BRANCH   1  10
ATOM     10  S   UNL     1      39.651   5.385  13.585  0.00  0.00    +0.000 S 
BRANCH  10  11
ATOM     11  C   UNL     1      39.904   3.646  13.177  0.00  0.00    +0.000 C 
BRANCH  11  13
ATOM     12  N   UNL     1      37.719   2.842  14.228  0.00  0.00    +0.000 NA
ATOM     13  C   UNL     1      39.133   2.755  14.108  0.00  0.00    +0.000 C 
ATOM     14  O   UNL     1      39.714   1.897  14.817  0.00  0.00    +0.000 OA
BRANCH  12  18
ATOM     15  C   UNL     1      35.701   0.332  16.906  0.00  0.00    +0.000 A 
ATOM     16  C   UNL     1      36.117  -0.185  15.686  0.00  0.00    +0.000 A 
ATOM     17  C   UNL     1      36.779   0.652  14.815  0.00  0.00    +0.000 A 
ATOM     18  C   UNL     1      37.025   1.963  15.139  0.00  0.00    +0.000 A 
ATOM     19  C   UNL     1      36.604   2.445  16.344  0.00  0.00    +0.000 A 
ATOM     20  C   UNL     1      35.947   1.643  17.228  0.00  0.00    +0.000 A 
BRANCH  15  21
ATOM     21  O   UNL     1      35.022  -0.446  17.850  0.00  0.00    +0.000 OA
BRANCH  21  23
ATOM     22  C   UNL     1      36.773  -1.341  19.192  0.00  0.00    +0.000 C 
ATOM     23  C   UNL     1      35.499  -0.525  19.185  0.00  0.00    +0.000 C 
ENDBRANCH  21  23
ENDBRANCH  15  21
ENDBRANCH  12  18
ENDBRANCH  11  13
ENDBRANCH  10  11
ENDBRANCH   1  10
BRANCH   3  24
ATOM     24  C   UNL     1      39.278   5.698  18.876  0.00  0.00    +0.000 C 
BRANCH  24  25
ATOM     25  C   UNL     1      38.779   7.033  19.326  0.00  0.00    +0.000 A 
ATOM     26  C   UNL     1      37.780   7.704  18.654  0.00  0.00    +0.000 A 
ATOM     27  C   UNL     1      37.346   8.932  19.100  0.00  0.00    +0.000 A 
ATOM     28  C   UNL     1      37.892   9.518  20.219  0.00  0.00    +0.000 A 
ATOM     29  C   UNL     1      38.888   8.838  20.883  0.00  0.00    +0.000 A 
ATOM     30  C   UNL     1      39.331   7.610  20.448  0.00  0.00    +0.000 A 
ENDBRANCH  24  25
ENDBRANCH   3  24
TORSDOF 8
ENDMDL
MODEL 7
REMARK VINA RESULT:      -7.3      2.053      4.541
REMARK  Name = 
REMARK  8 active torsions:
REMARK  status: ('A' for Active; 'I' for Inactive)
REMARK    1  A    between atoms: C_2  and  O_3
REMARK    2  A    between atoms: O_3  and  C_4
REMARK    3  A    between atoms: C_7  and  N_8
REMARK    4  A    between atoms: C_9  and  C_11
REMARK    5  A    between atoms: C_11  and  S_12
REMARK    6  A    between atoms: S_12  and  C_13
REMARK    7  A    between atoms: N_15  and  C_16
REMARK    8  A    between atoms: C_16  and  C_17
REMARK                            x       y       z     vdW  Elec       q    Type
REMARK                         _______ _______ _______ _____ _____    ______ ____
ROOT
ATOM      1  C   UNL     1      38.490  -0.280  12.905  0.00  0.00    +0.000 A 
ATOM      2  C   UNL     1      37.195  -0.465  13.371  0.00  0.00    +0.000 A 
ATOM      3  N   UNL     1      37.197  -1.384  14.354  0.00  0.00    +0.000 N 
ATOM      4  C   UNL     1      38.444  -1.824  14.570  0.00  0.00    +0.000 A 
ATOM      5  C   UNL     1      39.007  -2.740  15.433  0.00  0.00    +0.000 A 
ATOM      6  C   UNL     1      40.359  -3.012  15.443  0.00  0.00    +0.000 A 
ATOM      7  C   UNL     1      41.156  -2.327  14.543  0.00  0.00    +0.000 A 
ATOM      8  C   UNL     1      40.605  -1.408  13.675  0.00  0.00    +0.000 A 
ATOM      9  C   UNL     1      39.258  -1.140  13.668  0.00  0.00    +0.000 A 
ENDROOT
BRANCH   1  10
ATOM     10  S   UNL     1      38.989   0.830  11.598  0.00  0.00    +0.000 S 
BRANCH  10  11
ATOM     11  C   UNL     1      38.308   2.472  11.904  0.00  0.00    +0.000 C 
BRANCH  11  13
ATOM     12  N   UNL     1      37.848   3.906  13.968  0.00  0.00    +0.000 NA
ATOM     13  C   UNL     1      38.649   2.949  13.286  0.00  0.00    +0.000 C 
ATOM     14  O   UNL     1      39.660   2.516  13.893  0.00  0.00    +0.000 OA
BRANCH  12  18
ATOM     15  C   UNL     1      38.894   5.108  17.842  0.00  0.00    +0.000 A 
ATOM     16  C   UNL     1      39.512   5.721  16.759  0.00  0.00    +0.000 A 
ATOM     17  C   UNL     1      39.159   5.314  15.491  0.00  0.00    +0.000 A 
ATOM     18  C   UNL     1      38.221   4.332  15.296  0.00  0.00    +0.000 A 
ATOM     19  C   UNL     1      37.629   3.747  16.376  0.00  0.00    +0.000 A 
ATOM     20  C   UNL     1      37.956   4.125  17.644  0.00  0.00    +0.000 A 
BRANCH  15  21
ATOM     21  O   UNL     1      39.191   5.456  19.163  0.00  0.00    +0.000 OA
BRANCH  21  23
ATOM     22  C   UNL     1      39.779   7.469  20.290  0.00  0.00    +0.000 C 
ATOM     23  C   UNL     1      40.282   6.320  19.445  0.00  0.00    +0.000 C 
ENDBRANCH  21  23
ENDBRANCH  15  21
ENDBRANCH  12  18
ENDBRANCH  11  13
ENDBRANCH  10  11
ENDBRANCH   1  10
BRANCH   3  24
ATOM     24  C   UNL     1      36.048  -1.864  15.108  0.00  0.00    +0.000 C 
BRANCH  24  25
ATOM     25  C   UNL     1      35.941  -1.176  16.430  0.00  0.00    +0.000 A 
ATOM     26  C   UNL     1      36.261  -1.810  17.611  0.00  0.00    +0.000 A 
ATOM     27  C   UNL     1      36.149  -1.141  18.810  0.00  0.00    +0.000 A 
ATOM     28  C   UNL     1      35.721   0.165  18.862  0.00  0.00    +0.000 A 
ATOM     29  C   UNL     1      35.405   0.788  17.676  0.00  0.00    +0.000 A 
ATOM     30  C   UNL     1      35.511   0.133  16.471  0.00  0.00    +0.000 A 
ENDBRANCH  24  25
ENDBRANCH   3  24
TORSDOF 8
ENDMDL
MODEL 8
REMARK VINA RESULT:      -7.2      4.977      7.520
REMARK  Name = 
REMARK  8 active torsions:
REMARK  status: ('A' for Active; 'I' for Inactive)
REMARK    1  A    between atoms: C_2  and  O_3
REMARK    2  A    between atoms: O_3  and  C_4
REMARK    3  A    between atoms: C_7  and  N_8
REMARK    4  A    between atoms: C_9  and  C_11
REMARK    5  A    between atoms: C_11  and  S_12
REMARK    6  A    between atoms: S_12  and  C_13
REMARK    7  A    between atoms: N_15  and  C_16
REMARK    8  A    between atoms: C_16  and  C_17
REMARK                            x       y       z     vdW  Elec       q    Type
REMARK                         _______ _______ _______ _____ _____    ______ ____
ROOT
ATOM      1  C   UNL     1      35.468  -2.327  16.704  0.00  0.00    +0.000 A 
ATOM      2  C   UNL     1      34.933  -3.234  15.798  0.00  0.00    +0.000 A 
ATOM      3  N   UNL     1      35.664  -4.363  15.803  0.00  0.00    +0.000 N 
ATOM      4  C   UNL     1      36.672  -4.253  16.680  0.00  0.00    +0.000 A 
ATOM      5  C   UNL     1      37.697  -5.085  17.078  0.00  0.00    +0.000 A 
ATOM      6  C   UNL     1      38.627  -4.710  18.025  0.00  0.00    +0.000 A 
ATOM      7  C   UNL     1      38.502  -3.449  18.579  0.00  0.00    +0.000 A 
ATOM      8  C   UNL     1      37.481  -2.608  18.191  0.00  0.00    +0.000 A 
ATOM      9  C   UNL     1      36.557  -2.985  17.247  0.00  0.00    +0.000 A 
ENDROOT
BRANCH   1  10
ATOM     10  S   UNL     1      34.850  -0.687  17.041  0.00  0.00    +0.000 S 
BRANCH  10  11
ATOM     11  C   UNL     1      35.540   0.478  15.849  0.00  0.00    +0.000 C 
BRANCH  11  13
ATOM     12  N   UNL     1      38.049   0.000  15.880  0.00  0.00    +0.000 NA
ATOM     13  C   UNL     1      36.790  -0.068  15.222  0.00  0.00    +0.000 C 
ATOM     14  O   UNL     1      36.767  -0.609  14.089  0.00  0.00    +0.000 OA
BRANCH  12  18
ATOM     15  C   UNL     1      41.443  -1.613  14.027  0.00  0.00    +0.000 A 
ATOM     16  C   UNL     1      41.125  -0.279  13.803  0.00  0.00    +0.000 A 
ATOM     17  C   UNL     1      40.006   0.238  14.418  0.00  0.00    +0.000 A 
ATOM     18  C   UNL     1      39.222  -0.539  15.233  0.00  0.00    +0.000 A 
ATOM     19  C   UNL     1      39.556  -1.846  15.437  0.00  0.00    +0.000 A 
ATOM     20  C   UNL     1      40.656  -2.388  14.843  0.00  0.00    +0.000 A 
BRANCH  15  21
ATOM     21  O   UNL     1      42.559  -2.220  13.444  0.00  0.00    +0.000 OA
BRANCH  21  23
ATOM     22  C   UNL     1      41.800  -3.323  11.475  0.00  0.00    +0.000 C 
ATOM     23  C   UNL     1      42.702  -2.244  12.032  0.00  0.00    +0.000 C 
ENDBRANCH  21  23
ENDBRANCH  15  21
ENDBRANCH  12  18
ENDBRANCH  11  13
ENDBRANCH  10  11
ENDBRANCH   1  10
BRANCH   3  24
ATOM     24  C   UNL     1      35.440  -5.557  15.001  0.00  0.00    +0.000 C 
BRANCH  24  25
ATOM     25  C   UNL     1      34.593  -6.548  15.730  0.00  0.00    +0.000 A 
ATOM     26  C   UNL     1      35.137  -7.486  16.582  0.00  0.00    +0.000 A 
ATOM     27  C   UNL     1      34.322  -8.384  17.237  0.00  0.00    +0.000 A 
ATOM     28  C   UNL     1      32.958  -8.369  17.062  0.00  0.00    +0.000 A 
ATOM     29  C   UNL     1      32.427  -7.427  16.210  0.00  0.00    +0.000 A 
ATOM     30  C   UNL     1      33.228  -6.525  15.549  0.00  0.00    +0.000 A 
ENDBRANCH  24  25
ENDBRANCH   3  24
TORSDOF 8
ENDMDL
MODEL 9
REMARK VINA RESULT:      -7.1      2.661      7.755
REMARK  Name = 
REMARK  8 active torsions:
REMARK  status: ('A' for Active; 'I' for Inactive)
REMARK    1  A    between atoms: C_2  and  O_3
REMARK    2  A    between atoms: O_3  and  C_4
REMARK    3  A    between atoms: C_7  and  N_8
REMARK    4  A    between atoms: C_9  and  C_11
REMARK    5  A    between atoms: C_11  and  S_12
REMARK    6  A    between atoms: S_12  and  C_13
REMARK    7  A    between atoms: N_15  and  C_16
REMARK    8  A    between atoms: C_16  and  C_17
REMARK                            x       y       z     vdW  Elec       q    Type
REMARK                         _______ _______ _______ _____ _____    ______ ____
ROOT
ATOM      1  C   UNL     1      36.730   3.345  16.258  0.00  0.00    +0.000 A 
ATOM      2  C   UNL     1      37.898   3.796  16.861  0.00  0.00    +0.000 A 
ATOM      3  N   UNL     1      38.361   4.872  16.199  0.00  0.00    +0.000 N 
ATOM      4  C   UNL     1      37.550   5.165  15.173  0.00  0.00    +0.000 A 
ATOM      5  C   UNL     1      37.546   6.135  14.194  0.00  0.00    +0.000 A 
ATOM      6  C   UNL     1      36.563   6.208  13.230  0.00  0.00    +0.000 A 
ATOM      7  C   UNL     1      35.556   5.261  13.270  0.00  0.00    +0.000 A 
ATOM      8  C   UNL     1      35.547   4.285  14.245  0.00  0.00    +0.000 A 
ATOM      9  C   UNL     1      36.528   4.216  15.203  0.00  0.00    +0.000 A 
ENDROOT
BRANCH   1  10
ATOM     10  S   UNL     1      35.757   1.940  16.771  0.00  0.00    +0.000 S 
BRANCH  10  11
ATOM     11  C   UNL     1      35.574   0.792  15.392  0.00  0.00    +0.000 C 
BRANCH  11  13
ATOM     12  N   UNL     1      38.007   0.087  15.722  0.00  0.00    +0.000 NA
ATOM     13  C   UNL     1      36.914   0.371  14.859  0.00  0.00    +0.000 C 
ATOM     14  O   UNL     1      37.115   0.253  13.625  0.00  0.00    +0.000 OA
BRANCH  12  18
ATOM     15  C   UNL     1      41.694  -1.024  14.071  0.00  0.00    +0.000 A 
ATOM     16  C   UNL     1      40.932  -1.987  14.721  0.00  0.00    +0.000 A 
ATOM     17  C   UNL     1      39.722  -1.607  15.260  0.00  0.00    +0.000 A 
ATOM     18  C   UNL     1      39.276  -0.313  15.159  0.00  0.00    +0.000 A 
ATOM     19  C   UNL     1      40.044   0.613  14.516  0.00  0.00    +0.000 A 
ATOM     20  C   UNL     1      41.245   0.269  13.973  0.00  0.00    +0.000 A 
BRANCH  15  21
ATOM     21  O   UNL     1      42.934  -1.321  13.496  0.00  0.00    +0.000 OA
BRANCH  21  23
ATOM     22  C   UNL     1      44.570  -0.492  15.013  0.00  0.00    +0.000 C 
ATOM     23  C   UNL     1      44.023  -1.717  14.315  0.00  0.00    +0.000 C 
ENDBRANCH  21  23
ENDBRANCH  15  21
ENDBRANCH  12  18
ENDBRANCH  11  13
ENDBRANCH  10  11
ENDBRANCH   1  10
BRANCH   3  24
ATOM     24  C   UNL     1      39.557   5.643  16.506  0.00  0.00    +0.000 C 
BRANCH  24  25
ATOM     25  C   UNL     1      39.449   6.300  17.844  0.00  0.00    +0.000 A 
ATOM     26  C   UNL     1      40.335   6.028  18.864  0.00  0.00    +0.000 A 
ATOM     27  C   UNL     1      40.203   6.655  20.084  0.00  0.00    +0.000 A 
ATOM     28  C   UNL     1      39.193   7.560  20.315  0.00  0.00    +0.000 A 
ATOM     29  C   UNL     1      38.315   7.823  19.289  0.00  0.00    +0.000 A 
ATOM     30  C   UNL     1      38.434   7.206  18.066  0.00  0.00    +0.000 A 
ENDBRANCH  24  25
ENDBRANCH   3  24
TORSDOF 8
ENDMDL
MODEL 10
REMARK VINA RESULT:      -7.0      3.680      4.862
REMARK  Name = 
REMARK  8 active torsions:
REMARK  status: ('A' for Active; 'I' for Inactive)
REMARK    1  A    between atoms: C_2  and  O_3
REMARK    2  A    between atoms: O_3  and  C_4
REMARK    3  A    between atoms: C_7  and  N_8
REMARK    4  A    between atoms: C_9  and  C_11
REMARK    5  A    between atoms: C_11  and  S_12
REMARK    6  A    between atoms: S_12  and  C_13
REMARK    7  A    between atoms: N_15  and  C_16
REMARK    8  A    between atoms: C_16  and  C_17
REMARK                            x       y       z     vdW  Elec       q    Type
REMARK                         _______ _______ _______ _____ _____    ______ ____
ROOT
ATOM      1  C   UNL     1      35.866   0.590  15.465  0.00  0.00    +0.000 A 
ATOM      2  C   UNL     1      36.189  -0.492  14.656  0.00  0.00    +0.000 A 
ATOM      3  N   UNL     1      36.572  -1.529  15.423  0.00  0.00    +0.000 N 
ATOM      4  C   UNL     1      36.519  -1.188  16.718  0.00  0.00    +0.000 A 
ATOM      5  C   UNL     1      36.796  -1.843  17.899  0.00  0.00    +0.000 A 
ATOM      6  C   UNL     1      36.654  -1.238  19.130  0.00  0.00    +0.000 A 
ATOM      7  C   UNL     1      36.218   0.074  19.151  0.00  0.00    +0.000 A 
ATOM      8  C   UNL     1      35.937   0.741  17.977  0.00  0.00    +0.000 A 
ATOM      9  C   UNL     1      36.079   0.135  16.753  0.00  0.00    +0.000 A 
ENDROOT
BRANCH   1  10
ATOM     10  S   UNL     1      35.315   2.194  14.905  0.00  0.00    +0.000 S 
BRANCH  10  11
ATOM     11  C   UNL     1      36.447   3.466  15.501  0.00  0.00    +0.000 C 
BRANCH  11  13
ATOM     12  N   UNL     1      38.196   2.438  13.947  0.00  0.00    +0.000 NA
ATOM     13  C   UNL     1      37.868   3.135  15.143  0.00  0.00    +0.000 C 
ATOM     14  O   UNL     1      38.821   3.464  15.891  0.00  0.00    +0.000 OA
BRANCH  12  18
ATOM     15  C   UNL     1      42.200   1.538  13.111  0.00  0.00    +0.000 A 
ATOM     16  C   UNL     1      41.664   2.724  12.626  0.00  0.00    +0.000 A 
ATOM     17  C   UNL     1      40.345   3.007  12.909  0.00  0.00    +0.000 A 
ATOM     18  C   UNL     1      39.578   2.144  13.649  0.00  0.00    +0.000 A 
ATOM     19  C   UNL     1      40.129   0.986  14.113  0.00  0.00    +0.000 A 
ATOM     20  C   UNL     1      41.430   0.676  13.851  0.00  0.00    +0.000 A 
BRANCH  15  21
ATOM     21  O   UNL     1      43.528   1.170  12.872  0.00  0.00    +0.000 OA
BRANCH  21  23
ATOM     22  C   UNL     1      44.279  -1.013  12.290  0.00  0.00    +0.000 C 
ATOM     23  C   UNL     1      43.851   0.340  11.767  0.00  0.00    +0.000 C 
ENDBRANCH  21  23
ENDBRANCH  15  21
ENDBRANCH  12  18
ENDBRANCH  11  13
ENDBRANCH  10  11
ENDBRANCH   1  10
BRANCH   3  24
ATOM     24  C   UNL     1      36.990  -2.848  14.970  0.00  0.00    +0.000 C 
BRANCH  24  25
ATOM     25  C   UNL     1      38.415  -2.840  14.519  0.00  0.00    +0.000 A 
ATOM     26  C   UNL     1      39.463  -2.823  15.414  0.00  0.00    +0.000 A 
ATOM     27  C   UNL     1      40.764  -2.817  14.960  0.00  0.00    +0.000 A 
ATOM     28  C   UNL     1      41.049  -2.827  13.614  0.00  0.00    +0.000 A 
ATOM     29  C   UNL     1      39.995  -2.845  12.730  0.00  0.00    +0.000 A 
ATOM     30  C   UNL     1      38.691  -2.852  13.169  0.00  0.00    +0.000 A 
ENDBRANCH  24  25
ENDBRANCH   3  24
TORSDOF 8
ENDMDL
