MODEL 1
REMARK VINA RESULT:      -5.4      0.000      0.000
REMARK  Name = 
REMARK  4 active torsions:
REMARK  status: ('A' for Active; 'I' for Inactive)
REMARK    1  A    between atoms: O_2  and  C_3
REMARK    2  A    between atoms: C_9  and  S_10
REMARK    3  A    between atoms: S_10  and  C_11
REMARK    4  A    between atoms: C_14  and  C_15
REMARK                            x       y       z     vdW  Elec       q    Type
REMARK                         _______ _______ _______ _____ _____    ______ ____
ROOT
ATOM      1  C   UNL     1      27.585  22.655  29.064  0.00  0.00    +0.000 A 
ATOM      2  C   UNL     1      26.365  23.281  28.860  0.00  0.00    +0.000 A 
ATOM      3  C   UNL     1      25.977  23.773  27.635  0.00  0.00    +0.000 A 
ATOM      4  C   UNL     1      26.801  23.664  26.529  0.00  0.00    +0.000 A 
ATOM      5  C   UNL     1      28.019  23.042  26.720  0.00  0.00    +0.000 A 
ATOM      6  C   UNL     1      28.406  22.547  27.962  0.00  0.00    +0.000 A 
ATOM      7  C   UNL     1      28.618  23.071  25.479  0.00  0.00    +0.000 A 
ATOM      8  C   UNL     1      27.772  23.691  24.589  0.00  0.00    +0.000 A 
ATOM      9  N   UNL     1      26.646  24.057  25.246  0.00  0.00    +0.000 N 
ATOM     10  C   UNL     1      25.499  24.745  24.658  0.00  0.00    +0.000 C 
ENDROOT
BRANCH   8  11
ATOM     11  C   UNL     1      28.045  23.916  23.164  0.00  0.00    +0.000 C 
ATOM     12  N   UNL     1      28.842  25.005  22.735  0.00  0.00    +0.000 NA
ATOM     13  O   UNL     1      27.565  23.129  22.304  0.00  0.00    +0.000 OA
ENDBRANCH   8  11
BRANCH   1  15
ATOM     14  C   UNL     1      29.154  22.472  30.957  0.00  0.00    +0.000 C 
ATOM     15  O   UNL     1      27.932  22.172  30.335  0.00  0.00    +0.000 OA
ENDBRANCH   1  15
BRANCH   7  16
ATOM     16  S   UNL     1      30.219  22.441  25.036  0.00  0.00    +0.000 S 
BRANCH  16  17
ATOM     17  C   UNL     1      31.584  23.365  25.598  0.00  0.00    +0.000 C 
ATOM     18  C   UNL     1      31.789  23.634  27.010  0.00  0.00    +0.000 C 
ATOM     19  C   UNL     1      32.481  23.991  24.611  0.00  0.00    +0.000 C 
ENDBRANCH  16  17
ENDBRANCH   7  16
TORSDOF 4
ENDMDL
MODEL 2
REMARK VINA RESULT:      -5.2      3.004      6.158
REMARK  Name = 
REMARK  4 active torsions:
REMARK  status: ('A' for Active; 'I' for Inactive)
REMARK    1  A    between atoms: O_2  and  C_3
REMARK    2  A    between atoms: C_9  and  S_10
REMARK    3  A    between atoms: S_10  and  C_11
REMARK    4  A    between atoms: C_14  and  C_15
REMARK                            x       y       z     vdW  Elec       q    Type
REMARK                         _______ _______ _______ _____ _____    ______ ____
ROOT
ATOM      1  C   UNL     1      29.347  26.361  20.517  0.00  0.00    +0.000 A 
ATOM      2  C   UNL     1      28.482  27.407  20.798  0.00  0.00    +0.000 A 
ATOM      3  C   UNL     1      27.660  27.416  21.901  0.00  0.00    +0.000 A 
ATOM      4  C   UNL     1      27.657  26.363  22.798  0.00  0.00    +0.000 A 
ATOM      5  C   UNL     1      28.514  25.314  22.529  0.00  0.00    +0.000 A 
ATOM      6  C   UNL     1      29.344  25.311  21.411  0.00  0.00    +0.000 A 
ATOM      7  C   UNL     1      28.309  24.428  23.563  0.00  0.00    +0.000 A 
ATOM      8  C   UNL     1      27.358  24.944  24.412  0.00  0.00    +0.000 A 
ATOM      9  N   UNL     1      26.957  26.145  23.933  0.00  0.00    +0.000 N 
ATOM     10  C   UNL     1      25.958  27.019  24.544  0.00  0.00    +0.000 C 
ENDROOT
BRANCH   8  11
ATOM     11  C   UNL     1      26.863  24.301  25.636  0.00  0.00    +0.000 C 
ATOM     12  N   UNL     1      25.728  23.455  25.609  0.00  0.00    +0.000 NA
ATOM     13  O   UNL     1      27.455  24.501  26.731  0.00  0.00    +0.000 OA
ENDBRANCH   8  11
BRANCH   1  15
ATOM     14  C   UNL     1      30.547  27.599  18.755  0.00  0.00    +0.000 C 
ATOM     15  O   UNL     1      30.165  26.401  19.377  0.00  0.00    +0.000 OA
ENDBRANCH   1  15
BRANCH   7  16
ATOM     16  S   UNL     1      29.096  22.854  23.812  0.00  0.00    +0.000 S 
BRANCH  16  17
ATOM     17  C   UNL     1      30.444  22.842  24.915  0.00  0.00    +0.000 C 
ATOM     18  C   UNL     1      30.306  22.362  26.278  0.00  0.00    +0.000 C 
ATOM     19  C   UNL     1      31.720  23.447  24.493  0.00  0.00    +0.000 C 
ENDBRANCH  16  17
ENDBRANCH   7  16
TORSDOF 4
ENDMDL
MODEL 3
REMARK VINA RESULT:      -5.2      2.312      4.322
REMARK  Name = 
REMARK  4 active torsions:
REMARK  status: ('A' for Active; 'I' for Inactive)
REMARK    1  A    between atoms: O_2  and  C_3
REMARK    2  A    between atoms: C_9  and  S_10
REMARK    3  A    between atoms: S_10  and  C_11
REMARK    4  A    between atoms: C_14  and  C_15
REMARK                            x       y       z     vdW  Elec       q    Type
REMARK                         _______ _______ _______ _____ _____    ______ ____
ROOT
ATOM      1  C   UNL     1      30.808  22.535  28.765  0.00  0.00    +0.000 A 
ATOM      2  C   UNL     1      31.432  22.374  27.538  0.00  0.00    +0.000 A 
ATOM      3  C   UNL     1      30.773  22.536  26.341  0.00  0.00    +0.000 A 
ATOM      4  C   UNL     1      29.432  22.876  26.305  0.00  0.00    +0.000 A 
ATOM      5  C   UNL     1      28.799  23.039  27.521  0.00  0.00    +0.000 A 
ATOM      6  C   UNL     1      29.471  22.873  28.729  0.00  0.00    +0.000 A 
ATOM      7  C   UNL     1      27.502  23.368  27.192  0.00  0.00    +0.000 A 
ATOM      8  C   UNL     1      27.382  23.397  25.823  0.00  0.00    +0.000 A 
ATOM      9  N   UNL     1      28.583  23.090  25.277  0.00  0.00    +0.000 N 
ATOM     10  C   UNL     1      28.877  23.012  23.848  0.00  0.00    +0.000 C 
ENDROOT
BRANCH   8  11
ATOM     11  C   UNL     1      26.156  23.709  25.077  0.00  0.00    +0.000 C 
ATOM     12  N   UNL     1      25.775  25.050  24.826  0.00  0.00    +0.000 NA
ATOM     13  O   UNL     1      25.429  22.773  24.649  0.00  0.00    +0.000 OA
ENDBRANCH   8  11
BRANCH   1  15
ATOM     14  C   UNL     1      32.669  21.546  30.045  0.00  0.00    +0.000 C 
ATOM     15  O   UNL     1      31.526  22.356  29.958  0.00  0.00    +0.000 OA
ENDBRANCH   1  15
BRANCH   7  16
ATOM     16  S   UNL     1      26.155  23.700  28.303  0.00  0.00    +0.000 S 
BRANCH  16  17
ATOM     17  C   UNL     1      26.395  23.216  29.959  0.00  0.00    +0.000 C 
ATOM     18  C   UNL     1      26.325  21.823  30.360  0.00  0.00    +0.000 C 
ATOM     19  C   UNL     1      26.549  24.254  30.993  0.00  0.00    +0.000 C 
ENDBRANCH  16  17
ENDBRANCH   7  16
TORSDOF 4
ENDMDL
MODEL 4
REMARK VINA RESULT:      -5.2      2.095      5.396
REMARK  Name = 
REMARK  4 active torsions:
REMARK  status: ('A' for Active; 'I' for Inactive)
REMARK    1  A    between atoms: O_2  and  C_3
REMARK    2  A    between atoms: C_9  and  S_10
REMARK    3  A    between atoms: S_10  and  C_11
REMARK    4  A    between atoms: C_14  and  C_15
REMARK                            x       y       z     vdW  Elec       q    Type
REMARK                         _______ _______ _______ _____ _____    ______ ____
ROOT
ATOM      1  C   UNL     1      29.018  24.838  21.521  0.00  0.00    +0.000 A 
ATOM      2  C   UNL     1      27.635  24.824  21.610  0.00  0.00    +0.000 A 
ATOM      3  C   UNL     1      26.966  24.450  22.753  0.00  0.00    +0.000 A 
ATOM      4  C   UNL     1      27.656  24.064  23.888  0.00  0.00    +0.000 A 
ATOM      5  C   UNL     1      29.034  24.074  23.813  0.00  0.00    +0.000 A 
ATOM      6  C   UNL     1      29.705  24.453  22.653  0.00  0.00    +0.000 A 
ATOM      7  C   UNL     1      29.450  23.656  25.058  0.00  0.00    +0.000 A 
ATOM      8  C   UNL     1      28.345  23.410  25.839  0.00  0.00    +0.000 A 
ATOM      9  N   UNL     1      27.234  23.664  25.108  0.00  0.00    +0.000 N 
ATOM     10  C   UNL     1      25.855  23.526  25.572  0.00  0.00    +0.000 C 
ENDROOT
BRANCH   8  11
ATOM     11  C   UNL     1      28.367  22.950  27.234  0.00  0.00    +0.000 C 
ATOM     12  N   UNL     1      28.543  23.862  28.301  0.00  0.00    +0.000 NA
ATOM     13  O   UNL     1      28.224  21.724  27.489  0.00  0.00    +0.000 OA
ENDBRANCH   8  11
BRANCH   1  15
ATOM     14  C   UNL     1      29.718  26.564  19.905  0.00  0.00    +0.000 C 
ATOM     15  O   UNL     1      29.650  25.228  20.331  0.00  0.00    +0.000 OA
ENDBRANCH   1  15
BRANCH   7  16
ATOM     16  S   UNL     1      31.120  23.437  25.624  0.00  0.00    +0.000 S 
BRANCH  16  17
ATOM     17  C   UNL     1      32.248  24.685  25.172  0.00  0.00    +0.000 C 
ATOM     18  C   UNL     1      33.613  24.372  24.789  0.00  0.00    +0.000 C 
ATOM     19  C   UNL     1      31.845  26.096  25.302  0.00  0.00    +0.000 C 
ENDBRANCH  16  17
ENDBRANCH   7  16
TORSDOF 4
ENDMDL
MODEL 5
REMARK VINA RESULT:      -5.2      2.558      6.203
REMARK  Name = 
REMARK  4 active torsions:
REMARK  status: ('A' for Active; 'I' for Inactive)
REMARK    1  A    between atoms: O_2  and  C_3
REMARK    2  A    between atoms: C_9  and  S_10
REMARK    3  A    between atoms: S_10  and  C_11
REMARK    4  A    between atoms: C_14  and  C_15
REMARK                            x       y       z     vdW  Elec       q    Type
REMARK                         _______ _______ _______ _____ _____    ______ ____
ROOT
ATOM      1  C   UNL     1      28.713  22.972  24.044  0.00  0.00    +0.000 A 
ATOM      2  C   UNL     1      30.028  22.622  24.305  0.00  0.00    +0.000 A 
ATOM      3  C   UNL     1      30.526  22.502  25.582  0.00  0.00    +0.000 A 
ATOM      4  C   UNL     1      29.724  22.729  26.686  0.00  0.00    +0.000 A 
ATOM      5  C   UNL     1      28.411  23.079  26.439  0.00  0.00    +0.000 A 
ATOM      6  C   UNL     1      27.913  23.199  25.144  0.00  0.00    +0.000 A 
ATOM      7  C   UNL     1      27.857  23.239  27.690  0.00  0.00    +0.000 A 
ATOM      8  C   UNL     1      28.818  22.989  28.640  0.00  0.00    +0.000 A 
ATOM      9  N   UNL     1      29.976  22.673  28.012  0.00  0.00    +0.000 N 
ATOM     10  C   UNL     1      31.240  22.340  28.665  0.00  0.00    +0.000 C 
ENDROOT
BRANCH   8  11
ATOM     11  C   UNL     1      28.622  23.052  30.094  0.00  0.00    +0.000 C 
ATOM     12  N   UNL     1      28.962  24.214  30.828  0.00  0.00    +0.000 NA
ATOM     13  O   UNL     1      28.142  22.058  30.704  0.00  0.00    +0.000 OA
ENDBRANCH   8  11
BRANCH   1  15
ATOM     14  C   UNL     1      28.745  24.040  21.822  0.00  0.00    +0.000 C 
ATOM     15  O   UNL     1      28.255  23.081  22.722  0.00  0.00    +0.000 OA
ENDBRANCH   1  15
BRANCH   7  16
ATOM     16  S   UNL     1      26.186  23.703  28.082  0.00  0.00    +0.000 S 
BRANCH  16  17
ATOM     17  C   UNL     1      25.990  25.233  28.889  0.00  0.00    +0.000 C 
ATOM     18  C   UNL     1      26.482  26.468  28.306  0.00  0.00    +0.000 C 
ATOM     19  C   UNL     1      25.423  25.257  30.249  0.00  0.00    +0.000 C 
ENDBRANCH  16  17
ENDBRANCH   7  16
TORSDOF 4
ENDMDL
MODEL 6
REMARK VINA RESULT:      -5.2      2.146      2.792
REMARK  Name = 
REMARK  4 active torsions:
REMARK  status: ('A' for Active; 'I' for Inactive)
REMARK    1  A    between atoms: O_2  and  C_3
REMARK    2  A    between atoms: C_9  and  S_10
REMARK    3  A    between atoms: S_10  and  C_11
REMARK    4  A    between atoms: C_14  and  C_15
REMARK                            x       y       z     vdW  Elec       q    Type
REMARK                         _______ _______ _______ _____ _____    ______ ____
ROOT
ATOM      1  C   UNL     1      25.654  24.736  30.044  0.00  0.00    +0.000 A 
ATOM      2  C   UNL     1      24.775  25.735  29.654  0.00  0.00    +0.000 A 
ATOM      3  C   UNL     1      24.488  25.999  28.334  0.00  0.00    +0.000 A 
ATOM      4  C   UNL     1      25.071  25.266  27.316  0.00  0.00    +0.000 A 
ATOM      5  C   UNL     1      25.948  24.268  27.692  0.00  0.00    +0.000 A 
ATOM      6  C   UNL     1      26.236  24.006  29.029  0.00  0.00    +0.000 A 
ATOM      7  C   UNL     1      26.367  23.713  26.503  0.00  0.00    +0.000 A 
ATOM      8  C   UNL     1      25.752  24.369  25.462  0.00  0.00    +0.000 A 
ATOM      9  N   UNL     1      24.948  25.332  25.973  0.00  0.00    +0.000 N 
ATOM     10  C   UNL     1      24.118  26.252  25.198  0.00  0.00    +0.000 C 
ENDROOT
BRANCH   8  11
ATOM     11  C   UNL     1      25.934  24.072  24.035  0.00  0.00    +0.000 C 
ATOM     12  N   UNL     1      26.898  24.764  23.262  0.00  0.00    +0.000 NA
ATOM     13  O   UNL     1      25.225  23.187  23.486  0.00  0.00    +0.000 OA
ENDBRANCH   8  11
BRANCH   1  15
ATOM     14  C   UNL     1      26.838  25.266  32.141  0.00  0.00    +0.000 C 
ATOM     15  O   UNL     1      25.914  24.509  31.404  0.00  0.00    +0.000 OA
ENDBRANCH   1  15
BRANCH   7  16
ATOM     16  S   UNL     1      27.520  22.380  26.278  0.00  0.00    +0.000 S 
BRANCH  16  17
ATOM     17  C   UNL     1      29.161  22.842  25.924  0.00  0.00    +0.000 C 
ATOM     18  C   UNL     1      29.687  22.798  24.572  0.00  0.00    +0.000 C 
ATOM     19  C   UNL     1      30.071  23.166  27.037  0.00  0.00    +0.000 C 
ENDBRANCH  16  17
ENDBRANCH   7  16
TORSDOF 4
ENDMDL
MODEL 7
REMARK VINA RESULT:      -5.1      2.353      5.021
REMARK  Name = 
REMARK  4 active torsions:
REMARK  status: ('A' for Active; 'I' for Inactive)
REMARK    1  A    between atoms: O_2  and  C_3
REMARK    2  A    between atoms: C_9  and  S_10
REMARK    3  A    between atoms: S_10  and  C_11
REMARK    4  A    between atoms: C_14  and  C_15
REMARK                            x       y       z     vdW  Elec       q    Type
REMARK                         _______ _______ _______ _____ _____    ______ ____
ROOT
ATOM      1  C   UNL     1      27.319  23.425  23.912  0.00  0.00    +0.000 A 
ATOM      2  C   UNL     1      26.149  24.164  23.824  0.00  0.00    +0.000 A 
ATOM      3  C   UNL     1      25.464  24.607  24.931  0.00  0.00    +0.000 A 
ATOM      4  C   UNL     1      25.919  24.333  26.209  0.00  0.00    +0.000 A 
ATOM      5  C   UNL     1      27.083  23.598  26.310  0.00  0.00    +0.000 A 
ATOM      6  C   UNL     1      27.772  23.151  25.186  0.00  0.00    +0.000 A 
ATOM      7  C   UNL     1      27.298  23.479  27.666  0.00  0.00    +0.000 A 
ATOM      8  C   UNL     1      26.287  24.127  28.337  0.00  0.00    +0.000 A 
ATOM      9  N   UNL     1      25.434  24.656  27.428  0.00  0.00    +0.000 N 
ATOM     10  C   UNL     1      24.228  25.422  27.732  0.00  0.00    +0.000 C 
ENDROOT
BRANCH   8  11
ATOM     11  C   UNL     1      26.157  24.230  29.796  0.00  0.00    +0.000 C 
ATOM     12  N   UNL     1      26.477  25.430  30.475  0.00  0.00    +0.000 NA
ATOM     13  O   UNL     1      25.752  23.238  30.459  0.00  0.00    +0.000 OA
ENDBRANCH   8  11
BRANCH   1  15
ATOM     14  C   UNL     1      28.624  23.877  21.870  0.00  0.00    +0.000 C 
ATOM     15  O   UNL     1      27.978  22.995  22.750  0.00  0.00    +0.000 OA
ENDBRANCH   1  15
BRANCH   7  16
ATOM     16  S   UNL     1      28.631  22.631  28.480  0.00  0.00    +0.000 S 
BRANCH  16  17
ATOM     17  C   UNL     1      30.238  23.077  27.978  0.00  0.00    +0.000 C 
ATOM     18  C   UNL     1      31.328  22.119  27.985  0.00  0.00    +0.000 C 
ATOM     19  C   UNL     1      30.523  24.487  27.658  0.00  0.00    +0.000 C 
ENDBRANCH  16  17
ENDBRANCH   7  16
TORSDOF 4
ENDMDL
MODEL 8
REMARK VINA RESULT:      -5.1      1.886      3.883
REMARK  Name = 
REMARK  4 active torsions:
REMARK  status: ('A' for Active; 'I' for Inactive)
REMARK    1  A    between atoms: O_2  and  C_3
REMARK    2  A    between atoms: C_9  and  S_10
REMARK    3  A    between atoms: S_10  and  C_11
REMARK    4  A    between atoms: C_14  and  C_15
REMARK                            x       y       z     vdW  Elec       q    Type
REMARK                         _______ _______ _______ _____ _____    ______ ____
ROOT
ATOM      1  C   UNL     1      26.801  23.154  28.793  0.00  0.00    +0.000 A 
ATOM      2  C   UNL     1      28.048  22.550  28.852  0.00  0.00    +0.000 A 
ATOM      3  C   UNL     1      28.861  22.416  27.750  0.00  0.00    +0.000 A 
ATOM      4  C   UNL     1      28.467  22.886  26.510  0.00  0.00    +0.000 A 
ATOM      5  C   UNL     1      27.227  23.488  26.439  0.00  0.00    +0.000 A 
ATOM      6  C   UNL     1      26.408  23.621  27.557  0.00  0.00    +0.000 A 
ATOM      7  C   UNL     1      27.097  23.854  25.117  0.00  0.00    +0.000 A 
ATOM      8  C   UNL     1      28.231  23.475  24.435  0.00  0.00    +0.000 A 
ATOM      9  N   UNL     1      29.077  22.874  25.305  0.00  0.00    +0.000 N 
ATOM     10  C   UNL     1      30.392  22.327  24.978  0.00  0.00    +0.000 C 
ENDROOT
BRANCH   8  11
ATOM     11  C   UNL     1      28.481  23.688  23.004  0.00  0.00    +0.000 C 
ATOM     12  N   UNL     1      29.405  24.665  22.562  0.00  0.00    +0.000 NA
ATOM     13  O   UNL     1      27.866  22.992  22.152  0.00  0.00    +0.000 OA
ENDBRANCH   8  11
BRANCH   1  15
ATOM     14  C   UNL     1      25.983  24.419  30.745  0.00  0.00    +0.000 C 
ATOM     15  O   UNL     1      26.010  23.265  29.947  0.00  0.00    +0.000 OA
ENDBRANCH   1  15
BRANCH   7  16
ATOM     16  S   UNL     1      25.717  24.669  24.350  0.00  0.00    +0.000 S 
BRANCH  16  17
ATOM     17  C   UNL     1      25.135  26.100  25.153  0.00  0.00    +0.000 C 
ATOM     18  C   UNL     1      23.715  26.383  25.266  0.00  0.00    +0.000 C 
ATOM     19  C   UNL     1      26.106  27.106  25.617  0.00  0.00    +0.000 C 
ENDBRANCH  16  17
ENDBRANCH   7  16
TORSDOF 4
ENDMDL
MODEL 9
REMARK VINA RESULT:      -4.9      1.832      2.225
REMARK  Name = 
REMARK  4 active torsions:
REMARK  status: ('A' for Active; 'I' for Inactive)
REMARK    1  A    between atoms: O_2  and  C_3
REMARK    2  A    between atoms: C_9  and  S_10
REMARK    3  A    between atoms: S_10  and  C_11
REMARK    4  A    between atoms: C_14  and  C_15
REMARK                            x       y       z     vdW  Elec       q    Type
REMARK                         _______ _______ _______ _____ _____    ______ ____
ROOT
ATOM      1  C   UNL     1      27.502  24.033  27.653  0.00  0.00    +0.000 A 
ATOM      2  C   UNL     1      26.407  23.402  27.085  0.00  0.00    +0.000 A 
ATOM      3  C   UNL     1      26.199  23.355  25.725  0.00  0.00    +0.000 A 
ATOM      4  C   UNL     1      27.090  23.944  24.846  0.00  0.00    +0.000 A 
ATOM      5  C   UNL     1      28.185  24.575  25.401  0.00  0.00    +0.000 A 
ATOM      6  C   UNL     1      28.390  24.620  26.777  0.00  0.00    +0.000 A 
ATOM      7  C   UNL     1      28.888  25.059  24.319  0.00  0.00    +0.000 A 
ATOM      8  C   UNL     1      28.221  24.719  23.165  0.00  0.00    +0.000 A 
ATOM      9  N   UNL     1      27.106  24.027  23.498  0.00  0.00    +0.000 N 
ATOM     10  C   UNL     1      26.124  23.485  22.561  0.00  0.00    +0.000 C 
ENDROOT
BRANCH   8  11
ATOM     11  C   UNL     1      28.649  25.050  21.799  0.00  0.00    +0.000 C 
ATOM     12  N   UNL     1      29.613  24.263  21.125  0.00  0.00    +0.000 NA
ATOM     13  O   UNL     1      28.151  26.049  21.213  0.00  0.00    +0.000 OA
ENDBRANCH   8  11
BRANCH   1  15
ATOM     14  C   UNL     1      28.540  23.188  29.725  0.00  0.00    +0.000 C 
ATOM     15  O   UNL     1      27.667  24.053  29.047  0.00  0.00    +0.000 OA
ENDBRANCH   1  15
BRANCH   7  16
ATOM     16  S   UNL     1      30.403  25.988  24.340  0.00  0.00    +0.000 S 
BRANCH  16  17
ATOM     17  C   UNL     1      31.841  25.092  24.742  0.00  0.00    +0.000 C 
ATOM     18  C   UNL     1      33.066  25.761  25.141  0.00  0.00    +0.000 C 
ATOM     19  C   UNL     1      31.850  23.630  24.554  0.00  0.00    +0.000 C 
ENDBRANCH  16  17
ENDBRANCH   7  16
TORSDOF 4
ENDMDL
MODEL 10
REMARK VINA RESULT:      -4.9      3.103      6.529
REMARK  Name = 
REMARK  4 active torsions:
REMARK  status: ('A' for Active; 'I' for Inactive)
REMARK    1  A    between atoms: O_2  and  C_3
REMARK    2  A    between atoms: C_9  and  S_10
REMARK    3  A    between atoms: S_10  and  C_11
REMARK    4  A    between atoms: C_14  and  C_15
REMARK                            x       y       z     vdW  Elec       q    Type
REMARK                         _______ _______ _______ _____ _____    ______ ____
ROOT
ATOM      1  C   UNL     1      28.254  22.708  25.544  0.00  0.00    +0.000 A 
ATOM      2  C   UNL     1      29.636  22.655  25.452  0.00  0.00    +0.000 A 
ATOM      3  C   UNL     1      30.455  22.652  26.557  0.00  0.00    +0.000 A 
ATOM      4  C   UNL     1      29.929  22.701  27.835  0.00  0.00    +0.000 A 
ATOM      5  C   UNL     1      28.554  22.755  27.940  0.00  0.00    +0.000 A 
ATOM      6  C   UNL     1      27.730  22.758  26.818  0.00  0.00    +0.000 A 
ATOM      7  C   UNL     1      28.313  22.794  29.296  0.00  0.00    +0.000 A 
ATOM      8  C   UNL     1      29.515  22.764  29.964  0.00  0.00    +0.000 A 
ATOM      9  N   UNL     1      30.515  22.706  29.053  0.00  0.00    +0.000 N 
ATOM     10  C   UNL     1      31.944  22.660  29.354  0.00  0.00    +0.000 C 
ENDROOT
BRANCH   8  11
ATOM     11  C   UNL     1      29.685  22.788  31.423  0.00  0.00    +0.000 C 
ATOM     12  N   UNL     1      29.966  21.603  32.145  0.00  0.00    +0.000 NA
ATOM     13  O   UNL     1      29.581  23.878  32.046  0.00  0.00    +0.000 OA
ENDBRANCH   8  11
BRANCH   1  15
ATOM     14  C   UNL     1      26.158  23.223  24.352  0.00  0.00    +0.000 C 
ATOM     15  O   UNL     1      27.464  22.710  24.384  0.00  0.00    +0.000 OA
ENDBRANCH   1  15
BRANCH   7  16
ATOM     16  S   UNL     1      26.737  22.883  30.113  0.00  0.00    +0.000 S 
BRANCH  16  17
ATOM     17  C   UNL     1      25.991  24.455  30.161  0.00  0.00    +0.000 C 
ATOM     18  C   UNL     1      25.404  25.053  28.975  0.00  0.00    +0.000 C 
ATOM     19  C   UNL     1      26.066  25.247  31.401  0.00  0.00    +0.000 C 
ENDBRANCH  16  17
ENDBRANCH   7  16
TORSDOF 4
ENDMDL
