MODEL 1
REMARK VINA RESULT:      -6.1      0.000      0.000
REMARK  Name = 
REMARK  3 active torsions:
REMARK  status: ('A' for Active; 'I' for Inactive)
REMARK    1  A    between atoms: C_7  and  N_8
REMARK    2  A    between atoms: N_8  and  C_9
REMARK    3  A    between atoms: C_12  and  C_13
REMARK                            x       y       z     vdW  Elec       q    Type
REMARK                         _______ _______ _______ _____ _____    ______ ____
ROOT
ATOM      1  C   UNL     1      24.890  25.391  28.510  0.00  0.00    +0.000 C 
ATOM      2  C   UNL     1      25.936  24.343  28.450  0.00  0.00    +0.000 A 
ATOM      3  C   UNL     1      26.113  23.517  29.564  0.00  0.00    +0.000 A 
ATOM      4  C   UNL     1      27.090  22.543  29.499  0.00  0.00    +0.000 A 
ATOM      5  C   UNL     1      27.860  22.393  28.375  0.00  0.00    +0.000 A 
ATOM      6  N   UNL     1      27.694  23.185  27.300  0.00  0.00    +0.000 N 
ATOM      7  C   UNL     1      28.326  23.209  26.124  0.00  0.00    +0.000 A 
ATOM      8  C   UNL     1      27.739  24.237  25.395  0.00  0.00    +0.000 A 
ATOM      9  N   UNL     1      26.788  24.781  26.160  0.00  0.00    +0.000 NA
ATOM     10  C   UNL     1      26.745  24.138  27.351  0.00  0.00    +0.000 A 
ENDROOT
BRANCH   8  11
ATOM     11  C   UNL     1      28.110  24.638  24.034  0.00  0.00    +0.000 A 
ATOM     12  C   UNL     1      29.059  25.624  23.848  0.00  0.00    +0.000 A 
ATOM     13  C   UNL     1      29.377  25.969  22.549  0.00  0.00    +0.000 A 
ATOM     14  C   UNL     1      28.778  25.361  21.468  0.00  0.00    +0.000 A 
ATOM     15  C   UNL     1      27.837  24.384  21.697  0.00  0.00    +0.000 A 
ATOM     16  C   UNL     1      27.506  24.027  22.967  0.00  0.00    +0.000 A 
ATOM     17  O   UNL     1      26.557  23.042  23.197  0.00  0.00    +0.000 OA
ENDBRANCH   8  11
BRANCH   7  18
ATOM     18  N   UNL     1      29.376  22.412  25.620  0.00  0.00    +0.000 NA
BRANCH  18  19
ATOM     19  C   UNL     1      30.766  22.652  25.869  0.00  0.00    +0.000 C 
ATOM     20  C   UNL     1      31.444  22.944  24.549  0.00  0.00    +0.000 C 
ATOM     21  C   UNL     1      30.848  23.926  26.719  0.00  0.00    +0.000 C 
ENDBRANCH  18  19
ENDBRANCH   7  18
TORSDOF 3
ENDMDL
MODEL 2
REMARK VINA RESULT:      -5.9      2.040      5.595
REMARK  Name = 
REMARK  3 active torsions:
REMARK  status: ('A' for Active; 'I' for Inactive)
REMARK    1  A    between atoms: C_7  and  N_8
REMARK    2  A    between atoms: N_8  and  C_9
REMARK    3  A    between atoms: C_12  and  C_13
REMARK                            x       y       z     vdW  Elec       q    Type
REMARK                         _______ _______ _______ _____ _____    ______ ____
ROOT
ATOM      1  C   UNL     1      28.885  24.158  21.918  0.00  0.00    +0.000 C 
ATOM      2  C   UNL     1      27.880  23.756  22.929  0.00  0.00    +0.000 A 
ATOM      3  C   UNL     1      26.548  23.621  22.525  0.00  0.00    +0.000 A 
ATOM      4  C   UNL     1      25.618  23.246  23.474  0.00  0.00    +0.000 A 
ATOM      5  C   UNL     1      25.993  23.013  24.773  0.00  0.00    +0.000 A 
ATOM      6  N   UNL     1      27.272  23.142  25.166  0.00  0.00    +0.000 N 
ATOM      7  C   UNL     1      27.842  22.966  26.361  0.00  0.00    +0.000 A 
ATOM      8  C   UNL     1      29.194  23.236  26.184  0.00  0.00    +0.000 A 
ATOM      9  N   UNL     1      29.375  23.561  24.901  0.00  0.00    +0.000 NA
ATOM     10  C   UNL     1      28.188  23.506  24.251  0.00  0.00    +0.000 A 
ENDROOT
BRANCH   8  11
ATOM     11  C   UNL     1      30.222  23.173  27.229  0.00  0.00    +0.000 A 
ATOM     12  C   UNL     1      30.859  21.976  27.488  0.00  0.00    +0.000 A 
ATOM     13  C   UNL     1      31.821  21.964  28.480  0.00  0.00    +0.000 A 
ATOM     14  C   UNL     1      32.142  23.097  29.193  0.00  0.00    +0.000 A 
ATOM     15  C   UNL     1      31.483  24.270  28.905  0.00  0.00    +0.000 A 
ATOM     16  C   UNL     1      30.532  24.307  27.932  0.00  0.00    +0.000 A 
ATOM     17  O   UNL     1      29.868  25.489  27.641  0.00  0.00    +0.000 OA
ENDBRANCH   8  11
BRANCH   7  18
ATOM     18  N   UNL     1      27.290  22.587  27.605  0.00  0.00    +0.000 NA
BRANCH  18  19
ATOM     19  C   UNL     1      26.926  23.506  28.642  0.00  0.00    +0.000 C 
ATOM     20  C   UNL     1      25.695  24.264  28.198  0.00  0.00    +0.000 C 
ATOM     21  C   UNL     1      26.531  22.660  29.860  0.00  0.00    +0.000 C 
ENDBRANCH  18  19
ENDBRANCH   7  18
TORSDOF 3
ENDMDL
MODEL 3
REMARK VINA RESULT:      -5.7     33.333     34.811
REMARK  Name = 
REMARK  3 active torsions:
REMARK  status: ('A' for Active; 'I' for Inactive)
REMARK    1  A    between atoms: C_7  and  N_8
REMARK    2  A    between atoms: N_8  and  C_9
REMARK    3  A    between atoms: C_12  and  C_13
REMARK                            x       y       z     vdW  Elec       q    Type
REMARK                         _______ _______ _______ _____ _____    ______ ____
ROOT
ATOM      1  C   UNL     1      14.053 -10.738  24.894  0.00  0.00    +0.000 C 
ATOM      2  C   UNL     1      14.697 -10.864  26.223  0.00  0.00    +0.000 A 
ATOM      3  C   UNL     1      14.172 -11.790  27.130  0.00  0.00    +0.000 A 
ATOM      4  C   UNL     1      14.777 -11.901  28.366  0.00  0.00    +0.000 A 
ATOM      5  C   UNL     1      15.861 -11.126  28.690  0.00  0.00    +0.000 A 
ATOM      6  N   UNL     1      16.369 -10.233  27.822  0.00  0.00    +0.000 N 
ATOM      7  C   UNL     1      17.401  -9.393  27.934  0.00  0.00    +0.000 A 
ATOM      8  C   UNL     1      17.470  -8.709  26.726  0.00  0.00    +0.000 A 
ATOM      9  N   UNL     1      16.485  -9.164  25.948  0.00  0.00    +0.000 NA
ATOM     10  C   UNL     1      15.788 -10.116  26.614  0.00  0.00    +0.000 A 
ENDROOT
BRANCH   8  11
ATOM     11  C   UNL     1      18.454  -7.675  26.385  0.00  0.00    +0.000 A 
ATOM     12  C   UNL     1      19.652  -8.039  25.802  0.00  0.00    +0.000 A 
ATOM     13  C   UNL     1      20.548  -7.032  25.498  0.00  0.00    +0.000 A 
ATOM     14  C   UNL     1      20.269  -5.709  25.760  0.00  0.00    +0.000 A 
ATOM     15  C   UNL     1      19.064  -5.389  26.341  0.00  0.00    +0.000 A 
ATOM     16  C   UNL     1      18.166  -6.363  26.651  0.00  0.00    +0.000 A 
ATOM     17  O   UNL     1      16.951  -6.040  27.237  0.00  0.00    +0.000 OA
ENDBRANCH   8  11
BRANCH   7  18
ATOM     18  N   UNL     1      18.298  -9.164  29.000  0.00  0.00    +0.000 NA
BRANCH  18  19
ATOM     19  C   UNL     1      19.056 -10.188  29.655  0.00  0.00    +0.000 C 
ATOM     20  C   UNL     1      20.520  -9.969  29.346  0.00  0.00    +0.000 C 
ATOM     21  C   UNL     1      18.868  -9.979  31.163  0.00  0.00    +0.000 C 
ENDBRANCH  18  19
ENDBRANCH   7  18
TORSDOF 3
ENDMDL
MODEL 4
REMARK VINA RESULT:      -5.7      2.612      4.292
REMARK  Name = 
REMARK  3 active torsions:
REMARK  status: ('A' for Active; 'I' for Inactive)
REMARK    1  A    between atoms: C_7  and  N_8
REMARK    2  A    between atoms: N_8  and  C_9
REMARK    3  A    between atoms: C_12  and  C_13
REMARK                            x       y       z     vdW  Elec       q    Type
REMARK                         _______ _______ _______ _____ _____    ______ ____
ROOT
ATOM      1  C   UNL     1      32.955  24.389  26.592  0.00  0.00    +0.000 C 
ATOM      2  C   UNL     1      31.644  23.734  26.371  0.00  0.00    +0.000 A 
ATOM      3  C   UNL     1      31.293  22.657  27.192  0.00  0.00    +0.000 A 
ATOM      4  C   UNL     1      30.070  22.053  26.978  0.00  0.00    +0.000 A 
ATOM      5  C   UNL     1      29.228  22.498  25.992  0.00  0.00    +0.000 A 
ATOM      6  N   UNL     1      29.561  23.533  25.200  0.00  0.00    +0.000 N 
ATOM      7  C   UNL     1      28.900  24.115  24.197  0.00  0.00    +0.000 A 
ATOM      8  C   UNL     1      29.722  25.138  23.739  0.00  0.00    +0.000 A 
ATOM      9  N   UNL     1      30.833  25.124  24.481  0.00  0.00    +0.000 NA
ATOM     10  C   UNL     1      30.751  24.130  25.397  0.00  0.00    +0.000 A 
ENDROOT
BRANCH   8  11
ATOM     11  C   UNL     1      29.412  26.057  22.638  0.00  0.00    +0.000 A 
ATOM     12  C   UNL     1      29.084  27.369  22.916  0.00  0.00    +0.000 A 
ATOM     13  C   UNL     1      28.800  28.198  21.849  0.00  0.00    +0.000 A 
ATOM     14  C   UNL     1      28.838  27.746  20.548  0.00  0.00    +0.000 A 
ATOM     15  C   UNL     1      29.169  26.431  20.314  0.00  0.00    +0.000 A 
ATOM     16  C   UNL     1      29.452  25.595  21.349  0.00  0.00    +0.000 A 
ATOM     17  O   UNL     1      29.786  24.270  21.113  0.00  0.00    +0.000 OA
ENDBRANCH   8  11
BRANCH   7  18
ATOM     18  N   UNL     1      27.634  23.839  23.637  0.00  0.00    +0.000 NA
BRANCH  18  19
ATOM     19  C   UNL     1      26.393  23.949  24.346  0.00  0.00    +0.000 C 
ATOM     20  C   UNL     1      25.998  25.407  24.393  0.00  0.00    +0.000 C 
ATOM     21  C   UNL     1      25.340  23.214  23.506  0.00  0.00    +0.000 C 
ENDBRANCH  18  19
ENDBRANCH   7  18
TORSDOF 3
ENDMDL
MODEL 5
REMARK VINA RESULT:      -5.5     22.243     25.503
REMARK  Name = 
REMARK  3 active torsions:
REMARK  status: ('A' for Active; 'I' for Inactive)
REMARK    1  A    between atoms: C_7  and  N_8
REMARK    2  A    between atoms: N_8  and  C_9
REMARK    3  A    between atoms: C_12  and  C_13
REMARK                            x       y       z     vdW  Elec       q    Type
REMARK                         _______ _______ _______ _____ _____    ______ ____
ROOT
ATOM      1  C   UNL     1      18.159  10.154  38.821  0.00  0.00    +0.000 C 
ATOM      2  C   UNL     1      17.458   9.280  39.790  0.00  0.00    +0.000 A 
ATOM      3  C   UNL     1      16.217   9.696  40.284  0.00  0.00    +0.000 A 
ATOM      4  C   UNL     1      15.572   8.875  41.187  0.00  0.00    +0.000 A 
ATOM      5  C   UNL     1      16.132   7.688  41.585  0.00  0.00    +0.000 A 
ATOM      6  N   UNL     1      17.325   7.284  41.113  0.00  0.00    +0.000 N 
ATOM      7  C   UNL     1      18.038   6.183  41.365  0.00  0.00    +0.000 A 
ATOM      8  C   UNL     1      19.192   6.291  40.597  0.00  0.00    +0.000 A 
ATOM      9  N   UNL     1      19.122   7.442  39.924  0.00  0.00    +0.000 NA
ATOM     10  C   UNL     1      17.965   8.075  40.232  0.00  0.00    +0.000 A 
ENDROOT
BRANCH   8  11
ATOM     11  C   UNL     1      20.280   5.308  40.549  0.00  0.00    +0.000 A 
ATOM     12  C   UNL     1      20.132   4.162  39.793  0.00  0.00    +0.000 A 
ATOM     13  C   UNL     1      21.183   3.266  39.776  0.00  0.00    +0.000 A 
ATOM     14  C   UNL     1      22.343   3.494  40.482  0.00  0.00    +0.000 A 
ATOM     15  C   UNL     1      22.451   4.648  41.223  0.00  0.00    +0.000 A 
ATOM     16  C   UNL     1      21.429   5.546  41.256  0.00  0.00    +0.000 A 
ATOM     17  O   UNL     1      21.538   6.710  42.002  0.00  0.00    +0.000 OA
ENDBRANCH   8  11
BRANCH   7  18
ATOM     18  N   UNL     1      17.776   5.082  42.208  0.00  0.00    +0.000 NA
BRANCH  18  19
ATOM     19  C   UNL     1      17.960   5.088  43.629  0.00  0.00    +0.000 C 
ATOM     20  C   UNL     1      18.616   6.393  44.019  0.00  0.00    +0.000 C 
ATOM     21  C   UNL     1      16.560   5.072  44.255  0.00  0.00    +0.000 C 
ENDBRANCH  18  19
ENDBRANCH   7  18
TORSDOF 3
ENDMDL
MODEL 6
REMARK VINA RESULT:      -5.5     33.231     34.742
REMARK  Name = 
REMARK  3 active torsions:
REMARK  status: ('A' for Active; 'I' for Inactive)
REMARK    1  A    between atoms: C_7  and  N_8
REMARK    2  A    between atoms: N_8  and  C_9
REMARK    3  A    between atoms: C_12  and  C_13
REMARK                            x       y       z     vdW  Elec       q    Type
REMARK                         _______ _______ _______ _____ _____    ______ ____
ROOT
ATOM      1  C   UNL     1      17.679 -10.651  31.262  0.00  0.00    +0.000 C 
ATOM      2  C   UNL     1      17.081 -10.930  29.936  0.00  0.00    +0.000 A 
ATOM      3  C   UNL     1      16.194 -12.005  29.819  0.00  0.00    +0.000 A 
ATOM      4  C   UNL     1      15.642 -12.258  28.579  0.00  0.00    +0.000 A 
ATOM      5  C   UNL     1      15.955 -11.476  27.497  0.00  0.00    +0.000 A 
ATOM      6  N   UNL     1      16.807 -10.440  27.604  0.00  0.00    +0.000 N 
ATOM      7  C   UNL     1      17.241  -9.567  26.692  0.00  0.00    +0.000 A 
ATOM      8  C   UNL     1      18.109  -8.713  27.363  0.00  0.00    +0.000 A 
ATOM      9  N   UNL     1      18.158  -9.108  28.638  0.00  0.00    +0.000 NA
ATOM     10  C   UNL     1      17.352 -10.184  28.807  0.00  0.00    +0.000 A 
ENDROOT
BRANCH   8  11
ATOM     11  C   UNL     1      18.833  -7.587  26.763  0.00  0.00    +0.000 A 
ATOM     12  C   UNL     1      20.057  -7.805  26.162  0.00  0.00    +0.000 A 
ATOM     13  C   UNL     1      20.702  -6.715  25.610  0.00  0.00    +0.000 A 
ATOM     14  C   UNL     1      20.156  -5.451  25.650  0.00  0.00    +0.000 A 
ATOM     15  C   UNL     1      18.935  -5.276  26.258  0.00  0.00    +0.000 A 
ATOM     16  C   UNL     1      18.280  -6.334  26.810  0.00  0.00    +0.000 A 
ATOM     17  O   UNL     1      17.048  -6.158  27.423  0.00  0.00    +0.000 OA
ENDBRANCH   8  11
BRANCH   7  18
ATOM     18  N   UNL     1      16.950  -9.441  25.316  0.00  0.00    +0.000 NA
BRANCH  18  19
ATOM     19  C   UNL     1      15.723  -8.916  24.793  0.00  0.00    +0.000 C 
ATOM     20  C   UNL     1      14.922 -10.061  24.216  0.00  0.00    +0.000 C 
ATOM     21  C   UNL     1      14.937  -8.361  25.988  0.00  0.00    +0.000 C 
ENDBRANCH  18  19
ENDBRANCH   7  18
TORSDOF 3
ENDMDL
MODEL 7
REMARK VINA RESULT:      -5.4      2.584      4.125
REMARK  Name = 
REMARK  3 active torsions:
REMARK  status: ('A' for Active; 'I' for Inactive)
REMARK    1  A    between atoms: C_7  and  N_8
REMARK    2  A    between atoms: N_8  and  C_9
REMARK    3  A    between atoms: C_12  and  C_13
REMARK                            x       y       z     vdW  Elec       q    Type
REMARK                         _______ _______ _______ _____ _____    ______ ____
ROOT
ATOM      1  C   UNL     1      29.663  22.492  31.748  0.00  0.00    +0.000 C 
ATOM      2  C   UNL     1      30.525  22.313  30.556  0.00  0.00    +0.000 A 
ATOM      3  C   UNL     1      31.835  21.862  30.746  0.00  0.00    +0.000 A 
ATOM      4  C   UNL     1      32.631  21.697  29.629  0.00  0.00    +0.000 A 
ATOM      5  C   UNL     1      32.148  21.968  28.375  0.00  0.00    +0.000 A 
ATOM      6  N   UNL     1      30.889  22.402  28.187  0.00  0.00    +0.000 N 
ATOM      7  C   UNL     1      30.230  22.720  27.070  0.00  0.00    +0.000 A 
ATOM      8  C   UNL     1      28.957  23.105  27.473  0.00  0.00    +0.000 A 
ATOM      9  N   UNL     1      28.907  23.004  28.804  0.00  0.00    +0.000 NA
ATOM     10  C   UNL     1      30.103  22.567  29.268  0.00  0.00    +0.000 A 
ENDROOT
BRANCH   8  11
ATOM     11  C   UNL     1      27.875  23.543  26.584  0.00  0.00    +0.000 A 
ATOM     12  C   UNL     1      27.061  22.602  25.985  0.00  0.00    +0.000 A 
ATOM     13  C   UNL     1      26.055  23.060  25.156  0.00  0.00    +0.000 A 
ATOM     14  C   UNL     1      25.859  24.404  24.927  0.00  0.00    +0.000 A 
ATOM     15  C   UNL     1      26.691  25.309  25.543  0.00  0.00    +0.000 A 
ATOM     16  C   UNL     1      27.689  24.882  26.364  0.00  0.00    +0.000 A 
ATOM     17  O   UNL     1      28.528  25.795  26.985  0.00  0.00    +0.000 OA
ENDBRANCH   8  11
BRANCH   7  18
ATOM     18  N   UNL     1      30.636  22.704  25.718  0.00  0.00    +0.000 NA
BRANCH  18  19
ATOM     19  C   UNL     1      30.963  23.874  24.958  0.00  0.00    +0.000 C 
ATOM     20  C   UNL     1      32.408  23.772  24.524  0.00  0.00    +0.000 C 
ATOM     21  C   UNL     1      30.100  23.831  23.690  0.00  0.00    +0.000 C 
ENDBRANCH  18  19
ENDBRANCH   7  18
TORSDOF 3
ENDMDL
MODEL 8
REMARK VINA RESULT:      -5.3      1.646      5.253
REMARK  Name = 
REMARK  3 active torsions:
REMARK  status: ('A' for Active; 'I' for Inactive)
REMARK    1  A    between atoms: C_7  and  N_8
REMARK    2  A    between atoms: N_8  and  C_9
REMARK    3  A    between atoms: C_12  and  C_13
REMARK                            x       y       z     vdW  Elec       q    Type
REMARK                         _______ _______ _______ _____ _____    ______ ____
ROOT
ATOM      1  C   UNL     1      27.627  28.217  22.468  0.00  0.00    +0.000 C 
ATOM      2  C   UNL     1      28.196  26.852  22.376  0.00  0.00    +0.000 A 
ATOM      3  C   UNL     1      28.765  26.450  21.163  0.00  0.00    +0.000 A 
ATOM      4  C   UNL     1      29.292  25.176  21.086  0.00  0.00    +0.000 A 
ATOM      5  C   UNL     1      29.258  24.334  22.167  0.00  0.00    +0.000 A 
ATOM      6  N   UNL     1      28.713  24.715  23.336  0.00  0.00    +0.000 N 
ATOM      7  C   UNL     1      28.578  24.063  24.493  0.00  0.00    +0.000 A 
ATOM      8  C   UNL     1      27.940  24.945  25.357  0.00  0.00    +0.000 A 
ATOM      9  N   UNL     1      27.719  26.079  24.686  0.00  0.00    +0.000 NA
ATOM     10  C   UNL     1      28.195  25.955  23.424  0.00  0.00    +0.000 A 
ENDROOT
BRANCH   8  11
ATOM     11  C   UNL     1      27.579  24.664  26.752  0.00  0.00    +0.000 A 
ATOM     12  C   UNL     1      28.413  25.081  27.770  0.00  0.00    +0.000 A 
ATOM     13  C   UNL     1      28.032  24.796  29.067  0.00  0.00    +0.000 A 
ATOM     14  C   UNL     1      26.866  24.120  29.349  0.00  0.00    +0.000 A 
ATOM     15  C   UNL     1      26.063  23.722  28.306  0.00  0.00    +0.000 A 
ATOM     16  C   UNL     1      26.416  23.991  27.020  0.00  0.00    +0.000 A 
ATOM     17  O   UNL     1      25.606  23.590  25.968  0.00  0.00    +0.000 OA
ENDBRANCH   8  11
BRANCH   7  18
ATOM     18  N   UNL     1      28.964  22.759  24.873  0.00  0.00    +0.000 NA
BRANCH  18  19
ATOM     19  C   UNL     1      30.277  22.402  25.323  0.00  0.00    +0.000 C 
ATOM     20  C   UNL     1      31.140  23.643  25.310  0.00  0.00    +0.000 C 
ATOM     21  C   UNL     1      30.135  21.956  26.784  0.00  0.00    +0.000 C 
ENDBRANCH  18  19
ENDBRANCH   7  18
TORSDOF 3
ENDMDL
MODEL 9
REMARK VINA RESULT:      -5.3      2.535      4.882
REMARK  Name = 
REMARK  3 active torsions:
REMARK  status: ('A' for Active; 'I' for Inactive)
REMARK    1  A    between atoms: C_7  and  N_8
REMARK    2  A    between atoms: N_8  and  C_9
REMARK    3  A    between atoms: C_12  and  C_13
REMARK                            x       y       z     vdW  Elec       q    Type
REMARK                         _______ _______ _______ _____ _____    ______ ____
ROOT
ATOM      1  C   UNL     1      25.923  24.359  29.897  0.00  0.00    +0.000 C 
ATOM      2  C   UNL     1      26.304  24.092  28.490  0.00  0.00    +0.000 A 
ATOM      3  C   UNL     1      25.315  24.183  27.506  0.00  0.00    +0.000 A 
ATOM      4  C   UNL     1      25.679  23.933  26.198  0.00  0.00    +0.000 A 
ATOM      5  C   UNL     1      26.971  23.606  25.877  0.00  0.00    +0.000 A 
ATOM      6  N   UNL     1      27.926  23.518  26.820  0.00  0.00    +0.000 N 
ATOM      7  C   UNL     1      29.224  23.219  26.725  0.00  0.00    +0.000 A 
ATOM      8  C   UNL     1      29.725  23.277  28.020  0.00  0.00    +0.000 A 
ATOM      9  N   UNL     1      28.714  23.604  28.830  0.00  0.00    +0.000 NA
ATOM     10  C   UNL     1      27.584  23.759  28.099  0.00  0.00    +0.000 A 
ENDROOT
BRANCH   8  11
ATOM     11  C   UNL     1      31.116  23.021  28.410  0.00  0.00    +0.000 A 
ATOM     12  C   UNL     1      31.486  21.757  28.829  0.00  0.00    +0.000 A 
ATOM     13  C   UNL     1      32.806  21.562  29.186  0.00  0.00    +0.000 A 
ATOM     14  C   UNL     1      33.732  22.581  29.131  0.00  0.00    +0.000 A 
ATOM     15  C   UNL     1      33.322  23.824  28.709  0.00  0.00    +0.000 A 
ATOM     16  C   UNL     1      32.028  24.042  28.353  0.00  0.00    +0.000 A 
ATOM     17  O   UNL     1      31.615  25.296  27.927  0.00  0.00    +0.000 OA
ENDBRANCH   8  11
BRANCH   7  18
ATOM     18  N   UNL     1      30.022  22.898  25.606  0.00  0.00    +0.000 NA
BRANCH  18  19
ATOM     19  C   UNL     1      30.639  23.866  24.747  0.00  0.00    +0.000 C 
ATOM     20  C   UNL     1      32.064  23.431  24.485  0.00  0.00    +0.000 C 
ATOM     21  C   UNL     1      29.889  23.810  23.410  0.00  0.00    +0.000 C 
ENDBRANCH  18  19
ENDBRANCH   7  18
TORSDOF 3
ENDMDL
MODEL 10
REMARK VINA RESULT:      -5.3      2.066      5.962
REMARK  Name = 
REMARK  3 active torsions:
REMARK  status: ('A' for Active; 'I' for Inactive)
REMARK    1  A    between atoms: C_7  and  N_8
REMARK    2  A    between atoms: N_8  and  C_9
REMARK    3  A    between atoms: C_12  and  C_13
REMARK                            x       y       z     vdW  Elec       q    Type
REMARK                         _______ _______ _______ _____ _____    ______ ____
ROOT
ATOM      1  C   UNL     1      33.549  24.999  27.919  0.00  0.00    +0.000 C 
ATOM      2  C   UNL     1      32.750  24.466  26.791  0.00  0.00    +0.000 A 
ATOM      3  C   UNL     1      33.362  24.353  25.538  0.00  0.00    +0.000 A 
ATOM      4  C   UNL     1      32.609  23.855  24.493  0.00  0.00    +0.000 A 
ATOM      5  C   UNL     1      31.303  23.483  24.681  0.00  0.00    +0.000 A 
ATOM      6  N   UNL     1      30.710  23.589  25.884  0.00  0.00    +0.000 N 
ATOM      7  C   UNL     1      29.470  23.289  26.278  0.00  0.00    +0.000 A 
ATOM      8  C   UNL     1      29.412  23.603  27.630  0.00  0.00    +0.000 A 
ATOM      9  N   UNL     1      30.610  24.075  27.987  0.00  0.00    +0.000 NA
ATOM     10  C   UNL     1      31.433  24.073  26.911  0.00  0.00    +0.000 A 
ENDROOT
BRANCH   8  11
ATOM     11  C   UNL     1      28.238  23.441  28.495  0.00  0.00    +0.000 A 
ATOM     12  C   UNL     1      28.029  22.239  29.143  0.00  0.00    +0.000 A 
ATOM     13  C   UNL     1      26.911  22.132  29.948  0.00  0.00    +0.000 A 
ATOM     14  C   UNL     1      26.028  23.177  30.108  0.00  0.00    +0.000 A 
ATOM     15  C   UNL     1      26.273  24.357  29.445  0.00  0.00    +0.000 A 
ATOM     16  C   UNL     1      27.367  24.487  28.646  0.00  0.00    +0.000 A 
ATOM     17  O   UNL     1      27.614  25.677  27.978  0.00  0.00    +0.000 OA
ENDBRANCH   8  11
BRANCH   7  18
ATOM     18  N   UNL     1      28.373  22.762  25.563  0.00  0.00    +0.000 NA
BRANCH  18  19
ATOM     19  C   UNL     1      27.409  23.553  24.858  0.00  0.00    +0.000 C 
ATOM     20  C   UNL     1      27.643  23.380  23.374  0.00  0.00    +0.000 C 
ATOM     21  C   UNL     1      26.032  22.959  25.178  0.00  0.00    +0.000 C 
ENDBRANCH  18  19
ENDBRANCH   7  18
TORSDOF 3
ENDMDL
