MODEL 1
REMARK VINA RESULT:      -8.0      0.000      0.000
REMARK  Name = 
REMARK  9 active torsions:
REMARK  status: ('A' for Active; 'I' for Inactive)
REMARK    1  A    between atoms: O_2  and  C_3
REMARK    2  A    between atoms: C_6  and  S_7
REMARK    3  A    between atoms: S_7  and  N_10
REMARK    4  A    between atoms: N_10  and  C_11
REMARK    5  A    between atoms: C_11  and  C_13
REMARK    6  A    between atoms: C_13  and  C_14
REMARK    7  A    between atoms: C_14  and  C_15
REMARK    8  A    between atoms: N_17  and  C_18
REMARK    9  A    between atoms: C_18  and  C_19
REMARK                            x       y       z     vdW  Elec       q    Type
REMARK                         _______ _______ _______ _____ _____    ______ ____
ROOT
ATOM      1  C   UNL     1      35.241   1.351  15.654  0.00  0.00    +0.000 C 
ENDROOT
BRANCH   1   2
ATOM      2  C   UNL     1      35.891   0.099  16.033  0.00  0.00    +0.000 A 
ATOM      3  C   UNL     1      36.274  -0.836  15.057  0.00  0.00    +0.000 A 
ATOM      4  N   UNL     1      36.846  -1.889  15.637  0.00  0.00    +0.000 N 
ATOM      5  C   UNL     1      36.849  -1.670  16.965  0.00  0.00    +0.000 A 
ATOM      6  C   UNL     1      37.314  -2.435  17.986  0.00  0.00    +0.000 A 
ATOM      7  C   UNL     1      37.215  -2.018  19.290  0.00  0.00    +0.000 A 
ATOM      8  C   UNL     1      36.632  -0.801  19.558  0.00  0.00    +0.000 A 
ATOM      9  C   UNL     1      36.167  -0.037  18.522  0.00  0.00    +0.000 A 
ATOM     10  C   UNL     1      36.258  -0.436  17.225  0.00  0.00    +0.000 A 
BRANCH   4  11
ATOM     11  C   UNL     1      37.366  -3.056  14.923  0.00  0.00    +0.000 C 
BRANCH  11  12
ATOM     12  C   UNL     1      38.707  -2.645  14.401  0.00  0.00    +0.000 A 
ATOM     13  C   UNL     1      38.801  -2.387  13.029  0.00  0.00    +0.000 A 
ATOM     14  C   UNL     1      40.023  -2.007  12.520  0.00  0.00    +0.000 A 
ATOM     15  C   UNL     1      41.107  -1.887  13.336  0.00  0.00    +0.000 A 
ATOM     16  C   UNL     1      41.007  -2.143  14.691  0.00  0.00    +0.000 A 
ATOM     17  C   UNL     1      39.814  -2.520  15.216  0.00  0.00    +0.000 A 
ENDBRANCH  11  12
ENDBRANCH   4  11
ENDBRANCH   1   2
BRANCH   1  18
ATOM     18  C   UNL     1      35.717   1.839  14.314  0.00  0.00    +0.000 C 
BRANCH  18  19
ATOM     19  C   UNL     1      35.644   3.467  14.521  0.00  0.00    +0.000 C 
ATOM     20  C   UNL     1      34.256   3.393  15.395  0.00  0.00    +0.000 C 
BRANCH  19  21
ATOM     21  N   UNL     1      36.596   3.429  15.767  0.00  0.00    +0.000 NA
BRANCH  21  22
ATOM     22  S   UNL     1      38.177   3.774  15.336  0.00  0.00    +0.000 S 
ATOM     23  O   UNL     1      38.918   2.442  15.249  0.00  0.00    +0.000 OA
ATOM     24  O   UNL     1      38.310   4.369  13.960  0.00  0.00    +0.000 OA
BRANCH  22  28
ATOM     25  C   UNL     1      40.315   6.324  18.473  0.00  0.00    +0.000 A 
ATOM     26  C   UNL     1      40.695   6.363  17.149  0.00  0.00    +0.000 A 
ATOM     27  C   UNL     1      40.061   5.605  16.209  0.00  0.00    +0.000 A 
ATOM     28  C   UNL     1      38.998   4.751  16.527  0.00  0.00    +0.000 A 
ATOM     29  C   UNL     1      38.636   4.731  17.865  0.00  0.00    +0.000 A 
ATOM     30  C   UNL     1      39.272   5.496  18.820  0.00  0.00    +0.000 A 
BRANCH  25  32
ATOM     31  C   UNL     1      42.216   6.651  19.928  0.00  0.00    +0.000 C 
ATOM     32  O   UNL     1      40.965   7.104  19.443  0.00  0.00    +0.000 OA
ENDBRANCH  25  32
ENDBRANCH  22  28
ENDBRANCH  21  22
ENDBRANCH  19  21
ENDBRANCH  18  19
ENDBRANCH   1  18
TORSDOF 9
ENDMDL
MODEL 2
REMARK VINA RESULT:      -7.9      1.411      2.675
REMARK  Name = 
REMARK  9 active torsions:
REMARK  status: ('A' for Active; 'I' for Inactive)
REMARK    1  A    between atoms: O_2  and  C_3
REMARK    2  A    between atoms: C_6  and  S_7
REMARK    3  A    between atoms: S_7  and  N_10
REMARK    4  A    between atoms: N_10  and  C_11
REMARK    5  A    between atoms: C_11  and  C_13
REMARK    6  A    between atoms: C_13  and  C_14
REMARK    7  A    between atoms: C_14  and  C_15
REMARK    8  A    between atoms: N_17  and  C_18
REMARK    9  A    between atoms: C_18  and  C_19
REMARK                            x       y       z     vdW  Elec       q    Type
REMARK                         _______ _______ _______ _____ _____    ______ ____
ROOT
ATOM      1  C   UNL     1      35.212   1.360  15.694  0.00  0.00    +0.000 C 
ENDROOT
BRANCH   1   2
ATOM      2  C   UNL     1      35.876   0.128  16.110  0.00  0.00    +0.000 A 
ATOM      3  C   UNL     1      36.252  -0.840  15.164  0.00  0.00    +0.000 A 
ATOM      4  N   UNL     1      36.840  -1.867  15.775  0.00  0.00    +0.000 N 
ATOM      5  C   UNL     1      36.860  -1.599  17.094  0.00  0.00    +0.000 A 
ATOM      6  C   UNL     1      37.344  -2.323  18.135  0.00  0.00    +0.000 A 
ATOM      7  C   UNL     1      37.260  -1.859  19.424  0.00  0.00    +0.000 A 
ATOM      8  C   UNL     1      36.672  -0.636  19.655  0.00  0.00    +0.000 A 
ATOM      9  C   UNL     1      36.187   0.086  18.599  0.00  0.00    +0.000 A 
ATOM     10  C   UNL     1      36.263  -0.361  17.316  0.00  0.00    +0.000 A 
BRANCH   4  11
ATOM     11  C   UNL     1      37.358  -3.057  15.097  0.00  0.00    +0.000 C 
BRANCH  11  12
ATOM     12  C   UNL     1      36.268  -4.078  15.186  0.00  0.00    +0.000 A 
ATOM     13  C   UNL     1      36.458  -5.130  16.090  0.00  0.00    +0.000 A 
ATOM     14  C   UNL     1      35.473  -6.086  16.194  0.00  0.00    +0.000 A 
ATOM     15  C   UNL     1      34.345  -6.004  15.434  0.00  0.00    +0.000 A 
ATOM     16  C   UNL     1      34.163  -4.962  14.544  0.00  0.00    +0.000 A 
ATOM     17  C   UNL     1      35.120  -4.008  14.424  0.00  0.00    +0.000 A 
ENDBRANCH  11  12
ENDBRANCH   4  11
ENDBRANCH   1   2
BRANCH   1  18
ATOM     18  C   UNL     1      35.708   1.833  14.356  0.00  0.00    +0.000 C 
BRANCH  18  19
ATOM     19  C   UNL     1      35.633   3.463  14.544  0.00  0.00    +0.000 C 
ATOM     20  C   UNL     1      34.222   3.402  15.379  0.00  0.00    +0.000 C 
BRANCH  19  21
ATOM     21  N   UNL     1      36.550   3.436  15.817  0.00  0.00    +0.000 NA
BRANCH  21  22
ATOM     22  S   UNL     1      38.156   3.695  15.416  0.00  0.00    +0.000 S 
ATOM     23  O   UNL     1      38.847   2.335  15.438  0.00  0.00    +0.000 OA
ATOM     24  O   UNL     1      38.352   4.194  14.009  0.00  0.00    +0.000 OA
BRANCH  22  28
ATOM     25  C   UNL     1      40.294   6.365  18.450  0.00  0.00    +0.000 A 
ATOM     26  C   UNL     1      40.657   6.371  17.121  0.00  0.00    +0.000 A 
ATOM     27  C   UNL     1      40.023   5.577  16.212  0.00  0.00    +0.000 A 
ATOM     28  C   UNL     1      38.976   4.718  16.567  0.00  0.00    +0.000 A 
ATOM     29  C   UNL     1      38.631   4.732  17.910  0.00  0.00    +0.000 A 
ATOM     30  C   UNL     1      39.268   5.532  18.834  0.00  0.00    +0.000 A 
BRANCH  25  32
ATOM     31  C   UNL     1      42.228   6.784  19.837  0.00  0.00    +0.000 C 
ATOM     32  O   UNL     1      40.945   7.182  19.390  0.00  0.00    +0.000 OA
ENDBRANCH  25  32
ENDBRANCH  22  28
ENDBRANCH  21  22
ENDBRANCH  19  21
ENDBRANCH  18  19
ENDBRANCH   1  18
TORSDOF 9
ENDMDL
MODEL 3
REMARK VINA RESULT:      -7.9      2.931      6.567
REMARK  Name = 
REMARK  9 active torsions:
REMARK  status: ('A' for Active; 'I' for Inactive)
REMARK    1  A    between atoms: O_2  and  C_3
REMARK    2  A    between atoms: C_6  and  S_7
REMARK    3  A    between atoms: S_7  and  N_10
REMARK    4  A    between atoms: N_10  and  C_11
REMARK    5  A    between atoms: C_11  and  C_13
REMARK    6  A    between atoms: C_13  and  C_14
REMARK    7  A    between atoms: C_14  and  C_15
REMARK    8  A    between atoms: N_17  and  C_18
REMARK    9  A    between atoms: C_18  and  C_19
REMARK                            x       y       z     vdW  Elec       q    Type
REMARK                         _______ _______ _______ _____ _____    ______ ____
ROOT
ATOM      1  C   UNL     1      37.431   1.828  12.414  0.00  0.00    +0.000 C 
ENDROOT
BRANCH   1   2
ATOM      2  C   UNL     1      37.096   2.160  13.796  0.00  0.00    +0.000 A 
ATOM      3  C   UNL     1      35.977   1.585  14.421  0.00  0.00    +0.000 A 
ATOM      4  N   UNL     1      35.877   2.032  15.673  0.00  0.00    +0.000 N 
ATOM      5  C   UNL     1      36.898   2.883  15.883  0.00  0.00    +0.000 A 
ATOM      6  C   UNL     1      37.239   3.599  16.985  0.00  0.00    +0.000 A 
ATOM      7  C   UNL     1      38.338   4.422  16.988  0.00  0.00    +0.000 A 
ATOM      8  C   UNL     1      39.102   4.516  15.847  0.00  0.00    +0.000 A 
ATOM      9  C   UNL     1      38.750   3.791  14.742  0.00  0.00    +0.000 A 
ATOM     10  C   UNL     1      37.665   2.971  14.724  0.00  0.00    +0.000 A 
BRANCH   4  11
ATOM     11  C   UNL     1      34.828   1.644  16.617  0.00  0.00    +0.000 C 
BRANCH  11  12
ATOM     12  C   UNL     1      35.343   0.422  17.310  0.00  0.00    +0.000 A 
ATOM     13  C   UNL     1      35.032  -0.814  16.730  0.00  0.00    +0.000 A 
ATOM     14  C   UNL     1      35.492  -1.956  17.346  0.00  0.00    +0.000 A 
ATOM     15  C   UNL     1      36.229  -1.879  18.490  0.00  0.00    +0.000 A 
ATOM     16  C   UNL     1      36.533  -0.655  19.056  0.00  0.00    +0.000 A 
ATOM     17  C   UNL     1      36.091   0.485  18.468  0.00  0.00    +0.000 A 
ENDBRANCH  11  12
ENDBRANCH   4  11
ENDBRANCH   1   2
BRANCH   1  18
ATOM     18  C   UNL     1      37.473   0.341  12.195  0.00  0.00    +0.000 C 
BRANCH  18  19
ATOM     19  C   UNL     1      38.792   0.197  11.227  0.00  0.00    +0.000 C 
ATOM     20  C   UNL     1      38.403   1.517  10.333  0.00  0.00    +0.000 C 
BRANCH  19  21
ATOM     21  N   UNL     1      39.712   0.975  12.232  0.00  0.00    +0.000 NA
BRANCH  21  22
ATOM     22  S   UNL     1      40.943  -0.002  12.811  0.00  0.00    +0.000 S 
ATOM     23  O   UNL     1      41.387  -0.895  11.654  0.00  0.00    +0.000 OA
ATOM     24  O   UNL     1      42.184   0.758  13.196  0.00  0.00    +0.000 OA
BRANCH  22  28
ATOM     25  C   UNL     1      39.546  -2.723  16.209  0.00  0.00    +0.000 A 
ATOM     26  C   UNL     1      40.532  -3.129  15.336  0.00  0.00    +0.000 A 
ATOM     27  C   UNL     1      40.952  -2.322  14.321  0.00  0.00    +0.000 A 
ATOM     28  C   UNL     1      40.416  -1.046  14.105  0.00  0.00    +0.000 A 
ATOM     29  C   UNL     1      39.426  -0.663  14.998  0.00  0.00    +0.000 A 
ATOM     30  C   UNL     1      38.997  -1.475  16.026  0.00  0.00    +0.000 A 
BRANCH  25  32
ATOM     31  C   UNL     1      38.196  -4.588  16.945  0.00  0.00    +0.000 C 
ATOM     32  O   UNL     1      39.110  -3.553  17.256  0.00  0.00    +0.000 OA
ENDBRANCH  25  32
ENDBRANCH  22  28
ENDBRANCH  21  22
ENDBRANCH  19  21
ENDBRANCH  18  19
ENDBRANCH   1  18
TORSDOF 9
ENDMDL
MODEL 4
REMARK VINA RESULT:      -7.6      1.902      3.647
REMARK  Name = 
REMARK  9 active torsions:
REMARK  status: ('A' for Active; 'I' for Inactive)
REMARK    1  A    between atoms: O_2  and  C_3
REMARK    2  A    between atoms: C_6  and  S_7
REMARK    3  A    between atoms: S_7  and  N_10
REMARK    4  A    between atoms: N_10  and  C_11
REMARK    5  A    between atoms: C_11  and  C_13
REMARK    6  A    between atoms: C_13  and  C_14
REMARK    7  A    between atoms: C_14  and  C_15
REMARK    8  A    between atoms: N_17  and  C_18
REMARK    9  A    between atoms: C_18  and  C_19
REMARK                            x       y       z     vdW  Elec       q    Type
REMARK                         _______ _______ _______ _____ _____    ______ ____
ROOT
ATOM      1  C   UNL     1      37.513   1.377  14.799  0.00  0.00    +0.000 C 
ENDROOT
BRANCH   1   2
ATOM      2  C   UNL     1      37.765   0.052  15.357  0.00  0.00    +0.000 A 
ATOM      3  C   UNL     1      36.825  -0.562  16.202  0.00  0.00    +0.000 A 
ATOM      4  N   UNL     1      37.270  -1.759  16.581  0.00  0.00    +0.000 N 
ATOM      5  C   UNL     1      38.474  -1.946  16.010  0.00  0.00    +0.000 A 
ATOM      6  C   UNL     1      39.334  -2.993  16.082  0.00  0.00    +0.000 A 
ATOM      7  C   UNL     1      40.531  -2.980  15.411  0.00  0.00    +0.000 A 
ATOM      8  C   UNL     1      40.857  -1.879  14.653  0.00  0.00    +0.000 A 
ATOM      9  C   UNL     1      39.984  -0.827  14.586  0.00  0.00    +0.000 A 
ATOM     10  C   UNL     1      38.794  -0.826  15.245  0.00  0.00    +0.000 A 
BRANCH   4  11
ATOM     11  C   UNL     1      36.547  -2.677  17.464  0.00  0.00    +0.000 C 
BRANCH  11  12
ATOM     12  C   UNL     1      35.713  -3.531  16.561  0.00  0.00    +0.000 A 
ATOM     13  C   UNL     1      36.193  -4.816  16.284  0.00  0.00    +0.000 A 
ATOM     14  C   UNL     1      35.448  -5.625  15.456  0.00  0.00    +0.000 A 
ATOM     15  C   UNL     1      34.275  -5.179  14.923  0.00  0.00    +0.000 A 
ATOM     16  C   UNL     1      33.807  -3.908  15.202  0.00  0.00    +0.000 A 
ATOM     17  C   UNL     1      34.524  -3.093  16.015  0.00  0.00    +0.000 A 
ENDBRANCH  11  12
ENDBRANCH   4  11
ENDBRANCH   1   2
BRANCH   1  18
ATOM     18  C   UNL     1      36.143   1.470  14.186  0.00  0.00    +0.000 C 
BRANCH  18  19
ATOM     19  C   UNL     1      35.796   3.059  14.413  0.00  0.00    +0.000 C 
ATOM     20  C   UNL     1      35.163   2.810  15.907  0.00  0.00    +0.000 C 
BRANCH  19  21
ATOM     21  N   UNL     1      37.243   3.381  14.926  0.00  0.00    +0.000 NA
BRANCH  21  22
ATOM     22  S   UNL     1      37.532   5.032  14.935  0.00  0.00    +0.000 S 
ATOM     23  O   UNL     1      38.630   5.298  13.909  0.00  0.00    +0.000 OA
ATOM     24  O   UNL     1      36.363   5.850  14.455  0.00  0.00    +0.000 OA
BRANCH  22  28
ATOM     25  C   UNL     1      39.038   6.547  18.977  0.00  0.00    +0.000 A 
ATOM     26  C   UNL     1      39.085   5.207  18.661  0.00  0.00    +0.000 A 
ATOM     27  C   UNL     1      38.637   4.750  17.457  0.00  0.00    +0.000 A 
ATOM     28  C   UNL     1      38.109   5.602  16.479  0.00  0.00    +0.000 A 
ATOM     29  C   UNL     1      38.074   6.945  16.824  0.00  0.00    +0.000 A 
ATOM     30  C   UNL     1      38.525   7.413  18.039  0.00  0.00    +0.000 A 
BRANCH  25  32
ATOM     31  C   UNL     1      39.829   8.395  20.319  0.00  0.00    +0.000 C 
ATOM     32  O   UNL     1      39.499   7.022  20.217  0.00  0.00    +0.000 OA
ENDBRANCH  25  32
ENDBRANCH  22  28
ENDBRANCH  21  22
ENDBRANCH  19  21
ENDBRANCH  18  19
ENDBRANCH   1  18
TORSDOF 9
ENDMDL
MODEL 5
REMARK VINA RESULT:      -7.5      3.440      7.737
REMARK  Name = 
REMARK  9 active torsions:
REMARK  status: ('A' for Active; 'I' for Inactive)
REMARK    1  A    between atoms: O_2  and  C_3
REMARK    2  A    between atoms: C_6  and  S_7
REMARK    3  A    between atoms: S_7  and  N_10
REMARK    4  A    between atoms: N_10  and  C_11
REMARK    5  A    between atoms: C_11  and  C_13
REMARK    6  A    between atoms: C_13  and  C_14
REMARK    7  A    between atoms: C_14  and  C_15
REMARK    8  A    between atoms: N_17  and  C_18
REMARK    9  A    between atoms: C_18  and  C_19
REMARK                            x       y       z     vdW  Elec       q    Type
REMARK                         _______ _______ _______ _____ _____    ______ ____
ROOT
ATOM      1  C   UNL     1      39.915   1.250  13.963  0.00  0.00    +0.000 C 
ENDROOT
BRANCH   1   2
ATOM      2  C   UNL     1      38.910   2.079  14.622  0.00  0.00    +0.000 A 
ATOM      3  C   UNL     1      39.108   3.461  14.775  0.00  0.00    +0.000 A 
ATOM      4  N   UNL     1      38.062   4.003  15.399  0.00  0.00    +0.000 N 
ATOM      5  C   UNL     1      37.187   3.014  15.658  0.00  0.00    +0.000 A 
ATOM      6  C   UNL     1      35.977   3.044  16.273  0.00  0.00    +0.000 A 
ATOM      7  C   UNL     1      35.234   1.902  16.439  0.00  0.00    +0.000 A 
ATOM      8  C   UNL     1      35.734   0.709  15.971  0.00  0.00    +0.000 A 
ATOM      9  C   UNL     1      36.955   0.688  15.352  0.00  0.00    +0.000 A 
ATOM     10  C   UNL     1      37.702   1.812  15.180  0.00  0.00    +0.000 A 
BRANCH   4  11
ATOM     11  C   UNL     1      37.929   5.424  15.725  0.00  0.00    +0.000 C 
BRANCH  11  12
ATOM     12  C   UNL     1      38.946   5.689  16.791  0.00  0.00    +0.000 A 
ATOM     13  C   UNL     1      40.192   6.170  16.371  0.00  0.00    +0.000 A 
ATOM     14  C   UNL     1      41.149   6.422  17.329  0.00  0.00    +0.000 A 
ATOM     15  C   UNL     1      40.883   6.208  18.648  0.00  0.00    +0.000 A 
ATOM     16  C   UNL     1      39.650   5.734  19.055  0.00  0.00    +0.000 A 
ATOM     17  C   UNL     1      38.691   5.477  18.130  0.00  0.00    +0.000 A 
ENDBRANCH  11  12
ENDBRANCH   4  11
ENDBRANCH   1   2
BRANCH   1  18
ATOM     18  C   UNL     1      39.453   0.793  12.607  0.00  0.00    +0.000 C 
BRANCH  18  19
ATOM     19  C   UNL     1      40.826   0.116  12.011  0.00  0.00    +0.000 C 
ATOM     20  C   UNL     1      41.762   1.392  12.446  0.00  0.00    +0.000 C 
BRANCH  19  21
ATOM     21  N   UNL     1      41.086  -0.701  13.325  0.00  0.00    +0.000 NA
BRANCH  21  22
ATOM     22  S   UNL     1      40.461  -2.252  13.210  0.00  0.00    +0.000 S 
ATOM     23  O   UNL     1      39.923  -2.413  11.790  0.00  0.00    +0.000 OA
ATOM     24  O   UNL     1      41.501  -3.331  13.342  0.00  0.00    +0.000 OA
BRANCH  22  28
ATOM     25  C   UNL     1      36.962  -2.959  16.067  0.00  0.00    +0.000 A 
ATOM     26  C   UNL     1      38.220  -2.665  16.546  0.00  0.00    +0.000 A 
ATOM     27  C   UNL     1      39.267  -2.453  15.699  0.00  0.00    +0.000 A 
ATOM     28  C   UNL     1      39.131  -2.520  14.307  0.00  0.00    +0.000 A 
ATOM     29  C   UNL     1      37.855  -2.817  13.852  0.00  0.00    +0.000 A 
ATOM     30  C   UNL     1      36.793  -3.032  14.703  0.00  0.00    +0.000 A 
BRANCH  25  32
ATOM     31  C   UNL     1      34.591  -2.783  16.504  0.00  0.00    +0.000 C 
ATOM     32  O   UNL     1      35.881  -3.178  16.937  0.00  0.00    +0.000 OA
ENDBRANCH  25  32
ENDBRANCH  22  28
ENDBRANCH  21  22
ENDBRANCH  19  21
ENDBRANCH  18  19
ENDBRANCH   1  18
TORSDOF 9
ENDMDL
MODEL 6
REMARK VINA RESULT:      -7.5      3.838      9.640
REMARK  Name = 
REMARK  9 active torsions:
REMARK  status: ('A' for Active; 'I' for Inactive)
REMARK    1  A    between atoms: O_2  and  C_3
REMARK    2  A    between atoms: C_6  and  S_7
REMARK    3  A    between atoms: S_7  and  N_10
REMARK    4  A    between atoms: N_10  and  C_11
REMARK    5  A    between atoms: C_11  and  C_13
REMARK    6  A    between atoms: C_13  and  C_14
REMARK    7  A    between atoms: C_14  and  C_15
REMARK    8  A    between atoms: N_17  and  C_18
REMARK    9  A    between atoms: C_18  and  C_19
REMARK                            x       y       z     vdW  Elec       q    Type
REMARK                         _______ _______ _______ _____ _____    ______ ____
ROOT
ATOM      1  C   UNL     1      38.989   5.285  16.723  0.00  0.00    +0.000 C 
ENDROOT
BRANCH   1   2
ATOM      2  C   UNL     1      38.613   6.615  17.195  0.00  0.00    +0.000 A 
ATOM      3  C   UNL     1      38.006   7.540  16.329  0.00  0.00    +0.000 A 
ATOM      4  N   UNL     1      37.754   8.674  16.981  0.00  0.00    +0.000 N 
ATOM      5  C   UNL     1      38.178   8.518  18.249  0.00  0.00    +0.000 A 
ATOM      6  C   UNL     1      38.150   9.373  19.302  0.00  0.00    +0.000 A 
ATOM      7  C   UNL     1      38.646   9.009  20.529  0.00  0.00    +0.000 A 
ATOM      8  C   UNL     1      39.178   7.750  20.685  0.00  0.00    +0.000 A 
ATOM      9  C   UNL     1      39.202   6.894  19.618  0.00  0.00    +0.000 A 
ATOM     10  C   UNL     1      38.715   7.241  18.395  0.00  0.00    +0.000 A 
BRANCH   4  11
ATOM     11  C   UNL     1      37.126   9.856  16.388  0.00  0.00    +0.000 C 
BRANCH  11  12
ATOM     12  C   UNL     1      35.656   9.572  16.385  0.00  0.00    +0.000 A 
ATOM     13  C   UNL     1      34.945   9.901  17.545  0.00  0.00    +0.000 A 
ATOM     14  C   UNL     1      33.592   9.651  17.572  0.00  0.00    +0.000 A 
ATOM     15  C   UNL     1      32.967   9.097  16.495  0.00  0.00    +0.000 A 
ATOM     16  C   UNL     1      33.676   8.776  15.352  0.00  0.00    +0.000 A 
ATOM     17  C   UNL     1      35.011   9.013  15.302  0.00  0.00    +0.000 A 
ENDBRANCH  11  12
ENDBRANCH   4  11
ENDBRANCH   1   2
BRANCH   1  18
ATOM     18  C   UNL     1      38.082   4.223  17.279  0.00  0.00    +0.000 C 
BRANCH  18  19
ATOM     19  C   UNL     1      37.291   3.735  15.924  0.00  0.00    +0.000 C 
ATOM     20  C   UNL     1      38.673   3.288  15.159  0.00  0.00    +0.000 C 
BRANCH  19  21
ATOM     21  N   UNL     1      36.994   2.313  16.516  0.00  0.00    +0.000 NA
BRANCH  21  22
ATOM     22  S   UNL     1      35.614   1.648  15.837  0.00  0.00    +0.000 S 
ATOM     23  O   UNL     1      34.423   2.189  16.624  0.00  0.00    +0.000 OA
ATOM     24  O   UNL     1      35.364   2.094  14.422  0.00  0.00    +0.000 OA
BRANCH  22  28
ATOM     25  C   UNL     1      35.503  -2.910  16.188  0.00  0.00    +0.000 A 
ATOM     26  C   UNL     1      36.276  -2.292  15.230  0.00  0.00    +0.000 A 
ATOM     27  C   UNL     1      36.312  -0.933  15.120  0.00  0.00    +0.000 A 
ATOM     28  C   UNL     1      35.578  -0.092  15.965  0.00  0.00    +0.000 A 
ATOM     29  C   UNL     1      34.809  -0.740  16.920  0.00  0.00    +0.000 A 
ATOM     30  C   UNL     1      34.768  -2.113  17.035  0.00  0.00    +0.000 A 
BRANCH  25  32
ATOM     31  C   UNL     1      36.691  -5.013  16.266  0.00  0.00    +0.000 C 
ATOM     32  O   UNL     1      35.462  -4.310  16.303  0.00  0.00    +0.000 OA
ENDBRANCH  25  32
ENDBRANCH  22  28
ENDBRANCH  21  22
ENDBRANCH  19  21
ENDBRANCH  18  19
ENDBRANCH   1  18
TORSDOF 9
ENDMDL
MODEL 7
REMARK VINA RESULT:      -7.5      2.958      8.506
REMARK  Name = 
REMARK  9 active torsions:
REMARK  status: ('A' for Active; 'I' for Inactive)
REMARK    1  A    between atoms: O_2  and  C_3
REMARK    2  A    between atoms: C_6  and  S_7
REMARK    3  A    between atoms: S_7  and  N_10
REMARK    4  A    between atoms: N_10  and  C_11
REMARK    5  A    between atoms: C_11  and  C_13
REMARK    6  A    between atoms: C_13  and  C_14
REMARK    7  A    between atoms: C_14  and  C_15
REMARK    8  A    between atoms: N_17  and  C_18
REMARK    9  A    between atoms: C_18  and  C_19
REMARK                            x       y       z     vdW  Elec       q    Type
REMARK                         _______ _______ _______ _____ _____    ______ ____
ROOT
ATOM      1  C   UNL     1      37.107   3.419  15.796  0.00  0.00    +0.000 C 
ENDROOT
BRANCH   1   2
ATOM      2  C   UNL     1      38.203   4.253  16.284  0.00  0.00    +0.000 A 
ATOM      3  C   UNL     1      38.311   4.571  17.648  0.00  0.00    +0.000 A 
ATOM      4  N   UNL     1      39.384   5.334  17.852  0.00  0.00    +0.000 N 
ATOM      5  C   UNL     1      39.980   5.524  16.661  0.00  0.00    +0.000 A 
ATOM      6  C   UNL     1      41.097   6.224  16.333  0.00  0.00    +0.000 A 
ATOM      7  C   UNL     1      41.539   6.293  15.036  0.00  0.00    +0.000 A 
ATOM      8  C   UNL     1      40.830   5.637  14.055  0.00  0.00    +0.000 A 
ATOM      9  C   UNL     1      39.706   4.935  14.395  0.00  0.00    +0.000 A 
ATOM     10  C   UNL     1      39.255   4.857  15.676  0.00  0.00    +0.000 A 
BRANCH   4  11
ATOM     11  C   UNL     1      39.804   5.852  19.155  0.00  0.00    +0.000 C 
BRANCH  11  12
ATOM     12  C   UNL     1      38.975   7.076  19.388  0.00  0.00    +0.000 A 
ATOM     13  C   UNL     1      39.193   7.771  20.583  0.00  0.00    +0.000 A 
ATOM     14  C   UNL     1      38.445   8.901  20.825  0.00  0.00    +0.000 A 
ATOM     15  C   UNL     1      37.518   9.326  19.921  0.00  0.00    +0.000 A 
ATOM     16  C   UNL     1      37.308   8.635  18.742  0.00  0.00    +0.000 A 
ATOM     17  C   UNL     1      38.033   7.518  18.481  0.00  0.00    +0.000 A 
ENDBRANCH  11  12
ENDBRANCH   4  11
ENDBRANCH   1   2
BRANCH   1  18
ATOM     18  C   UNL     1      36.402   2.715  16.922  0.00  0.00    +0.000 C 
BRANCH  18  19
ATOM     19  C   UNL     1      35.591   1.542  16.109  0.00  0.00    +0.000 C 
ATOM     20  C   UNL     1      35.142   2.553  14.896  0.00  0.00    +0.000 C 
BRANCH  19  21
ATOM     21  N   UNL     1      36.890   1.032  15.392  0.00  0.00    +0.000 NA
BRANCH  21  22
ATOM     22  S   UNL     1      37.249  -0.544  15.830  0.00  0.00    +0.000 S 
ATOM     23  O   UNL     1      37.219  -0.602  17.356  0.00  0.00    +0.000 OA
ATOM     24  O   UNL     1      36.209  -1.542  15.397  0.00  0.00    +0.000 OA
BRANCH  22  28
ATOM     25  C   UNL     1      41.433  -1.807  14.486  0.00  0.00    +0.000 A 
ATOM     26  C   UNL     1      40.592  -2.698  15.118  0.00  0.00    +0.000 A 
ATOM     27  C   UNL     1      39.344  -2.326  15.521  0.00  0.00    +0.000 A 
ATOM     28  C   UNL     1      38.843  -1.034  15.320  0.00  0.00    +0.000 A 
ATOM     29  C   UNL     1      39.709  -0.159  14.681  0.00  0.00    +0.000 A 
ATOM     30  C   UNL     1      40.972  -0.528  14.271  0.00  0.00    +0.000 A 
BRANCH  25  32
ATOM     31  C   UNL     1      42.843  -2.855  12.827  0.00  0.00    +0.000 C 
ATOM     32  O   UNL     1      42.720  -2.186  14.069  0.00  0.00    +0.000 OA
ENDBRANCH  25  32
ENDBRANCH  22  28
ENDBRANCH  21  22
ENDBRANCH  19  21
ENDBRANCH  18  19
ENDBRANCH   1  18
TORSDOF 9
ENDMDL
MODEL 8
REMARK VINA RESULT:      -7.5      2.042      4.342
REMARK  Name = 
REMARK  9 active torsions:
REMARK  status: ('A' for Active; 'I' for Inactive)
REMARK    1  A    between atoms: O_2  and  C_3
REMARK    2  A    between atoms: C_6  and  S_7
REMARK    3  A    between atoms: S_7  and  N_10
REMARK    4  A    between atoms: N_10  and  C_11
REMARK    5  A    between atoms: C_11  and  C_13
REMARK    6  A    between atoms: C_13  and  C_14
REMARK    7  A    between atoms: C_14  and  C_15
REMARK    8  A    between atoms: N_17  and  C_18
REMARK    9  A    between atoms: C_18  and  C_19
REMARK                            x       y       z     vdW  Elec       q    Type
REMARK                         _______ _______ _______ _____ _____    ______ ____
ROOT
ATOM      1  C   UNL     1      39.471   2.584  14.239  0.00  0.00    +0.000 C 
ENDROOT
BRANCH   1   2
ATOM      2  C   UNL     1      39.317   1.153  14.490  0.00  0.00    +0.000 A 
ATOM      3  C   UNL     1      38.063   0.613  14.819  0.00  0.00    +0.000 A 
ATOM      4  N   UNL     1      38.169  -0.703  14.998  0.00  0.00    +0.000 N 
ATOM      5  C   UNL     1      39.457  -1.039  14.795  0.00  0.00    +0.000 A 
ATOM      6  C   UNL     1      40.076  -2.245  14.858  0.00  0.00    +0.000 A 
ATOM      7  C   UNL     1      41.421  -2.369  14.614  0.00  0.00    +0.000 A 
ATOM      8  C   UNL     1      42.147  -1.243  14.300  0.00  0.00    +0.000 A 
ATOM      9  C   UNL     1      41.514  -0.031  14.239  0.00  0.00    +0.000 A 
ATOM     10  C   UNL     1      40.182   0.107  14.479  0.00  0.00    +0.000 A 
BRANCH   4  11
ATOM     11  C   UNL     1      37.059  -1.590  15.351  0.00  0.00    +0.000 C 
BRANCH  11  12
ATOM     12  C   UNL     1      36.778  -1.326  16.797  0.00  0.00    +0.000 A 
ATOM     13  C   UNL     1      35.574  -0.680  17.101  0.00  0.00    +0.000 A 
ATOM     14  C   UNL     1      35.287  -0.423  18.422  0.00  0.00    +0.000 A 
ATOM     15  C   UNL     1      36.158  -0.789  19.404  0.00  0.00    +0.000 A 
ATOM     16  C   UNL     1      37.346  -1.427  19.098  0.00  0.00    +0.000 A 
ATOM     17  C   UNL     1      37.650  -1.692  17.802  0.00  0.00    +0.000 A 
ENDBRANCH  11  12
ENDBRANCH   4  11
ENDBRANCH   1   2
BRANCH   1  18
ATOM     18  C   UNL     1      38.792   3.409  15.298  0.00  0.00    +0.000 C 
BRANCH  18  19
ATOM     19  C   UNL     1      38.666   4.861  14.541  0.00  0.00    +0.000 C 
ATOM     20  C   UNL     1      37.384   4.388  13.632  0.00  0.00    +0.000 C 
BRANCH  19  21
ATOM     21  N   UNL     1      37.798   5.474  15.695  0.00  0.00    +0.000 NA
BRANCH  21  22
ATOM     22  S   UNL     1      38.439   6.927  16.231  0.00  0.00    +0.000 S 
ATOM     23  O   UNL     1      39.213   7.532  15.063  0.00  0.00    +0.000 OA
ATOM     24  O   UNL     1      37.395   7.959  16.565  0.00  0.00    +0.000 OA
BRANCH  22  28
ATOM     25  C   UNL     1      41.399   6.378  19.672  0.00  0.00    +0.000 A 
ATOM     26  C   UNL     1      40.049   6.510  19.913  0.00  0.00    +0.000 A 
ATOM     27  C   UNL     1      39.162   6.675  18.891  0.00  0.00    +0.000 A 
ATOM     28  C   UNL     1      39.562   6.717  17.550  0.00  0.00    +0.000 A 
ATOM     29  C   UNL     1      40.925   6.581  17.336  0.00  0.00    +0.000 A 
ATOM     30  C   UNL     1      41.827   6.415  18.365  0.00  0.00    +0.000 A 
BRANCH  25  32
ATOM     31  C   UNL     1      43.633   6.698  20.539  0.00  0.00    +0.000 C 
ATOM     32  O   UNL     1      42.317   6.209  20.723  0.00  0.00    +0.000 OA
ENDBRANCH  25  32
ENDBRANCH  22  28
ENDBRANCH  21  22
ENDBRANCH  19  21
ENDBRANCH  18  19
ENDBRANCH   1  18
TORSDOF 9
ENDMDL
MODEL 9
REMARK VINA RESULT:      -7.4      2.212      4.438
REMARK  Name = 
REMARK  9 active torsions:
REMARK  status: ('A' for Active; 'I' for Inactive)
REMARK    1  A    between atoms: O_2  and  C_3
REMARK    2  A    between atoms: C_6  and  S_7
REMARK    3  A    between atoms: S_7  and  N_10
REMARK    4  A    between atoms: N_10  and  C_11
REMARK    5  A    between atoms: C_11  and  C_13
REMARK    6  A    between atoms: C_13  and  C_14
REMARK    7  A    between atoms: C_14  and  C_15
REMARK    8  A    between atoms: N_17  and  C_18
REMARK    9  A    between atoms: C_18  and  C_19
REMARK                            x       y       z     vdW  Elec       q    Type
REMARK                         _______ _______ _______ _____ _____    ______ ____
ROOT
ATOM      1  C   UNL     1      39.745   2.374  14.123  0.00  0.00    +0.000 C 
ENDROOT
BRANCH   1   2
ATOM      2  C   UNL     1      39.377   0.992  14.421  0.00  0.00    +0.000 A 
ATOM      3  C   UNL     1      38.044   0.650  14.704  0.00  0.00    +0.000 A 
ATOM      4  N   UNL     1      37.952  -0.659  14.939  0.00  0.00    +0.000 N 
ATOM      5  C   UNL     1      39.186  -1.181  14.818  0.00  0.00    +0.000 A 
ATOM      6  C   UNL     1      39.623  -2.459  14.959  0.00  0.00    +0.000 A 
ATOM      7  C   UNL     1      40.946  -2.782  14.791  0.00  0.00    +0.000 A 
ATOM      8  C   UNL     1      41.840  -1.785  14.473  0.00  0.00    +0.000 A 
ATOM      9  C   UNL     1      41.390  -0.500  14.332  0.00  0.00    +0.000 A 
ATOM     10  C   UNL     1      40.082  -0.164  14.495  0.00  0.00    +0.000 A 
BRANCH   4  11
ATOM     11  C   UNL     1      36.711  -1.363  15.267  0.00  0.00    +0.000 C 
BRANCH  11  12
ATOM     12  C   UNL     1      36.354  -0.923  16.653  0.00  0.00    +0.000 A 
ATOM     13  C   UNL     1      37.120  -1.444  17.701  0.00  0.00    +0.000 A 
ATOM     14  C   UNL     1      36.815  -1.059  18.986  0.00  0.00    +0.000 A 
ATOM     15  C   UNL     1      35.790  -0.192  19.225  0.00  0.00    +0.000 A 
ATOM     16  C   UNL     1      35.038   0.321  18.185  0.00  0.00    +0.000 A 
ATOM     17  C   UNL     1      35.320  -0.045  16.909  0.00  0.00    +0.000 A 
ENDBRANCH  11  12
ENDBRANCH   4  11
ENDBRANCH   1   2
BRANCH   1  18
ATOM     18  C   UNL     1      39.199   2.820  12.795  0.00  0.00    +0.000 C 
BRANCH  18  19
ATOM     19  C   UNL     1      38.774   4.371  13.127  0.00  0.00    +0.000 C 
ATOM     20  C   UNL     1      39.164   4.904  11.624  0.00  0.00    +0.000 C 
BRANCH  19  21
ATOM     21  N   UNL     1      37.263   4.110  12.794  0.00  0.00    +0.000 NA
BRANCH  21  22
ATOM     22  S   UNL     1      36.301   4.290  14.153  0.00  0.00    +0.000 S 
ATOM     23  O   UNL     1      35.352   5.454  13.878  0.00  0.00    +0.000 OA
ATOM     24  O   UNL     1      35.393   3.117  14.408  0.00  0.00    +0.000 OA
BRANCH  22  28
ATOM     25  C   UNL     1      38.718   5.327  17.894  0.00  0.00    +0.000 A 
ATOM     26  C   UNL     1      38.520   6.258  16.897  0.00  0.00    +0.000 A 
ATOM     27  C   UNL     1      37.800   5.954  15.780  0.00  0.00    +0.000 A 
ATOM     28  C   UNL     1      37.224   4.694  15.578  0.00  0.00    +0.000 A 
ATOM     29  C   UNL     1      37.438   3.777  16.596  0.00  0.00    +0.000 A 
ATOM     30  C   UNL     1      38.165   4.078  17.728  0.00  0.00    +0.000 A 
BRANCH  25  32
ATOM     31  C   UNL     1      39.275   6.914  19.629  0.00  0.00    +0.000 C 
ATOM     32  O   UNL     1      39.459   5.637  19.047  0.00  0.00    +0.000 OA
ENDBRANCH  25  32
ENDBRANCH  22  28
ENDBRANCH  21  22
ENDBRANCH  19  21
ENDBRANCH  18  19
ENDBRANCH   1  18
TORSDOF 9
ENDMDL
MODEL 10
REMARK VINA RESULT:      -7.3      3.322      8.529
REMARK  Name = 
REMARK  9 active torsions:
REMARK  status: ('A' for Active; 'I' for Inactive)
REMARK    1  A    between atoms: O_2  and  C_3
REMARK    2  A    between atoms: C_6  and  S_7
REMARK    3  A    between atoms: S_7  and  N_10
REMARK    4  A    between atoms: N_10  and  C_11
REMARK    5  A    between atoms: C_11  and  C_13
REMARK    6  A    between atoms: C_13  and  C_14
REMARK    7  A    between atoms: C_14  and  C_15
REMARK    8  A    between atoms: N_17  and  C_18
REMARK    9  A    between atoms: C_18  and  C_19
REMARK                            x       y       z     vdW  Elec       q    Type
REMARK                         _______ _______ _______ _____ _____    ______ ____
ROOT
ATOM      1  C   UNL     1      37.404   3.149  15.989  0.00  0.00    +0.000 C 
ENDROOT
BRANCH   1   2
ATOM      2  C   UNL     1      37.722   4.564  16.163  0.00  0.00    +0.000 A 
ATOM      3  C   UNL     1      37.356   5.507  15.189  0.00  0.00    +0.000 A 
ATOM      4  N   UNL     1      37.746   6.724  15.567  0.00  0.00    +0.000 N 
ATOM      5  C   UNL     1      38.356   6.603  16.760  0.00  0.00    +0.000 A 
ATOM      6  C   UNL     1      38.927   7.540  17.560  0.00  0.00    +0.000 A 
ATOM      7  C   UNL     1      39.506   7.198  18.756  0.00  0.00    +0.000 A 
ATOM      8  C   UNL     1      39.503   5.878  19.144  0.00  0.00    +0.000 A 
ATOM      9  C   UNL     1      38.926   4.940  18.331  0.00  0.00    +0.000 A 
ATOM     10  C   UNL     1      38.348   5.264  17.143  0.00  0.00    +0.000 A 
BRANCH   4  11
ATOM     11  C   UNL     1      37.530   7.948  14.793  0.00  0.00    +0.000 C 
BRANCH  11  12
ATOM     12  C   UNL     1      36.174   8.441  15.190  0.00  0.00    +0.000 A 
ATOM     13  C   UNL     1      35.085   7.965  14.450  0.00  0.00    +0.000 A 
ATOM     14  C   UNL     1      33.825   8.402  14.791  0.00  0.00    +0.000 A 
ATOM     15  C   UNL     1      33.650   9.275  15.823  0.00  0.00    +0.000 A 
ATOM     16  C   UNL     1      34.730   9.741  16.550  0.00  0.00    +0.000 A 
ATOM     17  C   UNL     1      35.982   9.325  16.232  0.00  0.00    +0.000 A 
ENDBRANCH  11  12
ENDBRANCH   4  11
ENDBRANCH   1   2
BRANCH   1  18
ATOM     18  C   UNL     1      36.195   2.750  16.789  0.00  0.00    +0.000 C 
BRANCH  18  19
ATOM     19  C   UNL     1      35.760   1.355  16.039  0.00  0.00    +0.000 C 
ATOM     20  C   UNL     1      35.442   2.104  14.614  0.00  0.00    +0.000 C 
BRANCH  19  21
ATOM     21  N   UNL     1      37.243   0.995  15.679  0.00  0.00    +0.000 NA
BRANCH  21  22
ATOM     22  S   UNL     1      37.534  -0.644  15.868  0.00  0.00    +0.000 S 
ATOM     23  O   UNL     1      37.487  -0.937  17.366  0.00  0.00    +0.000 OA
ATOM     24  O   UNL     1      36.460  -1.519  15.280  0.00  0.00    +0.000 OA
BRANCH  22  28
ATOM     25  C   UNL     1      41.676  -1.853  14.355  0.00  0.00    +0.000 A 
ATOM     26  C   UNL     1      40.875  -2.754  15.023  0.00  0.00    +0.000 A 
ATOM     27  C   UNL     1      39.639  -2.398  15.476  0.00  0.00    +0.000 A 
ATOM     28  C   UNL     1      39.113  -1.114  15.293  0.00  0.00    +0.000 A 
ATOM     29  C   UNL     1      39.940  -0.228  14.618  0.00  0.00    +0.000 A 
ATOM     30  C   UNL     1      41.190  -0.582  14.158  0.00  0.00    +0.000 A 
BRANCH  25  32
ATOM     31  C   UNL     1      43.031  -2.899  12.648  0.00  0.00    +0.000 C 
ATOM     32  O   UNL     1      42.950  -2.216  13.886  0.00  0.00    +0.000 OA
ENDBRANCH  25  32
ENDBRANCH  22  28
ENDBRANCH  21  22
ENDBRANCH  19  21
ENDBRANCH  18  19
ENDBRANCH   1  18
TORSDOF 9
ENDMDL
