MODEL 1
REMARK VINA RESULT:      -6.5      0.000      0.000
REMARK  Name = 
REMARK  5 active torsions:
REMARK  status: ('A' for Active; 'I' for Inactive)
REMARK    1  A    between atoms: C_2  and  C_5
REMARK    2  A    between atoms: C_5  and  C_6
REMARK    3  A    between atoms: C_6  and  N_9
REMARK    4  A    between atoms: C_10  and  C_12
REMARK    5  A    between atoms: C_15  and  N_16
REMARK                            x       y       z     vdW  Elec       q    Type
REMARK                         _______ _______ _______ _____ _____    ______ ____
ROOT
ATOM      1  N   UNL     1      17.781  11.249  36.611  0.00  0.00    +0.000 NA
ATOM      2  C   UNL     1      17.176  10.441  35.614  0.00  0.00    +0.000 C 
ATOM      3  O   UNL     1      17.297   9.197  35.713  0.00  0.00    +0.000 OA
ENDROOT
BRANCH   2   4
ATOM      4  C   UNL     1      16.432  11.030  34.499  0.00  0.00    +0.000 A 
ATOM      5  C   UNL     1      15.464  11.990  34.712  0.00  0.00    +0.000 A 
ATOM      6  C   UNL     1      14.762  12.545  33.661  0.00  0.00    +0.000 A 
ATOM      7  C   UNL     1      14.989  12.172  32.353  0.00  0.00    +0.000 A 
ATOM      8  C   UNL     1      15.962  11.208  32.141  0.00  0.00    +0.000 A 
ATOM      9  C   UNL     1      16.663  10.655  33.192  0.00  0.00    +0.000 A 
BRANCH   7  10
ATOM     10  N   UNL     1      14.268  12.742  31.271  0.00  0.00    +0.000 N 
ATOM     11  O   UNL     1      14.556  12.388  30.114  0.00  0.00    +0.000 OA
ATOM     12  O   UNL     1      13.269  13.662  31.438  0.00  0.00    +0.000 OA
ENDBRANCH   7  10
ENDBRANCH   2   4
BRANCH   1  13
ATOM     13  C   UNL     1      18.527  10.645  37.726  0.00  0.00    +0.000 C 
ATOM     14  C   UNL     1      19.254  11.821  38.393  0.00  0.00    +0.000 C 
ATOM     15  C   UNL     1      19.535   9.675  37.171  0.00  0.00    +0.000 C 
BRANCH  13  16
ATOM     16  C   UNL     1      17.553  10.012  38.678  0.00  0.00    +0.000 C 
BRANCH  16  18
ATOM     17  C   UNL     1      19.578  10.204  40.149  0.00  0.00    +0.000 C 
ATOM     18  C   UNL     1      18.319   9.433  39.847  0.00  0.00    +0.000 C 
ATOM     19  C   UNL     1      17.454   9.446  41.113  0.00  0.00    +0.000 C 
ATOM     20  C   UNL     1      18.720   7.995  39.583  0.00  0.00    +0.000 C 
ENDBRANCH  16  18
ENDBRANCH  13  16
ENDBRANCH   1  13
TORSDOF 5
ENDMDL
MODEL 2
REMARK VINA RESULT:      -6.4      1.302      2.506
REMARK  Name = 
REMARK  5 active torsions:
REMARK  status: ('A' for Active; 'I' for Inactive)
REMARK    1  A    between atoms: C_2  and  C_5
REMARK    2  A    between atoms: C_5  and  C_6
REMARK    3  A    between atoms: C_6  and  N_9
REMARK    4  A    between atoms: C_10  and  C_12
REMARK    5  A    between atoms: C_15  and  N_16
REMARK                            x       y       z     vdW  Elec       q    Type
REMARK                         _______ _______ _______ _____ _____    ______ ____
ROOT
ATOM      1  N   UNL     1      18.219  10.870  36.590  0.00  0.00    +0.000 NA
ATOM      2  C   UNL     1      17.774  10.122  35.469  0.00  0.00    +0.000 C 
ATOM      3  O   UNL     1      18.158   8.933  35.367  0.00  0.00    +0.000 OA
ENDROOT
BRANCH   2   4
ATOM      4  C   UNL     1      16.893  10.709  34.457  0.00  0.00    +0.000 A 
ATOM      5  C   UNL     1      17.033  10.400  33.120  0.00  0.00    +0.000 A 
ATOM      6  C   UNL     1      16.202  10.953  32.167  0.00  0.00    +0.000 A 
ATOM      7  C   UNL     1      15.197  11.837  32.498  0.00  0.00    +0.000 A 
ATOM      8  C   UNL     1      15.058  12.146  33.841  0.00  0.00    +0.000 A 
ATOM      9  C   UNL     1      15.888  11.592  34.793  0.00  0.00    +0.000 A 
BRANCH   7  10
ATOM     10  N   UNL     1      14.342  12.407  31.518  0.00  0.00    +0.000 N 
ATOM     11  O   UNL     1      14.330  11.909  30.378  0.00  0.00    +0.000 OA
ATOM     12  O   UNL     1      13.528  13.478  31.765  0.00  0.00    +0.000 OA
ENDBRANCH   7  10
ENDBRANCH   2   4
BRANCH   1  13
ATOM     13  C   UNL     1      19.103  10.268  37.599  0.00  0.00    +0.000 C 
ATOM     14  C   UNL     1      18.268   9.147  38.233  0.00  0.00    +0.000 C 
ATOM     15  C   UNL     1      19.432  11.304  38.640  0.00  0.00    +0.000 C 
BRANCH  13  16
ATOM     16  C   UNL     1      20.315   9.707  36.913  0.00  0.00    +0.000 C 
BRANCH  16  18
ATOM     17  C   UNL     1      21.591  11.634  37.894  0.00  0.00    +0.000 C 
ATOM     18  C   UNL     1      21.551  10.144  37.669  0.00  0.00    +0.000 C 
ATOM     19  C   UNL     1      21.605   9.466  39.043  0.00  0.00    +0.000 C 
ATOM     20  C   UNL     1      22.815   9.764  36.923  0.00  0.00    +0.000 C 
ENDBRANCH  16  18
ENDBRANCH  13  16
ENDBRANCH   1  13
TORSDOF 5
ENDMDL
MODEL 3
REMARK VINA RESULT:      -6.1      1.444      2.617
REMARK  Name = 
REMARK  5 active torsions:
REMARK  status: ('A' for Active; 'I' for Inactive)
REMARK    1  A    between atoms: C_2  and  C_5
REMARK    2  A    between atoms: C_5  and  C_6
REMARK    3  A    between atoms: C_6  and  N_9
REMARK    4  A    between atoms: C_10  and  C_12
REMARK    5  A    between atoms: C_15  and  N_16
REMARK                            x       y       z     vdW  Elec       q    Type
REMARK                         _______ _______ _______ _____ _____    ______ ____
ROOT
ATOM      1  N   UNL     1      17.329   9.940  38.207  0.00  0.00    +0.000 NA
ATOM      2  C   UNL     1      17.922   9.991  36.919  0.00  0.00    +0.000 C 
ATOM      3  O   UNL     1      19.117   9.626  36.808  0.00  0.00    +0.000 OA
ENDROOT
BRANCH   2   4
ATOM      4  C   UNL     1      17.173  10.452  35.748  0.00  0.00    +0.000 A 
ATOM      5  C   UNL     1      17.522  10.058  34.473  0.00  0.00    +0.000 A 
ATOM      6  C   UNL     1      16.816  10.492  33.370  0.00  0.00    +0.000 A 
ATOM      7  C   UNL     1      15.733  11.337  33.483  0.00  0.00    +0.000 A 
ATOM      8  C   UNL     1      15.383  11.733  34.764  0.00  0.00    +0.000 A 
ATOM      9  C   UNL     1      16.089  11.297  35.866  0.00  0.00    +0.000 A 
BRANCH   7  10
ATOM     10  N   UNL     1      15.005  11.785  32.349  0.00  0.00    +0.000 N 
ATOM     11  O   UNL     1      14.556  12.945  32.353  0.00  0.00    +0.000 OA
ATOM     12  O   UNL     1      14.774  11.004  31.250  0.00  0.00    +0.000 OA
ENDBRANCH   7  10
ENDBRANCH   2   4
BRANCH   1  13
ATOM     13  C   UNL     1      18.093   9.475  39.375  0.00  0.00    +0.000 C 
ATOM     14  C   UNL     1      17.103   9.554  40.546  0.00  0.00    +0.000 C 
ATOM     15  C   UNL     1      19.239  10.419  39.616  0.00  0.00    +0.000 C 
BRANCH  13  16
ATOM     16  C   UNL     1      18.526   8.057  39.139  0.00  0.00    +0.000 C 
BRANCH  16  18
ATOM     17  C   UNL     1      17.070   7.188  40.992  0.00  0.00    +0.000 C 
ATOM     18  C   UNL     1      18.473   7.306  40.453  0.00  0.00    +0.000 C 
ATOM     19  C   UNL     1      19.024   5.886  40.280  0.00  0.00    +0.000 C 
ATOM     20  C   UNL     1      19.310   7.994  41.513  0.00  0.00    +0.000 C 
ENDBRANCH  16  18
ENDBRANCH  13  16
ENDBRANCH   1  13
TORSDOF 5
ENDMDL
MODEL 4
REMARK VINA RESULT:      -6.1      1.463      2.163
REMARK  Name = 
REMARK  5 active torsions:
REMARK  status: ('A' for Active; 'I' for Inactive)
REMARK    1  A    between atoms: C_2  and  C_5
REMARK    2  A    between atoms: C_5  and  C_6
REMARK    3  A    between atoms: C_6  and  N_9
REMARK    4  A    between atoms: C_10  and  C_12
REMARK    5  A    between atoms: C_15  and  N_16
REMARK                            x       y       z     vdW  Elec       q    Type
REMARK                         _______ _______ _______ _____ _____    ______ ____
ROOT
ATOM      1  N   UNL     1      17.322   9.915  38.229  0.00  0.00    +0.000 NA
ATOM      2  C   UNL     1      17.979   9.945  36.971  0.00  0.00    +0.000 C 
ATOM      3  O   UNL     1      19.164   9.539  36.918  0.00  0.00    +0.000 OA
ENDROOT
BRANCH   2   4
ATOM      4  C   UNL     1      17.305  10.433  35.767  0.00  0.00    +0.000 A 
ATOM      5  C   UNL     1      16.247  11.315  35.844  0.00  0.00    +0.000 A 
ATOM      6  C   UNL     1      15.612  11.775  34.709  0.00  0.00    +0.000 A 
ATOM      7  C   UNL     1      15.998  11.380  33.446  0.00  0.00    +0.000 A 
ATOM      8  C   UNL     1      17.061  10.494  33.368  0.00  0.00    +0.000 A 
ATOM      9  C   UNL     1      17.695  10.036  34.504  0.00  0.00    +0.000 A 
BRANCH   7  10
ATOM     10  N   UNL     1      15.346  11.852  32.276  0.00  0.00    +0.000 N 
ATOM     11  O   UNL     1      15.556  11.263  31.200  0.00  0.00    +0.000 OA
ATOM     12  O   UNL     1      14.494  12.922  32.273  0.00  0.00    +0.000 OA
ENDBRANCH   7  10
ENDBRANCH   2   4
BRANCH   1  13
ATOM     13  C   UNL     1      18.011   9.423  39.431  0.00  0.00    +0.000 C 
ATOM     14  C   UNL     1      16.951   9.481  40.540  0.00  0.00    +0.000 C 
ATOM     15  C   UNL     1      19.142  10.357  39.763  0.00  0.00    +0.000 C 
BRANCH  13  16
ATOM     16  C   UNL     1      18.455   8.008  39.193  0.00  0.00    +0.000 C 
BRANCH  16  18
ATOM     17  C   UNL     1      19.267   8.053  41.569  0.00  0.00    +0.000 C 
ATOM     18  C   UNL     1      18.506   7.283  40.521  0.00  0.00    +0.000 C 
ATOM     19  C   UNL     1      17.089   7.048  41.057  0.00  0.00    +0.000 C 
ATOM     20  C   UNL     1      19.170   5.927  40.382  0.00  0.00    +0.000 C 
ENDBRANCH  16  18
ENDBRANCH  13  16
ENDBRANCH   1  13
TORSDOF 5
ENDMDL
MODEL 5
REMARK VINA RESULT:      -6.0      2.018      3.228
REMARK  Name = 
REMARK  5 active torsions:
REMARK  status: ('A' for Active; 'I' for Inactive)
REMARK    1  A    between atoms: C_2  and  C_5
REMARK    2  A    between atoms: C_5  and  C_6
REMARK    3  A    between atoms: C_6  and  N_9
REMARK    4  A    between atoms: C_10  and  C_12
REMARK    5  A    between atoms: C_15  and  N_16
REMARK                            x       y       z     vdW  Elec       q    Type
REMARK                         _______ _______ _______ _____ _____    ______ ____
ROOT
ATOM      1  N   UNL     1      19.403   9.812  37.757  0.00  0.00    +0.000 NA
ATOM      2  C   UNL     1      18.022  10.088  37.583  0.00  0.00    +0.000 C 
ATOM      3  O   UNL     1      17.288  10.072  38.599  0.00  0.00    +0.000 OA
ENDROOT
BRANCH   2   4
ATOM      4  C   UNL     1      17.461  10.384  36.263  0.00  0.00    +0.000 A 
ATOM      5  C   UNL     1      16.374  11.221  36.118  0.00  0.00    +0.000 A 
ATOM      6  C   UNL     1      15.846  11.501  34.875  0.00  0.00    +0.000 A 
ATOM      7  C   UNL     1      16.372  10.962  33.720  0.00  0.00    +0.000 A 
ATOM      8  C   UNL     1      17.463  10.121  33.866  0.00  0.00    +0.000 A 
ATOM      9  C   UNL     1      17.991   9.843  35.110  0.00  0.00    +0.000 A 
BRANCH   7  10
ATOM     10  N   UNL     1      15.829  11.248  32.439  0.00  0.00    +0.000 N 
ATOM     11  O   UNL     1      16.167  10.533  31.478  0.00  0.00    +0.000 OA
ATOM     12  O   UNL     1      14.950  12.271  32.209  0.00  0.00    +0.000 OA
ENDBRANCH   7  10
ENDBRANCH   2   4
BRANCH   1  13
ATOM     13  C   UNL     1      19.954   9.516  39.088  0.00  0.00    +0.000 C 
ATOM     14  C   UNL     1      19.251   8.222  39.524  0.00  0.00    +0.000 C 
ATOM     15  C   UNL     1      19.588  10.632  40.028  0.00  0.00    +0.000 C 
BRANCH  13  16
ATOM     16  C   UNL     1      21.435   9.300  38.965  0.00  0.00    +0.000 C 
BRANCH  16  18
ATOM     17  C   UNL     1      21.403  11.643  38.061  0.00  0.00    +0.000 C 
ATOM     18  C   UNL     1      21.982  10.258  37.929  0.00  0.00    +0.000 C 
ATOM     19  C   UNL     1      23.505  10.378  38.062  0.00  0.00    +0.000 C 
ATOM     20  C   UNL     1      21.686   9.775  36.522  0.00  0.00    +0.000 C 
ENDBRANCH  16  18
ENDBRANCH  13  16
ENDBRANCH   1  13
TORSDOF 5
ENDMDL
MODEL 6
REMARK VINA RESULT:      -6.0      2.019      2.977
REMARK  Name = 
REMARK  5 active torsions:
REMARK  status: ('A' for Active; 'I' for Inactive)
REMARK    1  A    between atoms: C_2  and  C_5
REMARK    2  A    between atoms: C_5  and  C_6
REMARK    3  A    between atoms: C_6  and  N_9
REMARK    4  A    between atoms: C_10  and  C_12
REMARK    5  A    between atoms: C_15  and  N_16
REMARK                            x       y       z     vdW  Elec       q    Type
REMARK                         _______ _______ _______ _____ _____    ______ ____
ROOT
ATOM      1  N   UNL     1      18.193   8.856  38.564  0.00  0.00    +0.000 NA
ATOM      2  C   UNL     1      18.295  10.103  37.896  0.00  0.00    +0.000 C 
ATOM      3  O   UNL     1      18.944  11.018  38.456  0.00  0.00    +0.000 OA
ENDROOT
BRANCH   2   4
ATOM      4  C   UNL     1      17.667  10.327  36.592  0.00  0.00    +0.000 A 
ATOM      5  C   UNL     1      16.539  11.112  36.465  0.00  0.00    +0.000 A 
ATOM      6  C   UNL     1      15.948  11.323  35.237  0.00  0.00    +0.000 A 
ATOM      7  C   UNL     1      16.449  10.765  34.079  0.00  0.00    +0.000 A 
ATOM      8  C   UNL     1      17.582   9.977  34.208  0.00  0.00    +0.000 A 
ATOM      9  C   UNL     1      18.172   9.768  35.437  0.00  0.00    +0.000 A 
BRANCH   7  10
ATOM     10  N   UNL     1      15.841  10.981  32.814  0.00  0.00    +0.000 N 
ATOM     11  O   UNL     1      14.916  10.227  32.463  0.00  0.00    +0.000 OA
ATOM     12  O   UNL     1      16.223  11.980  31.961  0.00  0.00    +0.000 OA
ENDBRANCH   7  10
ENDBRANCH   2   4
BRANCH   1  13
ATOM     13  C   UNL     1      18.828   8.644  39.873  0.00  0.00    +0.000 C 
ATOM     14  C   UNL     1      20.316   8.944  39.640  0.00  0.00    +0.000 C 
ATOM     15  C   UNL     1      18.659   7.203  40.271  0.00  0.00    +0.000 C 
BRANCH  13  16
ATOM     16  C   UNL     1      18.240   9.609  40.862  0.00  0.00    +0.000 C 
BRANCH  16  18
ATOM     17  C   UNL     1      16.725   7.633  41.192  0.00  0.00    +0.000 C 
ATOM     18  C   UNL     1      16.854   9.134  41.241  0.00  0.00    +0.000 C 
ATOM     19  C   UNL     1      16.505   9.583  42.665  0.00  0.00    +0.000 C 
ATOM     20  C   UNL     1      15.803   9.710  40.312  0.00  0.00    +0.000 C 
ENDBRANCH  16  18
ENDBRANCH  13  16
ENDBRANCH   1  13
TORSDOF 5
ENDMDL
MODEL 7
REMARK VINA RESULT:      -5.9      1.327      2.290
REMARK  Name = 
REMARK  5 active torsions:
REMARK  status: ('A' for Active; 'I' for Inactive)
REMARK    1  A    between atoms: C_2  and  C_5
REMARK    2  A    between atoms: C_5  and  C_6
REMARK    3  A    between atoms: C_6  and  N_9
REMARK    4  A    between atoms: C_10  and  C_12
REMARK    5  A    between atoms: C_15  and  N_16
REMARK                            x       y       z     vdW  Elec       q    Type
REMARK                         _______ _______ _______ _____ _____    ______ ____
ROOT
ATOM      1  N   UNL     1      17.866  10.919  36.391  0.00  0.00    +0.000 NA
ATOM      2  C   UNL     1      16.687  11.701  36.279  0.00  0.00    +0.000 C 
ATOM      3  O   UNL     1      16.208  12.194  37.328  0.00  0.00    +0.000 OA
ENDROOT
BRANCH   2   4
ATOM      4  C   UNL     1      16.041  11.932  34.985  0.00  0.00    +0.000 A 
ATOM      5  C   UNL     1      14.909  12.714  34.879  0.00  0.00    +0.000 A 
ATOM      6  C   UNL     1      14.301  12.932  33.660  0.00  0.00    +0.000 A 
ATOM      7  C   UNL     1      14.788  12.385  32.492  0.00  0.00    +0.000 A 
ATOM      8  C   UNL     1      15.926  11.600  32.600  0.00  0.00    +0.000 A 
ATOM      9  C   UNL     1      16.533  11.383  33.819  0.00  0.00    +0.000 A 
BRANCH   7  10
ATOM     10  N   UNL     1      14.164  12.608  31.237  0.00  0.00    +0.000 N 
ATOM     11  O   UNL     1      13.405  13.586  31.117  0.00  0.00    +0.000 OA
ATOM     12  O   UNL     1      14.356  11.800  30.150  0.00  0.00    +0.000 OA
ENDBRANCH   7  10
ENDBRANCH   2   4
BRANCH   1  13
ATOM     13  C   UNL     1      18.504  10.694  37.696  0.00  0.00    +0.000 C 
ATOM     14  C   UNL     1      19.646   9.708  37.409  0.00  0.00    +0.000 C 
ATOM     15  C   UNL     1      17.507  10.057  38.625  0.00  0.00    +0.000 C 
BRANCH  13  16
ATOM     16  C   UNL     1      19.045  12.000  38.205  0.00  0.00    +0.000 C 
BRANCH  16  18
ATOM     17  C   UNL     1      21.406  11.185  37.952  0.00  0.00    +0.000 C 
ATOM     18  C   UNL     1      20.369  11.745  38.891  0.00  0.00    +0.000 C 
ATOM     19  C   UNL     1      20.928  13.047  39.476  0.00  0.00    +0.000 C 
ATOM     20  C   UNL     1      20.215  10.761  40.035  0.00  0.00    +0.000 C 
ENDBRANCH  16  18
ENDBRANCH  13  16
ENDBRANCH   1  13
TORSDOF 5
ENDMDL
MODEL 8
REMARK VINA RESULT:      -5.9     18.015     20.095
REMARK  Name = 
REMARK  5 active torsions:
REMARK  status: ('A' for Active; 'I' for Inactive)
REMARK    1  A    between atoms: C_2  and  C_5
REMARK    2  A    between atoms: C_5  and  C_6
REMARK    3  A    between atoms: C_6  and  N_9
REMARK    4  A    between atoms: C_10  and  C_12
REMARK    5  A    between atoms: C_15  and  N_16
REMARK                            x       y       z     vdW  Elec       q    Type
REMARK                         _______ _______ _______ _____ _____    ______ ____
ROOT
ATOM      1  N   UNL     1      33.728   3.108  35.476  0.00  0.00    +0.000 NA
ATOM      2  C   UNL     1      33.728   2.432  34.228  0.00  0.00    +0.000 C 
ATOM      3  O   UNL     1      33.893   3.115  33.190  0.00  0.00    +0.000 OA
ENDROOT
BRANCH   2   4
ATOM      4  C   UNL     1      33.543   0.982  34.143  0.00  0.00    +0.000 A 
ATOM      5  C   UNL     1      34.127   0.243  33.135  0.00  0.00    +0.000 A 
ATOM      6  C   UNL     1      33.953  -1.123  33.055  0.00  0.00    +0.000 A 
ATOM      7  C   UNL     1      33.190  -1.818  33.971  0.00  0.00    +0.000 A 
ATOM      8  C   UNL     1      32.604  -1.074  34.983  0.00  0.00    +0.000 A 
ATOM      9  C   UNL     1      32.780   0.291  35.062  0.00  0.00    +0.000 A 
BRANCH   7  10
ATOM     10  N   UNL     1      33.010  -3.223  33.889  0.00  0.00    +0.000 N 
ATOM     11  O   UNL     1      32.262  -3.775  34.717  0.00  0.00    +0.000 OA
ATOM     12  O   UNL     1      33.617  -4.004  32.945  0.00  0.00    +0.000 OA
ENDBRANCH   7  10
ENDBRANCH   2   4
BRANCH   1  13
ATOM     13  C   UNL     1      33.915   4.565  35.548  0.00  0.00    +0.000 C 
ATOM     14  C   UNL     1      33.365   4.962  36.925  0.00  0.00    +0.000 C 
ATOM     15  C   UNL     1      33.095   5.216  34.468  0.00  0.00    +0.000 C 
BRANCH  13  16
ATOM     16  C   UNL     1      35.382   4.873  35.452  0.00  0.00    +0.000 C 
BRANCH  16  18
ATOM     17  C   UNL     1      34.284   7.091  35.877  0.00  0.00    +0.000 C 
ATOM     18  C   UNL     1      35.584   6.357  35.670  0.00  0.00    +0.000 C 
ATOM     19  C   UNL     1      36.455   6.601  36.908  0.00  0.00    +0.000 C 
ATOM     20  C   UNL     1      36.284   6.996  34.487  0.00  0.00    +0.000 C 
ENDBRANCH  16  18
ENDBRANCH  13  16
ENDBRANCH   1  13
TORSDOF 5
ENDMDL
MODEL 9
REMARK VINA RESULT:      -5.8     17.677     19.893
REMARK  Name = 
REMARK  5 active torsions:
REMARK  status: ('A' for Active; 'I' for Inactive)
REMARK    1  A    between atoms: C_2  and  C_5
REMARK    2  A    between atoms: C_5  and  C_6
REMARK    3  A    between atoms: C_6  and  N_9
REMARK    4  A    between atoms: C_10  and  C_12
REMARK    5  A    between atoms: C_15  and  N_16
REMARK                            x       y       z     vdW  Elec       q    Type
REMARK                         _______ _______ _______ _____ _____    ______ ____
ROOT
ATOM      1  N   UNL     1      33.808   3.586  35.187  0.00  0.00    +0.000 NA
ATOM      2  C   UNL     1      33.652   2.872  33.970  0.00  0.00    +0.000 C 
ATOM      3  O   UNL     1      33.515   3.535  32.915  0.00  0.00    +0.000 OA
ENDROOT
BRANCH   2   4
ATOM      4  C   UNL     1      33.650   1.409  33.936  0.00  0.00    +0.000 A 
ATOM      5  C   UNL     1      33.232   0.666  35.021  0.00  0.00    +0.000 A 
ATOM      6  C   UNL     1      33.229  -0.713  34.988  0.00  0.00    +0.000 A 
ATOM      7  C   UNL     1      33.642  -1.418  33.877  0.00  0.00    +0.000 A 
ATOM      8  C   UNL     1      34.062  -0.671  32.787  0.00  0.00    +0.000 A 
ATOM      9  C   UNL     1      34.063   0.707  32.822  0.00  0.00    +0.000 A 
BRANCH   7  10
ATOM     10  N   UNL     1      33.641  -2.837  33.841  0.00  0.00    +0.000 N 
ATOM     11  O   UNL     1      33.710  -3.458  34.917  0.00  0.00    +0.000 OA
ATOM     12  O   UNL     1      33.567  -3.557  32.681  0.00  0.00    +0.000 OA
ENDBRANCH   7  10
ENDBRANCH   2   4
BRANCH   1  13
ATOM     13  C   UNL     1      33.809   5.056  35.208  0.00  0.00    +0.000 C 
ATOM     14  C   UNL     1      32.683   5.462  34.246  0.00  0.00    +0.000 C 
ATOM     15  C   UNL     1      35.128   5.552  34.682  0.00  0.00    +0.000 C 
BRANCH  13  16
ATOM     16  C   UNL     1      33.509   5.523  36.604  0.00  0.00    +0.000 C 
BRANCH  16  18
ATOM     17  C   UNL     1      34.134   3.293  37.573  0.00  0.00    +0.000 C 
ATOM     18  C   UNL     1      34.403   4.775  37.570  0.00  0.00    +0.000 C 
ATOM     19  C   UNL     1      35.877   4.979  37.202  0.00  0.00    +0.000 C 
ATOM     20  C   UNL     1      34.215   5.274  38.990  0.00  0.00    +0.000 C 
ENDBRANCH  16  18
ENDBRANCH  13  16
ENDBRANCH   1  13
TORSDOF 5
ENDMDL
MODEL 10
REMARK VINA RESULT:      -5.8     17.455     18.657
REMARK  Name = 
REMARK  5 active torsions:
REMARK  status: ('A' for Active; 'I' for Inactive)
REMARK    1  A    between atoms: C_2  and  C_5
REMARK    2  A    between atoms: C_5  and  C_6
REMARK    3  A    between atoms: C_6  and  N_9
REMARK    4  A    between atoms: C_10  and  C_12
REMARK    5  A    between atoms: C_15  and  N_16
REMARK                            x       y       z     vdW  Elec       q    Type
REMARK                         _______ _______ _______ _____ _____    ______ ____
ROOT
ATOM      1  N   UNL     1      27.583  22.714  28.739  0.00  0.00    +0.000 NA
ATOM      2  C   UNL     1      26.612  23.366  27.935  0.00  0.00    +0.000 C 
ATOM      3  O   UNL     1      25.655  23.933  28.514  0.00  0.00    +0.000 OA
ENDROOT
BRANCH   2   4
ATOM      4  C   UNL     1      26.715  23.385  26.475  0.00  0.00    +0.000 A 
ATOM      5  C   UNL     1      27.902  23.093  25.835  0.00  0.00    +0.000 A 
ATOM      6  C   UNL     1      27.998  23.110  24.459  0.00  0.00    +0.000 A 
ATOM      7  C   UNL     1      26.921  23.419  23.655  0.00  0.00    +0.000 A 
ATOM      8  C   UNL     1      25.729  23.712  24.298  0.00  0.00    +0.000 A 
ATOM      9  C   UNL     1      25.634  23.694  25.674  0.00  0.00    +0.000 A 
BRANCH   7  10
ATOM     10  N   UNL     1      27.018  23.438  22.239  0.00  0.00    +0.000 N 
ATOM     11  O   UNL     1      28.149  23.486  21.722  0.00  0.00    +0.000 OA
ATOM     12  O   UNL     1      25.929  23.404  21.413  0.00  0.00    +0.000 OA
ENDBRANCH   7  10
ENDBRANCH   2   4
BRANCH   1  13
ATOM     13  C   UNL     1      27.468  22.702  30.205  0.00  0.00    +0.000 C 
ATOM     14  C   UNL     1      26.448  21.596  30.509  0.00  0.00    +0.000 C 
ATOM     15  C   UNL     1      26.927  24.029  30.663  0.00  0.00    +0.000 C 
BRANCH  13  16
ATOM     16  C   UNL     1      28.808  22.368  30.795  0.00  0.00    +0.000 C 
BRANCH  16  18
ATOM     17  C   UNL     1      29.414  24.682  30.031  0.00  0.00    +0.000 C 
ATOM     18  C   UNL     1      29.858  23.247  30.150  0.00  0.00    +0.000 C 
ATOM     19  C   UNL     1      31.150  23.229  30.974  0.00  0.00    +0.000 C 
ATOM     20  C   UNL     1      30.200  22.760  28.755  0.00  0.00    +0.000 C 
ENDBRANCH  16  18
ENDBRANCH  13  16
ENDBRANCH   1  13
TORSDOF 5
ENDMDL
