MODEL 1
REMARK VINA RESULT:      -7.1      0.000      0.000
REMARK  Name = 
REMARK  5 active torsions:
REMARK  status: ('A' for Active; 'I' for Inactive)
REMARK    1  A    between atoms: C_2  and  C_4
REMARK    2  A    between atoms: C_4  and  C_5
REMARK    3  A    between atoms: C_5  and  O_6
REMARK    4  A    between atoms: O_6  and  C_7
REMARK    5  A    between atoms: C_10  and  C_11
REMARK                            x       y       z     vdW  Elec       q    Type
REMARK                         _______ _______ _______ _____ _____    ______ ____
ROOT
ATOM      1  C   UNL     1      16.697  10.654  33.988  0.00  0.00    +0.000 A 
ATOM      2  C   UNL     1      17.791   9.911  34.336  0.00  0.00    +0.000 A 
ATOM      3  C   UNL     1      18.158   9.786  35.648  0.00  0.00    +0.000 A 
ATOM      4  C   UNL     1      17.444  10.399  36.656  0.00  0.00    +0.000 A 
ATOM      5  C   UNL     1      16.352  11.145  36.341  0.00  0.00    +0.000 A 
ATOM      6  C   UNL     1      15.994  11.261  35.013  0.00  0.00    +0.000 A 
ENDROOT
BRANCH   4   7
ATOM      7  C   UNL     1      17.934  10.193  38.041  0.00  0.00    +0.000 C 
ATOM      8  C   UNL     1      16.768  10.235  39.003  0.00  0.00    +0.000 C 
ATOM      9  C   UNL     1      18.631   8.876  38.214  0.00  0.00    +0.000 C 
ATOM     10  C   UNL     1      19.643   9.188  39.260  0.00  0.00    +0.000 C 
ATOM     11  O   UNL     1      20.177   8.353  40.012  0.00  0.00    +0.000 OA
ATOM     12  N   UNL     1      19.881  10.587  39.243  0.00  0.00    +0.000 NA
ATOM     13  C   UNL     1      18.962  11.208  38.358  0.00  0.00    +0.000 C 
ATOM     14  O   UNL     1      19.044  12.395  37.949  0.00  0.00    +0.000 OA
ENDBRANCH   4   7
BRANCH   1  15
ATOM     15  O   UNL     1      16.281  10.812  32.676  0.00  0.00    +0.000 OA
BRANCH  15  16
ATOM     16  C   UNL     1      15.422  11.879  32.352  0.00  0.00    +0.000 C 
BRANCH  16  17
ATOM     17  C   UNL     1      14.956  11.816  30.910  0.00  0.00    +0.000 C 
BRANCH  17  19
ATOM     18  C   UNL     1      14.130  14.146  31.310  0.00  0.00    +0.000 C 
ATOM     19  C   UNL     1      14.896  13.229  30.388  0.00  0.00    +0.000 C 
ATOM     20  C   UNL     1      16.275  13.823  30.173  0.00  0.00    +0.000 C 
ENDBRANCH  17  19
ENDBRANCH  16  17
ENDBRANCH  15  16
ENDBRANCH   1  15
TORSDOF 5
ENDMDL
MODEL 2
REMARK VINA RESULT:      -6.7      1.360      2.321
REMARK  Name = 
REMARK  5 active torsions:
REMARK  status: ('A' for Active; 'I' for Inactive)
REMARK    1  A    between atoms: C_2  and  C_4
REMARK    2  A    between atoms: C_4  and  C_5
REMARK    3  A    between atoms: C_5  and  O_6
REMARK    4  A    between atoms: O_6  and  C_7
REMARK    5  A    between atoms: C_10  and  C_11
REMARK                            x       y       z     vdW  Elec       q    Type
REMARK                         _______ _______ _______ _____ _____    ______ ____
ROOT
ATOM      1  C   UNL     1      16.658  10.478  34.696  0.00  0.00    +0.000 A 
ATOM      2  C   UNL     1      16.694  11.352  35.747  0.00  0.00    +0.000 A 
ATOM      3  C   UNL     1      17.691  11.277  36.680  0.00  0.00    +0.000 A 
ATOM      4  C   UNL     1      18.685  10.324  36.594  0.00  0.00    +0.000 A 
ATOM      5  C   UNL     1      18.676   9.441  35.562  0.00  0.00    +0.000 A 
ATOM      6  C   UNL     1      17.664   9.530  34.627  0.00  0.00    +0.000 A 
ENDROOT
BRANCH   4   7
ATOM      7  C   UNL     1      19.714  10.338  37.663  0.00  0.00    +0.000 C 
ATOM      8  C   UNL     1      21.033   9.852  37.103  0.00  0.00    +0.000 C 
ATOM      9  C   UNL     1      19.932  11.707  38.235  0.00  0.00    +0.000 C 
ATOM     10  C   UNL     1      20.298  11.406  39.646  0.00  0.00    +0.000 C 
ATOM     11  O   UNL     1      20.944  12.161  40.395  0.00  0.00    +0.000 OA
ATOM     12  N   UNL     1      19.785  10.125  39.973  0.00  0.00    +0.000 NA
ATOM     13  C   UNL     1      19.253   9.521  38.805  0.00  0.00    +0.000 C 
ATOM     14  O   UNL     1      18.533   8.490  38.791  0.00  0.00    +0.000 OA
ENDBRANCH   4   7
BRANCH   1  15
ATOM     15  O   UNL     1      15.671  10.511  33.723  0.00  0.00    +0.000 OA
BRANCH  15  16
ATOM     16  C   UNL     1      15.371  11.731  33.090  0.00  0.00    +0.000 C 
BRANCH  16  17
ATOM     17  C   UNL     1      16.268  11.987  31.894  0.00  0.00    +0.000 C 
BRANCH  17  19
ATOM     18  C   UNL     1      14.287  13.467  31.499  0.00  0.00    +0.000 C 
ATOM     19  C   UNL     1      15.462  12.753  30.876  0.00  0.00    +0.000 C 
ATOM     20  C   UNL     1      16.297  13.780  30.134  0.00  0.00    +0.000 C 
ENDBRANCH  17  19
ENDBRANCH  16  17
ENDBRANCH  15  16
ENDBRANCH   1  15
TORSDOF 5
ENDMDL
MODEL 3
REMARK VINA RESULT:      -6.5      2.906      7.330
REMARK  Name = 
REMARK  5 active torsions:
REMARK  status: ('A' for Active; 'I' for Inactive)
REMARK    1  A    between atoms: C_2  and  C_4
REMARK    2  A    between atoms: C_4  and  C_5
REMARK    3  A    between atoms: C_5  and  O_6
REMARK    4  A    between atoms: O_6  and  C_7
REMARK    5  A    between atoms: C_10  and  C_11
REMARK                            x       y       z     vdW  Elec       q    Type
REMARK                         _______ _______ _______ _____ _____    ______ ____
ROOT
ATOM      1  C   UNL     1      17.549   9.798  35.960  0.00  0.00    +0.000 A 
ATOM      2  C   UNL     1      17.844   9.676  34.630  0.00  0.00    +0.000 A 
ATOM      3  C   UNL     1      17.117  10.354  33.691  0.00  0.00    +0.000 A 
ATOM      4  C   UNL     1      16.070  11.177  34.050  0.00  0.00    +0.000 A 
ATOM      5  C   UNL     1      15.752  11.319  35.364  0.00  0.00    +0.000 A 
ATOM      6  C   UNL     1      16.496  10.628  36.300  0.00  0.00    +0.000 A 
ENDROOT
BRANCH   4   7
ATOM      7  C   UNL     1      15.353  11.862  32.947  0.00  0.00    +0.000 C 
ATOM      8  C   UNL     1      14.357  12.846  33.522  0.00  0.00    +0.000 C 
ATOM      9  C   UNL     1      16.279  12.619  32.041  0.00  0.00    +0.000 C 
ATOM     10  C   UNL     1      15.585  12.523  30.727  0.00  0.00    +0.000 C 
ATOM     11  O   UNL     1      15.744  13.307  29.775  0.00  0.00    +0.000 OA
ATOM     12  N   UNL     1      14.727  11.393  30.761  0.00  0.00    +0.000 NA
ATOM     13  C   UNL     1      14.710  10.857  32.075  0.00  0.00    +0.000 C 
ATOM     14  O   UNL     1      14.230   9.738  32.390  0.00  0.00    +0.000 OA
ENDBRANCH   4   7
BRANCH   1  15
ATOM     15  O   UNL     1      18.254   9.134  36.951  0.00  0.00    +0.000 OA
BRANCH  15  16
ATOM     16  C   UNL     1      18.660   9.844  38.098  0.00  0.00    +0.000 C 
BRANCH  16  17
ATOM     17  C   UNL     1      20.144   9.687  38.368  0.00  0.00    +0.000 C 
BRANCH  17  19
ATOM     18  C   UNL     1      21.664  11.655  38.077  0.00  0.00    +0.000 C 
ATOM     19  C   UNL     1      20.880  10.566  37.389  0.00  0.00    +0.000 C 
ATOM     20  C   UNL     1      21.836   9.779  36.514  0.00  0.00    +0.000 C 
ENDBRANCH  17  19
ENDBRANCH  16  17
ENDBRANCH  15  16
ENDBRANCH   1  15
TORSDOF 5
ENDMDL
MODEL 4
REMARK VINA RESULT:      -6.4     17.946     20.420
REMARK  Name = 
REMARK  5 active torsions:
REMARK  status: ('A' for Active; 'I' for Inactive)
REMARK    1  A    between atoms: C_2  and  C_4
REMARK    2  A    between atoms: C_4  and  C_5
REMARK    3  A    between atoms: C_5  and  O_6
REMARK    4  A    between atoms: O_6  and  C_7
REMARK    5  A    between atoms: C_10  and  C_11
REMARK                            x       y       z     vdW  Elec       q    Type
REMARK                         _______ _______ _______ _____ _____    ______ ____
ROOT
ATOM      1  C   UNL     1      33.339   1.410  33.384  0.00  0.00    +0.000 A 
ATOM      2  C   UNL     1      32.527   0.874  34.344  0.00  0.00    +0.000 A 
ATOM      3  C   UNL     1      32.559  -0.467  34.612  0.00  0.00    +0.000 A 
ATOM      4  C   UNL     1      33.404  -1.317  33.929  0.00  0.00    +0.000 A 
ATOM      5  C   UNL     1      34.223  -0.813  32.969  0.00  0.00    +0.000 A 
ATOM      6  C   UNL     1      34.180   0.542  32.710  0.00  0.00    +0.000 A 
ENDROOT
BRANCH   4   7
ATOM      7  C   UNL     1      33.353  -2.751  34.306  0.00  0.00    +0.000 C 
ATOM      8  C   UNL     1      32.019  -3.059  34.951  0.00  0.00    +0.000 C 
ATOM      9  C   UNL     1      33.517  -3.662  33.125  0.00  0.00    +0.000 C 
ATOM     10  C   UNL     1      34.200  -4.840  33.726  0.00  0.00    +0.000 C 
ATOM     11  O   UNL     1      34.190  -5.991  33.255  0.00  0.00    +0.000 OA
ATOM     12  N   UNL     1      34.853  -4.415  34.912  0.00  0.00    +0.000 NA
ATOM     13  C   UNL     1      34.493  -3.071  35.190  0.00  0.00    +0.000 C 
ATOM     14  O   UNL     1      35.062  -2.333  36.035  0.00  0.00    +0.000 OA
ENDBRANCH   4   7
BRANCH   1  15
ATOM     15  O   UNL     1      33.347   2.761  33.073  0.00  0.00    +0.000 OA
BRANCH  15  16
ATOM     16  C   UNL     1      33.892   3.674  33.994  0.00  0.00    +0.000 C 
BRANCH  16  17
ATOM     17  C   UNL     1      33.061   4.938  34.102  0.00  0.00    +0.000 C 
BRANCH  17  19
ATOM     18  C   UNL     1      33.416   5.086  36.576  0.00  0.00    +0.000 C 
ATOM     19  C   UNL     1      33.619   5.755  35.239  0.00  0.00    +0.000 C 
ATOM     20  C   UNL     1      35.100   6.037  35.074  0.00  0.00    +0.000 C 
ENDBRANCH  17  19
ENDBRANCH  16  17
ENDBRANCH  15  16
ENDBRANCH   1  15
TORSDOF 5
ENDMDL
MODEL 5
REMARK VINA RESULT:      -6.4      2.820      7.671
REMARK  Name = 
REMARK  5 active torsions:
REMARK  status: ('A' for Active; 'I' for Inactive)
REMARK    1  A    between atoms: C_2  and  C_4
REMARK    2  A    between atoms: C_4  and  C_5
REMARK    3  A    between atoms: C_5  and  O_6
REMARK    4  A    between atoms: O_6  and  C_7
REMARK    5  A    between atoms: C_10  and  C_11
REMARK                            x       y       z     vdW  Elec       q    Type
REMARK                         _______ _______ _______ _____ _____    ______ ____
ROOT
ATOM      1  C   UNL     1      17.637   9.840  35.988  0.00  0.00    +0.000 A 
ATOM      2  C   UNL     1      17.916   9.714  34.655  0.00  0.00    +0.000 A 
ATOM      3  C   UNL     1      17.164  10.373  33.722  0.00  0.00    +0.000 A 
ATOM      4  C   UNL     1      16.108  11.181  34.090  0.00  0.00    +0.000 A 
ATOM      5  C   UNL     1      15.806  11.326  35.407  0.00  0.00    +0.000 A 
ATOM      6  C   UNL     1      16.575  10.655  36.337  0.00  0.00    +0.000 A 
ENDROOT
BRANCH   4   7
ATOM      7  C   UNL     1      15.364  11.846  32.992  0.00  0.00    +0.000 C 
ATOM      8  C   UNL     1      14.356  12.812  33.575  0.00  0.00    +0.000 C 
ATOM      9  C   UNL     1      16.264  12.616  32.071  0.00  0.00    +0.000 C 
ATOM     10  C   UNL     1      15.557  12.500  30.767  0.00  0.00    +0.000 C 
ATOM     11  O   UNL     1      15.688  13.282  29.808  0.00  0.00    +0.000 OA
ATOM     12  N   UNL     1      14.722  11.354  30.816  0.00  0.00    +0.000 NA
ATOM     13  C   UNL     1      14.731  10.824  32.133  0.00  0.00    +0.000 C 
ATOM     14  O   UNL     1      14.277   9.697  32.459  0.00  0.00    +0.000 OA
ENDBRANCH   4   7
BRANCH   1  15
ATOM     15  O   UNL     1      18.367   9.196  36.974  0.00  0.00    +0.000 OA
BRANCH  15  16
ATOM     16  C   UNL     1      18.309   9.676  38.296  0.00  0.00    +0.000 C 
BRANCH  16  17
ATOM     17  C   UNL     1      18.401   8.555  39.313  0.00  0.00    +0.000 C 
BRANCH  17  19
ATOM     18  C   UNL     1      16.303   9.705  40.050  0.00  0.00    +0.000 C 
ATOM     19  C   UNL     1      17.520   8.924  40.479  0.00  0.00    +0.000 C 
ATOM     20  C   UNL     1      17.049   7.708  41.254  0.00  0.00    +0.000 C 
ENDBRANCH  17  19
ENDBRANCH  16  17
ENDBRANCH  15  16
ENDBRANCH   1  15
TORSDOF 5
ENDMDL
MODEL 6
REMARK VINA RESULT:      -6.0     17.487     20.447
REMARK  Name = 
REMARK  5 active torsions:
REMARK  status: ('A' for Active; 'I' for Inactive)
REMARK    1  A    between atoms: C_2  and  C_4
REMARK    2  A    between atoms: C_4  and  C_5
REMARK    3  A    between atoms: C_5  and  O_6
REMARK    4  A    between atoms: O_6  and  C_7
REMARK    5  A    between atoms: C_10  and  C_11
REMARK                            x       y       z     vdW  Elec       q    Type
REMARK                         _______ _______ _______ _____ _____    ______ ____
ROOT
ATOM      1  C   UNL     1      26.935  23.149  27.804  0.00  0.00    +0.000 A 
ATOM      2  C   UNL     1      26.271  24.213  27.259  0.00  0.00    +0.000 A 
ATOM      3  C   UNL     1      26.509  24.592  25.967  0.00  0.00    +0.000 A 
ATOM      4  C   UNL     1      27.418  23.921  25.176  0.00  0.00    +0.000 A 
ATOM      5  C   UNL     1      28.093  22.859  25.689  0.00  0.00    +0.000 A 
ATOM      6  C   UNL     1      27.842  22.488  26.995  0.00  0.00    +0.000 A 
ENDROOT
BRANCH   4   7
ATOM      7  C   UNL     1      27.592  24.421  23.790  0.00  0.00    +0.000 C 
ATOM      8  C   UNL     1      27.184  25.876  23.721  0.00  0.00    +0.000 C 
ATOM      9  C   UNL     1      29.011  24.315  23.314  0.00  0.00    +0.000 C 
ATOM     10  C   UNL     1      28.839  24.088  21.853  0.00  0.00    +0.000 C 
ATOM     11  O   UNL     1      29.695  24.332  20.984  0.00  0.00    +0.000 OA
ATOM     12  N   UNL     1      27.543  23.552  21.638  0.00  0.00    +0.000 NA
ATOM     13  C   UNL     1      26.818  23.575  22.857  0.00  0.00    +0.000 C 
ATOM     14  O   UNL     1      25.730  22.977  23.060  0.00  0.00    +0.000 OA
ENDBRANCH   4   7
BRANCH   1  15
ATOM     15  O   UNL     1      26.733  22.722  29.107  0.00  0.00    +0.000 OA
BRANCH  15  16
ATOM     16  C   UNL     1      27.767  22.875  30.049  0.00  0.00    +0.000 C 
BRANCH  16  17
ATOM     17  C   UNL     1      28.135  24.331  30.259  0.00  0.00    +0.000 C 
BRANCH  17  19
ATOM     18  C   UNL     1      30.269  23.159  29.676  0.00  0.00    +0.000 C 
ATOM     19  C   UNL     1      29.594  24.487  29.916  0.00  0.00    +0.000 C 
ATOM     20  C   UNL     1      29.809  25.353  28.689  0.00  0.00    +0.000 C 
ENDBRANCH  17  19
ENDBRANCH  16  17
ENDBRANCH  15  16
ENDBRANCH   1  15
TORSDOF 5
ENDMDL
MODEL 7
REMARK VINA RESULT:      -5.9     17.832     19.657
REMARK  Name = 
REMARK  5 active torsions:
REMARK  status: ('A' for Active; 'I' for Inactive)
REMARK    1  A    between atoms: C_2  and  C_4
REMARK    2  A    between atoms: C_4  and  C_5
REMARK    3  A    between atoms: C_5  and  O_6
REMARK    4  A    between atoms: O_6  and  C_7
REMARK    5  A    between atoms: C_10  and  C_11
REMARK                            x       y       z     vdW  Elec       q    Type
REMARK                         _______ _______ _______ _____ _____    ______ ____
ROOT
ATOM      1  C   UNL     1      33.291   1.641  34.183  0.00  0.00    +0.000 A 
ATOM      2  C   UNL     1      33.760   1.631  35.467  0.00  0.00    +0.000 A 
ATOM      3  C   UNL     1      34.299   2.761  36.018  0.00  0.00    +0.000 A 
ATOM      4  C   UNL     1      34.387   3.938  35.305  0.00  0.00    +0.000 A 
ATOM      5  C   UNL     1      33.928   3.979  34.026  0.00  0.00    +0.000 A 
ATOM      6  C   UNL     1      33.387   2.831  33.484  0.00  0.00    +0.000 A 
ENDROOT
BRANCH   4   7
ATOM      7  C   UNL     1      34.989   5.099  36.005  0.00  0.00    +0.000 C 
ATOM      8  C   UNL     1      36.127   4.627  36.883  0.00  0.00    +0.000 C 
ATOM      9  C   UNL     1      35.532   6.126  35.056  0.00  0.00    +0.000 C 
ATOM     10  C   UNL     1      35.333   7.393  35.811  0.00  0.00    +0.000 C 
ATOM     11  O   UNL     1      35.971   8.445  35.626  0.00  0.00    +0.000 OA
ATOM     12  N   UNL     1      34.304   7.183  36.765  0.00  0.00    +0.000 NA
ATOM     13  C   UNL     1      33.945   5.810  36.772  0.00  0.00    +0.000 C 
ATOM     14  O   UNL     1      32.925   5.335  37.336  0.00  0.00    +0.000 OA
ENDBRANCH   4   7
BRANCH   1  15
ATOM     15  O   UNL     1      32.735   0.525  33.576  0.00  0.00    +0.000 OA
BRANCH  15  16
ATOM     16  C   UNL     1      32.833  -0.725  34.216  0.00  0.00    +0.000 C 
BRANCH  16  17
ATOM     17  C   UNL     1      33.842  -1.632  33.539  0.00  0.00    +0.000 C 
BRANCH  17  19
ATOM     18  C   UNL     1      33.555  -3.982  32.723  0.00  0.00    +0.000 C 
ATOM     19  C   UNL     1      33.499  -3.052  33.910  0.00  0.00    +0.000 C 
ATOM     20  C   UNL     1      34.416  -3.605  34.985  0.00  0.00    +0.000 C 
ENDBRANCH  17  19
ENDBRANCH  16  17
ENDBRANCH  15  16
ENDBRANCH   1  15
TORSDOF 5
ENDMDL
MODEL 8
REMARK VINA RESULT:      -5.8     17.614     20.922
REMARK  Name = 
REMARK  5 active torsions:
REMARK  status: ('A' for Active; 'I' for Inactive)
REMARK    1  A    between atoms: C_2  and  C_4
REMARK    2  A    between atoms: C_4  and  C_5
REMARK    3  A    between atoms: C_5  and  O_6
REMARK    4  A    between atoms: O_6  and  C_7
REMARK    5  A    between atoms: C_10  and  C_11
REMARK                            x       y       z     vdW  Elec       q    Type
REMARK                         _______ _______ _______ _____ _____    ______ ____
ROOT
ATOM      1  C   UNL     1      25.913  24.797  26.496  0.00  0.00    +0.000 A 
ATOM      2  C   UNL     1      26.896  25.618  26.017  0.00  0.00    +0.000 A 
ATOM      3  C   UNL     1      27.374  25.461  24.745  0.00  0.00    +0.000 A 
ATOM      4  C   UNL     1      26.886  24.479  23.909  0.00  0.00    +0.000 A 
ATOM      5  C   UNL     1      25.909  23.647  24.357  0.00  0.00    +0.000 A 
ATOM      6  C   UNL     1      25.435  23.818  25.642  0.00  0.00    +0.000 A 
ENDROOT
BRANCH   4   7
ATOM      7  C   UNL     1      27.480  24.403  22.552  0.00  0.00    +0.000 C 
ATOM      8  C   UNL     1      26.489  23.771  21.599  0.00  0.00    +0.000 C 
ATOM      9  C   UNL     1      27.847  25.752  22.009  0.00  0.00    +0.000 C 
ATOM     10  C   UNL     1      29.027  25.440  21.157  0.00  0.00    +0.000 C 
ATOM     11  O   UNL     1      29.430  26.136  20.207  0.00  0.00    +0.000 OA
ATOM     12  N   UNL     1      29.598  24.226  21.618  0.00  0.00    +0.000 NA
ATOM     13  C   UNL     1      28.756  23.660  22.611  0.00  0.00    +0.000 C 
ATOM     14  O   UNL     1      29.076  22.710  23.371  0.00  0.00    +0.000 OA
ENDBRANCH   4   7
BRANCH   1  15
ATOM     15  O   UNL     1      25.392  24.913  27.775  0.00  0.00    +0.000 OA
BRANCH  15  16
ATOM     16  C   UNL     1      26.202  24.586  28.878  0.00  0.00    +0.000 C 
BRANCH  16  17
ATOM     17  C   UNL     1      26.419  23.090  29.001  0.00  0.00    +0.000 C 
BRANCH  17  19
ATOM     18  C   UNL     1      28.201  22.149  27.516  0.00  0.00    +0.000 C 
ATOM     19  C   UNL     1      27.893  22.828  28.828  0.00  0.00    +0.000 C 
ATOM     20  C   UNL     1      28.718  24.098  28.905  0.00  0.00    +0.000 C 
ENDBRANCH  17  19
ENDBRANCH  16  17
ENDBRANCH  15  16
ENDBRANCH   1  15
TORSDOF 5
ENDMDL
MODEL 9
REMARK VINA RESULT:      -5.8     20.174     23.574
REMARK  Name = 
REMARK  5 active torsions:
REMARK  status: ('A' for Active; 'I' for Inactive)
REMARK    1  A    between atoms: C_2  and  C_4
REMARK    2  A    between atoms: C_4  and  C_5
REMARK    3  A    between atoms: C_5  and  O_6
REMARK    4  A    between atoms: O_6  and  C_7
REMARK    5  A    between atoms: C_10  and  C_11
REMARK                            x       y       z     vdW  Elec       q    Type
REMARK                         _______ _______ _______ _____ _____    ______ ____
ROOT
ATOM      1  C   UNL     1      28.753  27.286  20.460  0.00  0.00    +0.000 A 
ATOM      2  C   UNL     1      27.711  27.426  21.335  0.00  0.00    +0.000 A 
ATOM      3  C   UNL     1      27.364  26.402  22.173  0.00  0.00    +0.000 A 
ATOM      4  C   UNL     1      28.047  25.204  22.164  0.00  0.00    +0.000 A 
ATOM      5  C   UNL     1      29.087  25.035  21.306  0.00  0.00    +0.000 A 
ATOM      6  C   UNL     1      29.425  26.077  20.467  0.00  0.00    +0.000 A 
ENDROOT
BRANCH   4   7
ATOM      7  C   UNL     1      27.583  24.166  23.117  0.00  0.00    +0.000 C 
ATOM      8  C   UNL     1      28.678  23.143  23.326  0.00  0.00    +0.000 C 
ATOM      9  C   UNL     1      27.219  24.735  24.456  0.00  0.00    +0.000 C 
ATOM     10  C   UNL     1      26.134  23.821  24.905  0.00  0.00    +0.000 C 
ATOM     11  O   UNL     1      25.795  23.636  26.088  0.00  0.00    +0.000 OA
ATOM     12  N   UNL     1      25.566  23.210  23.757  0.00  0.00    +0.000 NA
ATOM     13  C   UNL     1      26.333  23.556  22.614  0.00  0.00    +0.000 C 
ATOM     14  O   UNL     1      25.978  23.364  21.423  0.00  0.00    +0.000 OA
ENDBRANCH   4   7
BRANCH   1  15
ATOM     15  O   UNL     1      29.146  28.291  19.591  0.00  0.00    +0.000 OA
BRANCH  15  16
ATOM     16  C   UNL     1      29.715  27.944  18.351  0.00  0.00    +0.000 C 
BRANCH  16  17
ATOM     17  C   UNL     1      28.769  28.210  17.196  0.00  0.00    +0.000 C 
BRANCH  17  19
ATOM     18  C   UNL     1      30.988  27.773  16.122  0.00  0.00    +0.000 C 
ATOM     19  C   UNL     1      29.495  27.859  15.923  0.00  0.00    +0.000 C 
ATOM     20  C   UNL     1      29.022  26.544  15.333  0.00  0.00    +0.000 C 
ENDBRANCH  17  19
ENDBRANCH  16  17
ENDBRANCH  15  16
ENDBRANCH   1  15
TORSDOF 5
ENDMDL
MODEL 10
REMARK VINA RESULT:      -5.8     17.082     18.509
REMARK  Name = 
REMARK  5 active torsions:
REMARK  status: ('A' for Active; 'I' for Inactive)
REMARK    1  A    between atoms: C_2  and  C_4
REMARK    2  A    between atoms: C_4  and  C_5
REMARK    3  A    between atoms: C_5  and  O_6
REMARK    4  A    between atoms: O_6  and  C_7
REMARK    5  A    between atoms: C_10  and  C_11
REMARK                            x       y       z     vdW  Elec       q    Type
REMARK                         _______ _______ _______ _____ _____    ______ ____
ROOT
ATOM      1  C   UNL     1      33.563   3.852  34.002  0.00  0.00    +0.000 A 
ATOM      2  C   UNL     1      34.617   3.753  34.867  0.00  0.00    +0.000 A 
ATOM      3  C   UNL     1      34.953   4.802  35.678  0.00  0.00    +0.000 A 
ATOM      4  C   UNL     1      34.245   5.986  35.651  0.00  0.00    +0.000 A 
ATOM      5  C   UNL     1      33.192   6.115  34.802  0.00  0.00    +0.000 A 
ATOM      6  C   UNL     1      32.865   5.047  33.991  0.00  0.00    +0.000 A 
ENDROOT
BRANCH   4   7
ATOM      7  C   UNL     1      34.699   7.054  36.575  0.00  0.00    +0.000 C 
ATOM      8  C   UNL     1      36.169   6.868  36.883  0.00  0.00    +0.000 C 
ATOM      9  C   UNL     1      34.518   8.428  36.001  0.00  0.00    +0.000 C 
ATOM     10  C   UNL     1      34.258   9.248  37.215  0.00  0.00    +0.000 C 
ATOM     11  O   UNL     1      34.440  10.476  37.303  0.00  0.00    +0.000 OA
ATOM     12  N   UNL     1      33.775   8.388  38.235  0.00  0.00    +0.000 NA
ATOM     13  C   UNL     1      33.864   7.042  37.795  0.00  0.00    +0.000 C 
ATOM     14  O   UNL     1      33.320   6.060  38.363  0.00  0.00    +0.000 OA
ENDBRANCH   4   7
BRANCH   1  15
ATOM     15  O   UNL     1      33.180   2.820  33.160  0.00  0.00    +0.000 OA
BRANCH  15  16
ATOM     16  C   UNL     1      33.660   1.520  33.405  0.00  0.00    +0.000 C 
BRANCH  16  17
ATOM     17  C   UNL     1      32.569   0.596  33.908  0.00  0.00    +0.000 C 
BRANCH  17  19
ATOM     18  C   UNL     1      33.762   0.217  36.076  0.00  0.00    +0.000 C 
ATOM     19  C   UNL     1      33.213  -0.416  34.821  0.00  0.00    +0.000 C 
ATOM     20  C   UNL     1      32.254  -1.517  35.231  0.00  0.00    +0.000 C 
ENDBRANCH  17  19
ENDBRANCH  16  17
ENDBRANCH  15  16
ENDBRANCH   1  15
TORSDOF 5
ENDMDL
