MODEL 1
REMARK VINA RESULT:      -6.9      0.000      0.000
REMARK  Name = 
REMARK  2 active torsions:
REMARK  status: ('A' for Active; 'I' for Inactive)
REMARK    1  A    between atoms: C_2  and  N_3
REMARK    2  A    between atoms: C_7  and  N_8
REMARK                            x       y       z     vdW  Elec       q    Type
REMARK                         _______ _______ _______ _____ _____    ______ ____
ROOT
ATOM      1  N   UNL     1      31.357  20.867   6.235  0.00  0.00    +0.000 N 
ATOM      2  C   UNL     1      30.635  20.393   7.366  0.00  0.00    +0.000 C 
ATOM      3  O   UNL     1      29.826  19.432   7.160  0.00  0.00    +0.000 OA
ATOM      4  C   UNL     1      30.814  20.977   8.690  0.00  0.00    +0.000 C 
ATOM      5  C   UNL     1      30.109  20.482   9.685  0.00  0.00    +0.000 C 
ATOM      6  C   UNL     1      31.754  22.069   8.848  0.00  0.00    +0.000 C 
ATOM      7  O   UNL     1      31.907  22.574   9.993  0.00  0.00    +0.000 OA
ATOM      8  N   UNL     1      32.469  22.534   7.709  0.00  0.00    +0.000 NA
ATOM      9  C   UNL     1      32.266  21.942   6.447  0.00  0.00    +0.000 C 
ATOM     10  S   UNL     1      33.096  22.494   5.172  0.00  0.00    +0.000 S 
ENDROOT
BRANCH   5  11
ATOM     11  N   UNL     1      30.144  20.905  11.009  0.00  0.00    +0.000 N 
ATOM     12  C   UNL     1      31.022  20.380  12.025  0.00  0.00    +0.000 C 
ATOM     13  C   UNL     1      31.279  21.562  12.903  0.00  0.00    +0.000 C 
ATOM     14  C   UNL     1      30.000  22.327  12.765  0.00  0.00    +0.000 A 
ATOM     15  C   UNL     1      29.496  23.298  13.598  0.00  0.00    +0.000 A 
ATOM     16  C   UNL     1      28.288  23.889  13.293  0.00  0.00    +0.000 A 
ATOM     17  C   UNL     1      27.629  23.477  12.155  0.00  0.00    +0.000 A 
ATOM     18  C   UNL     1      28.133  22.503  11.319  0.00  0.00    +0.000 A 
ATOM     19  C   UNL     1      29.354  21.905  11.624  0.00  0.00    +0.000 A 
ENDBRANCH   5  11
BRANCH   1  21
ATOM     20  C   UNL     1      29.924  20.944   4.327  0.00  0.00    +0.000 C 
ATOM     21  C   UNL     1      31.169  20.273   4.912  0.00  0.00    +0.000 C 
ENDBRANCH   1  21
TORSDOF 2
ENDMDL
MODEL 2
REMARK VINA RESULT:      -6.3     11.448     13.753
REMARK  Name = 
REMARK  2 active torsions:
REMARK  status: ('A' for Active; 'I' for Inactive)
REMARK    1  A    between atoms: C_2  and  N_3
REMARK    2  A    between atoms: C_7  and  N_8
REMARK                            x       y       z     vdW  Elec       q    Type
REMARK                         _______ _______ _______ _____ _____    ______ ____
ROOT
ATOM      1  N   UNL     1      29.516  28.537  19.464  0.00  0.00    +0.000 N 
ATOM      2  C   UNL     1      29.094  28.233  20.789  0.00  0.00    +0.000 C 
ATOM      3  O   UNL     1      28.692  29.214  21.495  0.00  0.00    +0.000 OA
ATOM      4  C   UNL     1      29.120  26.872  21.309  0.00  0.00    +0.000 C 
ATOM      5  C   UNL     1      28.712  26.673  22.545  0.00  0.00    +0.000 C 
ATOM      6  C   UNL     1      29.590  25.806  20.447  0.00  0.00    +0.000 C 
ATOM      7  O   UNL     1      29.613  24.629  20.898  0.00  0.00    +0.000 OA
ATOM      8  N   UNL     1      30.010  26.123  19.125  0.00  0.00    +0.000 NA
ATOM      9  C   UNL     1      29.969  27.452  18.662  0.00  0.00    +0.000 C 
ATOM     10  S   UNL     1      30.453  27.778  17.152  0.00  0.00    +0.000 S 
ENDROOT
BRANCH   5  11
ATOM     11  N   UNL     1      28.665  25.453  23.211  0.00  0.00    +0.000 N 
ATOM     12  C   UNL     1      27.489  24.631  23.351  0.00  0.00    +0.000 C 
ATOM     13  C   UNL     1      28.039  23.241  23.355  0.00  0.00    +0.000 C 
ATOM     14  C   UNL     1      29.384  23.449  23.978  0.00  0.00    +0.000 A 
ATOM     15  C   UNL     1      30.200  22.514  24.571  0.00  0.00    +0.000 A 
ATOM     16  C   UNL     1      31.415  22.910  25.090  0.00  0.00    +0.000 A 
ATOM     17  C   UNL     1      31.764  24.239  24.991  0.00  0.00    +0.000 A 
ATOM     18  C   UNL     1      30.948  25.178  24.396  0.00  0.00    +0.000 A 
ATOM     19  C   UNL     1      29.721  24.780  23.870  0.00  0.00    +0.000 A 
ENDBRANCH   5  11
BRANCH   1  21
ATOM     20  C   UNL     1      30.805  30.545  19.393  0.00  0.00    +0.000 C 
ATOM     21  C   UNL     1      29.486  29.907  18.953  0.00  0.00    +0.000 C 
ENDBRANCH   1  21
TORSDOF 2
ENDMDL
MODEL 3
REMARK VINA RESULT:      -6.1     33.080     34.925
REMARK  Name = 
REMARK  2 active torsions:
REMARK  status: ('A' for Active; 'I' for Inactive)
REMARK    1  A    between atoms: C_2  and  N_3
REMARK    2  A    between atoms: C_7  and  N_8
REMARK                            x       y       z     vdW  Elec       q    Type
REMARK                         _______ _______ _______ _____ _____    ______ ____
ROOT
ATOM      1  N   UNL     1      19.311  -7.448  26.777  0.00  0.00    +0.000 N 
ATOM      2  C   UNL     1      20.087  -6.725  25.829  0.00  0.00    +0.000 C 
ATOM      3  O   UNL     1      19.669  -5.562  25.524  0.00  0.00    +0.000 OA
ATOM      4  C   UNL     1      21.296  -7.286  25.240  0.00  0.00    +0.000 C 
ATOM      5  C   UNL     1      21.959  -6.553  24.371  0.00  0.00    +0.000 C 
ATOM      6  C   UNL     1      21.711  -8.617  25.637  0.00  0.00    +0.000 C 
ATOM      7  O   UNL     1      22.757  -9.102  25.127  0.00  0.00    +0.000 OA
ATOM      8  N   UNL     1      20.926  -9.330  26.586  0.00  0.00    +0.000 NA
ATOM      9  C   UNL     1      19.763  -8.751  27.130  0.00  0.00    +0.000 C 
ATOM     10  S   UNL     1      18.893  -9.589  28.208  0.00  0.00    +0.000 S 
ENDROOT
BRANCH   5  11
ATOM     11  N   UNL     1      23.127  -6.916  23.709  0.00  0.00    +0.000 N 
ATOM     12  C   UNL     1      24.457  -6.510  24.091  0.00  0.00    +0.000 C 
ATOM     13  C   UNL     1      25.301  -7.679  23.693  0.00  0.00    +0.000 C 
ATOM     14  C   UNL     1      24.549  -8.208  22.512  0.00  0.00    +0.000 A 
ATOM     15  C   UNL     1      25.007  -9.036  21.514  0.00  0.00    +0.000 A 
ATOM     16  C   UNL     1      24.149  -9.415  20.504  0.00  0.00    +0.000 A 
ATOM     17  C   UNL     1      22.854  -8.944  20.537  0.00  0.00    +0.000 A 
ATOM     18  C   UNL     1      22.393  -8.114  21.536  0.00  0.00    +0.000 A 
ATOM     19  C   UNL     1      23.258  -7.731  22.559  0.00  0.00    +0.000 A 
ENDBRANCH   5  11
BRANCH   1  21
ATOM     20  C   UNL     1      16.959  -7.252  26.412  0.00  0.00    +0.000 C 
ATOM     21  C   UNL     1      18.098  -6.875  27.362  0.00  0.00    +0.000 C 
ENDBRANCH   1  21
TORSDOF 2
ENDMDL
MODEL 4
REMARK VINA RESULT:      -6.1     37.362     39.171
REMARK  Name = 
REMARK  2 active torsions:
REMARK  status: ('A' for Active; 'I' for Inactive)
REMARK    1  A    between atoms: C_2  and  N_3
REMARK    2  A    between atoms: C_7  and  N_8
REMARK                            x       y       z     vdW  Elec       q    Type
REMARK                         _______ _______ _______ _____ _____    ______ ____
ROOT
ATOM      1  N   UNL     1      15.530 -11.353  30.501  0.00  0.00    +0.000 N 
ATOM      2  C   UNL     1      15.995 -11.076  29.185  0.00  0.00    +0.000 C 
ATOM      3  O   UNL     1      15.310 -11.561  28.228  0.00  0.00    +0.000 OA
ATOM      4  C   UNL     1      17.192 -10.278  28.947  0.00  0.00    +0.000 C 
ATOM      5  C   UNL     1      17.556 -10.066  27.699  0.00  0.00    +0.000 C 
ATOM      6  C   UNL     1      17.920  -9.758  30.087  0.00  0.00    +0.000 C 
ATOM      7  O   UNL     1      18.955  -9.068  29.879  0.00  0.00    +0.000 OA
ATOM      8  N   UNL     1      17.444 -10.043  31.397  0.00  0.00    +0.000 NA
ATOM      9  C   UNL     1      16.284 -10.819  31.584  0.00  0.00    +0.000 C 
ATOM     10  S   UNL     1      15.770 -11.123  33.088  0.00  0.00    +0.000 S 
ENDROOT
BRANCH   5  11
ATOM     11  N   UNL     1      18.660  -9.334  27.277  0.00  0.00    +0.000 N 
ATOM     12  C   UNL     1      19.975  -9.879  27.041  0.00  0.00    +0.000 C 
ATOM     13  C   UNL     1      20.503  -9.033  25.928  0.00  0.00    +0.000 C 
ATOM     14  C   UNL     1      19.825  -7.725  26.193  0.00  0.00    +0.000 A 
ATOM     15  C   UNL     1      20.179  -6.476  25.737  0.00  0.00    +0.000 A 
ATOM     16  C   UNL     1      19.416  -5.385  26.096  0.00  0.00    +0.000 A 
ATOM     17  C   UNL     1      18.320  -5.593  26.905  0.00  0.00    +0.000 A 
ATOM     18  C   UNL     1      17.963  -6.844  27.362  0.00  0.00    +0.000 A 
ATOM     19  C   UNL     1      18.732  -7.949  27.000  0.00  0.00    +0.000 A 
ENDBRANCH   5  11
BRANCH   1  21
ATOM     20  C   UNL     1      13.154 -11.176  30.657  0.00  0.00    +0.000 C 
ATOM     21  C   UNL     1      14.328 -12.155  30.728  0.00  0.00    +0.000 C 
ENDBRANCH   1  21
TORSDOF 2
ENDMDL
MODEL 5
REMARK VINA RESULT:      -6.0      3.129      4.198
REMARK  Name = 
REMARK  2 active torsions:
REMARK  status: ('A' for Active; 'I' for Inactive)
REMARK    1  A    between atoms: C_2  and  N_3
REMARK    2  A    between atoms: C_7  and  N_8
REMARK                            x       y       z     vdW  Elec       q    Type
REMARK                         _______ _______ _______ _____ _____    ______ ____
ROOT
ATOM      1  N   UNL     1      34.096  20.661  10.877  0.00  0.00    +0.000 N 
ATOM      2  C   UNL     1      32.828  20.461  11.491  0.00  0.00    +0.000 C 
ATOM      3  O   UNL     1      32.727  19.460  12.270  0.00  0.00    +0.000 OA
ATOM      4  C   UNL     1      31.705  21.357  11.240  0.00  0.00    +0.000 C 
ATOM      5  C   UNL     1      30.564  21.104  11.847  0.00  0.00    +0.000 C 
ATOM      6  C   UNL     1      31.895  22.477  10.341  0.00  0.00    +0.000 C 
ATOM      7  O   UNL     1      30.923  23.250  10.125  0.00  0.00    +0.000 OA
ATOM      8  N   UNL     1      33.168  22.665   9.733  0.00  0.00    +0.000 NA
ATOM      9  C   UNL     1      34.227  21.776  10.002  0.00  0.00    +0.000 C 
ATOM     10  S   UNL     1      35.662  22.019   9.295  0.00  0.00    +0.000 S 
ENDROOT
BRANCH   5  11
ATOM     11  N   UNL     1      29.390  21.841  11.734  0.00  0.00    +0.000 N 
ATOM     12  C   UNL     1      28.448  21.736  10.647  0.00  0.00    +0.000 C 
ATOM     13  C   UNL     1      27.134  22.014  11.304  0.00  0.00    +0.000 C 
ATOM     14  C   UNL     1      27.534  22.951  12.400  0.00  0.00    +0.000 A 
ATOM     15  C   UNL     1      26.738  23.824  13.105  0.00  0.00    +0.000 A 
ATOM     16  C   UNL     1      27.303  24.610  14.087  0.00  0.00    +0.000 A 
ATOM     17  C   UNL     1      28.655  24.487  14.323  0.00  0.00    +0.000 A 
ATOM     18  C   UNL     1      29.455  23.613  13.618  0.00  0.00    +0.000 A 
ATOM     19  C   UNL     1      28.886  22.817  12.626  0.00  0.00    +0.000 A 
ENDBRANCH   5  11
BRANCH   1  21
ATOM     20  C   UNL     1      35.810  20.201  12.473  0.00  0.00    +0.000 C 
ATOM     21  C   UNL     1      35.216  19.756  11.135  0.00  0.00    +0.000 C 
ENDBRANCH   1  21
TORSDOF 2
ENDMDL
MODEL 6
REMARK VINA RESULT:      -6.0     16.411     19.902
REMARK  Name = 
REMARK  2 active torsions:
REMARK  status: ('A' for Active; 'I' for Inactive)
REMARK    1  A    between atoms: C_2  and  N_3
REMARK    2  A    between atoms: C_7  and  N_8
REMARK                            x       y       z     vdW  Elec       q    Type
REMARK                         _______ _______ _______ _____ _____    ______ ____
ROOT
ATOM      1  N   UNL     1      25.758  25.905  30.410  0.00  0.00    +0.000 N 
ATOM      2  C   UNL     1      25.933  24.654  29.754  0.00  0.00    +0.000 C 
ATOM      3  O   UNL     1      25.678  23.613  30.441  0.00  0.00    +0.000 OA
ATOM      4  C   UNL     1      26.381  24.571  28.369  0.00  0.00    +0.000 C 
ATOM      5  C   UNL     1      26.518  23.376  27.834  0.00  0.00    +0.000 C 
ATOM      6  C   UNL     1      26.652  25.800  27.650  0.00  0.00    +0.000 C 
ATOM      7  O   UNL     1      27.040  25.726  26.452  0.00  0.00    +0.000 OA
ATOM      8  N   UNL     1      26.474  27.043  28.317  0.00  0.00    +0.000 NA
ATOM      9  C   UNL     1      26.040  27.080  29.657  0.00  0.00    +0.000 C 
ATOM     10  S   UNL     1      25.846  28.511  30.387  0.00  0.00    +0.000 S 
ENDROOT
BRANCH   5  11
ATOM     11  N   UNL     1      26.932  23.098  26.535  0.00  0.00    +0.000 N 
ATOM     12  C   UNL     1      26.058  22.981  25.394  0.00  0.00    +0.000 C 
ATOM     13  C   UNL     1      26.897  23.487  24.265  0.00  0.00    +0.000 C 
ATOM     14  C   UNL     1      28.272  23.099  24.712  0.00  0.00    +0.000 A 
ATOM     15  C   UNL     1      29.409  22.971  23.948  0.00  0.00    +0.000 A 
ATOM     16  C   UNL     1      30.591  22.601  24.554  0.00  0.00    +0.000 A 
ATOM     17  C   UNL     1      30.584  22.374  25.914  0.00  0.00    +0.000 A 
ATOM     18  C   UNL     1      29.445  22.502  26.680  0.00  0.00    +0.000 A 
ATOM     19  C   UNL     1      28.250  22.877  26.071  0.00  0.00    +0.000 A 
ENDBRANCH   5  11
BRANCH   1  21
ATOM     20  C   UNL     1      26.563  25.783  32.654  0.00  0.00    +0.000 C 
ATOM     21  C   UNL     1      25.309  25.976  31.800  0.00  0.00    +0.000 C 
ENDBRANCH   1  21
TORSDOF 2
ENDMDL
MODEL 7
REMARK VINA RESULT:      -5.9     12.131     14.005
REMARK  Name = 
REMARK  2 active torsions:
REMARK  status: ('A' for Active; 'I' for Inactive)
REMARK    1  A    between atoms: C_2  and  N_3
REMARK    2  A    between atoms: C_7  and  N_8
REMARK                            x       y       z     vdW  Elec       q    Type
REMARK                         _______ _______ _______ _____ _____    ______ ____
ROOT
ATOM      1  N   UNL     1      29.586  27.910  19.954  0.00  0.00    +0.000 N 
ATOM      2  C   UNL     1      29.565  26.511  20.211  0.00  0.00    +0.000 C 
ATOM      3  O   UNL     1      29.806  25.748  19.220  0.00  0.00    +0.000 OA
ATOM      4  C   UNL     1      29.283  25.980  21.539  0.00  0.00    +0.000 C 
ATOM      5  C   UNL     1      29.282  24.673  21.696  0.00  0.00    +0.000 C 
ATOM      6  C   UNL     1      29.018  26.910  22.619  0.00  0.00    +0.000 C 
ATOM      7  O   UNL     1      28.774  26.449  23.767  0.00  0.00    +0.000 OA
ATOM      8  N   UNL     1      29.042  28.307  22.348  0.00  0.00    +0.000 NA
ATOM      9  C   UNL     1      29.318  28.778  21.050  0.00  0.00    +0.000 C 
ATOM     10  S   UNL     1      29.338  30.373  20.776  0.00  0.00    +0.000 S 
ENDROOT
BRANCH   5  11
ATOM     11  N   UNL     1      29.037  23.986  22.879  0.00  0.00    +0.000 N 
ATOM     12  C   UNL     1      30.050  23.423  23.737  0.00  0.00    +0.000 C 
ATOM     13  C   UNL     1      29.457  23.554  25.103  0.00  0.00    +0.000 C 
ATOM     14  C   UNL     1      27.994  23.435  24.811  0.00  0.00    +0.000 A 
ATOM     15  C   UNL     1      26.977  23.119  25.682  0.00  0.00    +0.000 A 
ATOM     16  C   UNL     1      25.682  23.059  25.213  0.00  0.00    +0.000 A 
ATOM     17  C   UNL     1      25.458  23.321  23.879  0.00  0.00    +0.000 A 
ATOM     18  C   UNL     1      26.476  23.637  23.005  0.00  0.00    +0.000 A 
ATOM     19  C   UNL     1      27.786  23.699  23.476  0.00  0.00    +0.000 A 
ENDBRANCH   5  11
BRANCH   1  21
ATOM     20  C   UNL     1      31.395  28.433  18.486  0.00  0.00    +0.000 C 
ATOM     21  C   UNL     1      29.870  28.432  18.617  0.00  0.00    +0.000 C 
ENDBRANCH   1  21
TORSDOF 2
ENDMDL
MODEL 8
REMARK VINA RESULT:      -5.7     18.799     20.535
REMARK  Name = 
REMARK  2 active torsions:
REMARK  status: ('A' for Active; 'I' for Inactive)
REMARK    1  A    between atoms: C_2  and  N_3
REMARK    2  A    between atoms: C_7  and  N_8
REMARK                            x       y       z     vdW  Elec       q    Type
REMARK                         _______ _______ _______ _____ _____    ______ ____
ROOT
ATOM      1  N   UNL     1      23.232   1.604  17.644  0.00  0.00    +0.000 N 
ATOM      2  C   UNL     1      23.529   2.959  17.964  0.00  0.00    +0.000 C 
ATOM      3  O   UNL     1      22.579   3.645  18.461  0.00  0.00    +0.000 OA
ATOM      4  C   UNL     1      24.851   3.528  17.734  0.00  0.00    +0.000 C 
ATOM      5  C   UNL     1      25.046   4.790  18.058  0.00  0.00    +0.000 C 
ATOM      6  C   UNL     1      25.883   2.685  17.165  0.00  0.00    +0.000 C 
ATOM      7  O   UNL     1      27.026   3.179  16.967  0.00  0.00    +0.000 OA
ATOM      8  N   UNL     1      25.573   1.333  16.849  0.00  0.00    +0.000 NA
ATOM      9  C   UNL     1      24.282   0.822  17.086  0.00  0.00    +0.000 C 
ATOM     10  S   UNL     1      23.962  -0.721  16.717  0.00  0.00    +0.000 S 
ENDROOT
BRANCH   5  11
ATOM     11  N   UNL     1      26.231   5.502  17.914  0.00  0.00    +0.000 N 
ATOM     12  C   UNL     1      27.226   5.674  18.943  0.00  0.00    +0.000 C 
ATOM     13  C   UNL     1      28.508   5.733  18.177  0.00  0.00    +0.000 C 
ATOM     14  C   UNL     1      28.063   6.348  16.887  0.00  0.00    +0.000 A 
ATOM     15  C   UNL     1      28.830   6.979  15.936  0.00  0.00    +0.000 A 
ATOM     16  C   UNL     1      28.225   7.483  14.805  0.00  0.00    +0.000 A 
ATOM     17  C   UNL     1      26.861   7.332  14.673  0.00  0.00    +0.000 A 
ATOM     18  C   UNL     1      26.090   6.700  15.625  0.00  0.00    +0.000 A 
ATOM     19  C   UNL     1      26.700   6.189  16.768  0.00  0.00    +0.000 A 
ENDBRANCH   5  11
BRANCH   1  21
ATOM     20  C   UNL     1      21.072   1.409  16.646  0.00  0.00    +0.000 C 
ATOM     21  C   UNL     1      21.901   1.043  17.878  0.00  0.00    +0.000 C 
ENDBRANCH   1  21
TORSDOF 2
ENDMDL
MODEL 9
REMARK VINA RESULT:      -5.5     19.180     20.735
REMARK  Name = 
REMARK  2 active torsions:
REMARK  status: ('A' for Active; 'I' for Inactive)
REMARK    1  A    between atoms: C_2  and  N_3
REMARK    2  A    between atoms: C_7  and  N_8
REMARK                            x       y       z     vdW  Elec       q    Type
REMARK                         _______ _______ _______ _____ _____    ______ ____
ROOT
ATOM      1  N   UNL     1      21.193   2.588  15.214  0.00  0.00    +0.000 N 
ATOM      2  C   UNL     1      22.499   2.990  14.816  0.00  0.00    +0.000 C 
ATOM      3  O   UNL     1      22.667   3.223  13.576  0.00  0.00    +0.000 OA
ATOM      4  C   UNL     1      23.586   3.127  15.779  0.00  0.00    +0.000 C 
ATOM      5  C   UNL     1      24.765   3.504  15.331  0.00  0.00    +0.000 C 
ATOM      6  C   UNL     1      23.319   2.844  17.175  0.00  0.00    +0.000 C 
ATOM      7  O   UNL     1      24.259   2.962  18.006  0.00  0.00    +0.000 OA
ATOM      8  N   UNL     1      22.009   2.443  17.559  0.00  0.00    +0.000 NA
ATOM      9  C   UNL     1      20.987   2.322  16.597  0.00  0.00    +0.000 C 
ATOM     10  S   UNL     1      19.508   1.864  17.068  0.00  0.00    +0.000 S 
ENDROOT
BRANCH   5  11
ATOM     11  N   UNL     1      25.914   3.688  16.092  0.00  0.00    +0.000 N 
ATOM     12  C   UNL     1      26.887   2.665  16.386  0.00  0.00    +0.000 C 
ATOM     13  C   UNL     1      28.173   3.424  16.458  0.00  0.00    +0.000 C 
ATOM     14  C   UNL     1      27.711   4.757  16.959  0.00  0.00    +0.000 A 
ATOM     15  C   UNL     1      28.456   5.744  17.561  0.00  0.00    +0.000 A 
ATOM     16  C   UNL     1      27.838   6.912  17.953  0.00  0.00    +0.000 A 
ATOM     17  C   UNL     1      26.486   7.044  17.723  0.00  0.00    +0.000 A 
ATOM     18  C   UNL     1      25.737   6.056  17.120  0.00  0.00    +0.000 A 
ATOM     19  C   UNL     1      26.359   4.875  16.721  0.00  0.00    +0.000 A 
ENDBRANCH   5  11
BRANCH   1  21
ATOM     20  C   UNL     1      19.536   3.860  14.059  0.00  0.00    +0.000 C 
ATOM     21  C   UNL     1      20.111   2.453  14.239  0.00  0.00    +0.000 C 
ENDBRANCH   1  21
TORSDOF 2
ENDMDL
MODEL 10
REMARK VINA RESULT:      -5.5      3.882      5.357
REMARK  Name = 
REMARK  2 active torsions:
REMARK  status: ('A' for Active; 'I' for Inactive)
REMARK    1  A    between atoms: C_2  and  N_3
REMARK    2  A    between atoms: C_7  and  N_8
REMARK                            x       y       z     vdW  Elec       q    Type
REMARK                         _______ _______ _______ _____ _____    ______ ____
ROOT
ATOM      1  N   UNL     1      36.329  21.644  11.316  0.00  0.00    +0.000 N 
ATOM      2  C   UNL     1      35.280  22.314  10.626  0.00  0.00    +0.000 C 
ATOM      3  O   UNL     1      35.597  23.385  10.016  0.00  0.00    +0.000 OA
ATOM      4  C   UNL     1      33.916  21.800  10.620  0.00  0.00    +0.000 C 
ATOM      5  C   UNL     1      33.002  22.479   9.959  0.00  0.00    +0.000 C 
ATOM      6  C   UNL     1      33.631  20.573  11.338  0.00  0.00    +0.000 C 
ATOM      7  O   UNL     1      32.451  20.130  11.332  0.00  0.00    +0.000 OA
ATOM      8  N   UNL     1      34.689  19.913  12.023  0.00  0.00    +0.000 NA
ATOM      9  C   UNL     1      35.993  20.444  12.004  0.00  0.00    +0.000 C 
ATOM     10  S   UNL     1      37.174  19.667  12.794  0.00  0.00    +0.000 S 
ENDROOT
BRANCH   5  11
ATOM     11  N   UNL     1      31.657  22.148   9.839  0.00  0.00    +0.000 N 
ATOM     12  C   UNL     1      31.090  21.351   8.779  0.00  0.00    +0.000 C 
ATOM     13  C   UNL     1      29.964  20.634   9.452  0.00  0.00    +0.000 C 
ATOM     14  C   UNL     1      29.556  21.625  10.498  0.00  0.00    +0.000 A 
ATOM     15  C   UNL     1      28.365  21.696  11.182  0.00  0.00    +0.000 A 
ATOM     16  C   UNL     1      28.182  22.693  12.116  0.00  0.00    +0.000 A 
ATOM     17  C   UNL     1      29.210  23.586  12.328  0.00  0.00    +0.000 A 
ATOM     18  C   UNL     1      30.405  23.516  11.643  0.00  0.00    +0.000 A 
ATOM     19  C   UNL     1      30.593  22.508  10.699  0.00  0.00    +0.000 A 
ENDBRANCH   5  11
BRANCH   1  21
ATOM     20  C   UNL     1      38.333  21.669  10.017  0.00  0.00    +0.000 C 
ATOM     21  C   UNL     1      37.695  22.169  11.315  0.00  0.00    +0.000 C 
ENDBRANCH   1  21
TORSDOF 2
ENDMDL
