MODEL 1
REMARK VINA RESULT:      -5.9      0.000      0.000
REMARK  Name = 
REMARK  2 active torsions:
REMARK  status: ('A' for Active; 'I' for Inactive)
REMARK    1  A    between atoms: C_4  and  N_5
REMARK    2  A    between atoms: C_13  and  C_14
REMARK                            x       y       z     vdW  Elec       q    Type
REMARK                         _______ _______ _______ _____ _____    ______ ____
ROOT
ATOM      1  C   UNL     1      33.592  -0.336  33.798  0.00  0.00    +0.000 C 
ATOM      2  C   UNL     1      33.299  -1.781  33.995  0.00  0.00    +0.000 A 
ATOM      3  C   UNL     1      33.968  -2.779  33.334  0.00  0.00    +0.000 A 
ATOM      4  C   UNL     1      33.697  -4.119  33.515  0.00  0.00    +0.000 A 
ATOM      5  C   UNL     1      32.698  -4.436  34.413  0.00  0.00    +0.000 A 
ATOM      6  C   UNL     1      31.997  -3.459  35.103  0.00  0.00    +0.000 A 
ATOM      7  C   UNL     1      32.309  -2.114  34.885  0.00  0.00    +0.000 A 
ATOM      8  O   UNL     1      31.619  -1.111  35.566  0.00  0.00    +0.000 OA
ENDROOT
BRANCH   4   9
ATOM      9  N   UNL     1      34.371  -5.151  32.846  0.00  0.00    +0.000 NA
ATOM     10  C   UNL     1      34.103  -5.590  31.677  0.00  0.00    +0.000 C 
ATOM     11  C   UNL     1      34.916  -6.675  31.140  0.00  0.00    +0.000 C 
ATOM     12  C   UNL     1      34.669  -7.163  29.921  0.00  0.00    +0.000 C 
ATOM     13  C   UNL     1      33.592  -6.640  29.091  0.00  0.00    +0.000 C 
ATOM     14  O   UNL     1      33.357  -7.104  27.931  0.00  0.00    +0.000 OA
ATOM     15  C   UNL     1      32.775  -5.554  29.624  0.00  0.00    +0.000 C 
ATOM     16  C   UNL     1      33.029  -5.078  30.833  0.00  0.00    +0.000 C 
ENDBRANCH   4   9
BRANCH   5  17
ATOM     17  C   UNL     1      32.316  -5.854  34.692  0.00  0.00    +0.000 C 
ATOM     18  C   UNL     1      31.094  -6.264  33.914  0.00  0.00    +0.000 C 
ATOM     19  C   UNL     1      32.060  -6.083  36.154  0.00  0.00    +0.000 C 
ENDBRANCH   5  17
TORSDOF 2
ENDMDL
MODEL 2
REMARK VINA RESULT:      -5.5     28.054     30.356
REMARK  Name = 
REMARK  2 active torsions:
REMARK  status: ('A' for Active; 'I' for Inactive)
REMARK    1  A    between atoms: C_4  and  N_5
REMARK    2  A    between atoms: C_13  and  C_14
REMARK                            x       y       z     vdW  Elec       q    Type
REMARK                         _______ _______ _______ _____ _____    ______ ____
ROOT
ATOM      1  C   UNL     1      23.475  27.231  28.787  0.00  0.00    +0.000 C 
ATOM      2  C   UNL     1      24.388  26.057  28.796  0.00  0.00    +0.000 A 
ATOM      3  C   UNL     1      24.731  25.365  27.663  0.00  0.00    +0.000 A 
ATOM      4  C   UNL     1      25.577  24.276  27.670  0.00  0.00    +0.000 A 
ATOM      5  C   UNL     1      26.086  23.891  28.893  0.00  0.00    +0.000 A 
ATOM      6  C   UNL     1      25.766  24.562  30.063  0.00  0.00    +0.000 A 
ATOM      7  C   UNL     1      24.904  25.661  30.005  0.00  0.00    +0.000 A 
ATOM      8  O   UNL     1      24.564  26.354  31.166  0.00  0.00    +0.000 OA
ENDROOT
BRANCH   4   9
ATOM      9  N   UNL     1      25.937  23.558  26.519  0.00  0.00    +0.000 NA
ATOM     10  C   UNL     1      26.866  23.867  25.701  0.00  0.00    +0.000 C 
ATOM     11  C   UNL     1      27.098  22.997  24.554  0.00  0.00    +0.000 C 
ATOM     12  C   UNL     1      28.062  23.284  23.673  0.00  0.00    +0.000 C 
ATOM     13  C   UNL     1      28.907  24.461  23.820  0.00  0.00    +0.000 C 
ATOM     14  O   UNL     1      29.823  24.735  22.982  0.00  0.00    +0.000 OA
ATOM     15  C   UNL     1      28.678  25.336  24.966  0.00  0.00    +0.000 C 
ATOM     16  C   UNL     1      27.722  25.041  25.833  0.00  0.00    +0.000 C 
ENDBRANCH   4   9
BRANCH   5  17
ATOM     17  C   UNL     1      27.013  22.726  29.025  0.00  0.00    +0.000 C 
ATOM     18  C   UNL     1      26.634  21.842  30.183  0.00  0.00    +0.000 C 
ATOM     19  C   UNL     1      28.439  23.166  29.197  0.00  0.00    +0.000 C 
ENDBRANCH   5  17
TORSDOF 2
ENDMDL
MODEL 3
REMARK VINA RESULT:      -5.5     27.354     28.890
REMARK  Name = 
REMARK  2 active torsions:
REMARK  status: ('A' for Active; 'I' for Inactive)
REMARK    1  A    between atoms: C_4  and  N_5
REMARK    2  A    between atoms: C_13  and  C_14
REMARK                            x       y       z     vdW  Elec       q    Type
REMARK                         _______ _______ _______ _____ _____    ______ ____
ROOT
ATOM      1  C   UNL     1      32.457  22.367  29.018  0.00  0.00    +0.000 C 
ATOM      2  C   UNL     1      30.974  22.433  29.110  0.00  0.00    +0.000 A 
ATOM      3  C   UNL     1      30.149  22.314  28.021  0.00  0.00    +0.000 A 
ATOM      4  C   UNL     1      28.774  22.375  28.105  0.00  0.00    +0.000 A 
ATOM      5  C   UNL     1      28.235  22.567  29.361  0.00  0.00    +0.000 A 
ATOM      6  C   UNL     1      29.032  22.691  30.488  0.00  0.00    +0.000 A 
ATOM      7  C   UNL     1      30.422  22.622  30.352  0.00  0.00    +0.000 A 
ATOM      8  O   UNL     1      31.247  22.744  31.469  0.00  0.00    +0.000 OA
ENDROOT
BRANCH   4   9
ATOM      9  N   UNL     1      27.917  22.256  27.001  0.00  0.00    +0.000 NA
ATOM     10  C   UNL     1      27.678  23.163  26.134  0.00  0.00    +0.000 C 
ATOM     11  C   UNL     1      26.753  22.858  25.049  0.00  0.00    +0.000 C 
ATOM     12  C   UNL     1      26.475  23.779  24.120  0.00  0.00    +0.000 C 
ATOM     13  C   UNL     1      27.076  25.106  24.155  0.00  0.00    +0.000 C 
ATOM     14  O   UNL     1      26.812  25.982  23.272  0.00  0.00    +0.000 OA
ATOM     15  C   UNL     1      28.002  25.416  25.240  0.00  0.00    +0.000 C 
ATOM     16  C   UNL     1      28.270  24.496  26.153  0.00  0.00    +0.000 C 
ENDBRANCH   4   9
BRANCH   5  17
ATOM     17  C   UNL     1      26.759  22.649  29.575  0.00  0.00    +0.000 C 
ATOM     18  C   UNL     1      26.354  23.981  30.150  0.00  0.00    +0.000 C 
ATOM     19  C   UNL     1      26.266  21.559  30.485  0.00  0.00    +0.000 C 
ENDBRANCH   5  17
TORSDOF 2
ENDMDL
MODEL 4
REMARK VINA RESULT:      -5.5     18.711     21.793
REMARK  Name = 
REMARK  2 active torsions:
REMARK  status: ('A' for Active; 'I' for Inactive)
REMARK    1  A    between atoms: C_4  and  N_5
REMARK    2  A    between atoms: C_13  and  C_14
REMARK                            x       y       z     vdW  Elec       q    Type
REMARK                         _______ _______ _______ _____ _____    ______ ____
ROOT
ATOM      1  C   UNL     1      23.609   9.437  35.850  0.00  0.00    +0.000 C 
ATOM      2  C   UNL     1      22.809  10.249  36.806  0.00  0.00    +0.000 A 
ATOM      3  C   UNL     1      21.553   9.890  37.226  0.00  0.00    +0.000 A 
ATOM      4  C   UNL     1      20.810  10.642  38.112  0.00  0.00    +0.000 A 
ATOM      5  C   UNL     1      21.387  11.806  38.578  0.00  0.00    +0.000 A 
ATOM      6  C   UNL     1      22.654  12.205  38.179  0.00  0.00    +0.000 A 
ATOM      7  C   UNL     1      23.369  11.409  37.280  0.00  0.00    +0.000 A 
ATOM      8  O   UNL     1      24.644  11.787  36.861  0.00  0.00    +0.000 OA
ENDROOT
BRANCH   4   9
ATOM      9  N   UNL     1      19.525  10.289  38.551  0.00  0.00    +0.000 NA
ATOM     10  C   UNL     1      18.423  10.682  38.040  0.00  0.00    +0.000 C 
ATOM     11  C   UNL     1      17.177  10.210  38.633  0.00  0.00    +0.000 C 
ATOM     12  C   UNL     1      16.001  10.596  38.129  0.00  0.00    +0.000 C 
ATOM     13  C   UNL     1      15.917  11.493  36.984  0.00  0.00    +0.000 C 
ATOM     14  O   UNL     1      14.798  11.861  36.504  0.00  0.00    +0.000 OA
ATOM     15  C   UNL     1      17.161  11.969  36.387  0.00  0.00    +0.000 C 
ATOM     16  C   UNL     1      18.320  11.579  36.894  0.00  0.00    +0.000 C 
ENDBRANCH   4   9
BRANCH   5  17
ATOM     17  C   UNL     1      20.678  12.701  39.540  0.00  0.00    +0.000 C 
ATOM     18  C   UNL     1      20.261  13.995  38.893  0.00  0.00    +0.000 C 
ATOM     19  C   UNL     1      21.526  13.011  40.741  0.00  0.00    +0.000 C 
ENDBRANCH   5  17
TORSDOF 2
ENDMDL
MODEL 5
REMARK VINA RESULT:      -5.5     28.281     29.971
REMARK  Name = 
REMARK  2 active torsions:
REMARK  status: ('A' for Active; 'I' for Inactive)
REMARK    1  A    between atoms: C_4  and  N_5
REMARK    2  A    between atoms: C_13  and  C_14
REMARK                            x       y       z     vdW  Elec       q    Type
REMARK                         _______ _______ _______ _____ _____    ______ ____
ROOT
ATOM      1  C   UNL     1      24.137  26.134  25.273  0.00  0.00    +0.000 C 
ATOM      2  C   UNL     1      25.009  25.264  26.106  0.00  0.00    +0.000 A 
ATOM      3  C   UNL     1      26.023  24.501  25.587  0.00  0.00    +0.000 A 
ATOM      4  C   UNL     1      26.832  23.693  26.358  0.00  0.00    +0.000 A 
ATOM      5  C   UNL     1      26.581  23.676  27.715  0.00  0.00    +0.000 A 
ATOM      6  C   UNL     1      25.566  24.432  28.282  0.00  0.00    +0.000 A 
ATOM      7  C   UNL     1      24.773  25.235  27.458  0.00  0.00    +0.000 A 
ATOM      8  O   UNL     1      23.746  26.005  28.001  0.00  0.00    +0.000 OA
ENDROOT
BRANCH   4   9
ATOM      9  N   UNL     1      27.873  22.907  25.842  0.00  0.00    +0.000 NA
ATOM     10  C   UNL     1      29.050  23.311  25.558  0.00  0.00    +0.000 C 
ATOM     11  C   UNL     1      30.005  22.346  25.027  0.00  0.00    +0.000 C 
ATOM     12  C   UNL     1      31.249  22.728  24.718  0.00  0.00    +0.000 C 
ATOM     13  C   UNL     1      31.693  24.103  24.895  0.00  0.00    +0.000 C 
ATOM     14  O   UNL     1      32.875  24.467  24.601  0.00  0.00    +0.000 OA
ATOM     15  C   UNL     1      30.740  25.074  25.426  0.00  0.00    +0.000 C 
ATOM     16  C   UNL     1      29.512  24.684  25.729  0.00  0.00    +0.000 C 
ENDBRANCH   4   9
BRANCH   5  17
ATOM     17  C   UNL     1      27.392  22.839  28.651  0.00  0.00    +0.000 C 
ATOM     18  C   UNL     1      26.553  22.289  29.774  0.00  0.00    +0.000 C 
ATOM     19  C   UNL     1      28.540  23.612  29.236  0.00  0.00    +0.000 C 
ENDBRANCH   5  17
TORSDOF 2
ENDMDL
MODEL 6
REMARK VINA RESULT:      -5.4     28.062     30.380
REMARK  Name = 
REMARK  2 active torsions:
REMARK  status: ('A' for Active; 'I' for Inactive)
REMARK    1  A    between atoms: C_4  and  N_5
REMARK    2  A    between atoms: C_13  and  C_14
REMARK                            x       y       z     vdW  Elec       q    Type
REMARK                         _______ _______ _______ _____ _____    ______ ____
ROOT
ATOM      1  C   UNL     1      27.935  22.083  27.795  0.00  0.00    +0.000 C 
ATOM      2  C   UNL     1      28.424  22.650  26.510  0.00  0.00    +0.000 A 
ATOM      3  C   UNL     1      29.753  22.721  26.179  0.00  0.00    +0.000 A 
ATOM      4  C   UNL     1      30.208  23.247  24.989  0.00  0.00    +0.000 A 
ATOM      5  C   UNL     1      29.253  23.716  24.110  0.00  0.00    +0.000 A 
ATOM      6  C   UNL     1      27.899  23.664  24.404  0.00  0.00    +0.000 A 
ATOM      7  C   UNL     1      27.487  23.121  25.625  0.00  0.00    +0.000 A 
ATOM      8  O   UNL     1      26.132  23.057  25.947  0.00  0.00    +0.000 OA
ENDROOT
BRANCH   4   9
ATOM      9  N   UNL     1      31.564  23.326  24.636  0.00  0.00    +0.000 NA
ATOM     10  C   UNL     1      32.365  24.272  24.941  0.00  0.00    +0.000 C 
ATOM     11  C   UNL     1      33.747  24.185  24.484  0.00  0.00    +0.000 C 
ATOM     12  C   UNL     1      34.619  25.154  24.782  0.00  0.00    +0.000 C 
ATOM     13  C   UNL     1      34.229  26.320  25.563  0.00  0.00    +0.000 C 
ATOM     14  O   UNL     1      35.058  27.242  25.846  0.00  0.00    +0.000 OA
ATOM     15  C   UNL     1      32.846  26.413  26.022  0.00  0.00    +0.000 C 
ATOM     16  C   UNL     1      31.992  25.447  25.722  0.00  0.00    +0.000 C 
ENDBRANCH   4   9
BRANCH   5  17
ATOM     17  C   UNL     1      29.627  24.308  22.790  0.00  0.00    +0.000 C 
ATOM     18  C   UNL     1      29.679  25.811  22.849  0.00  0.00    +0.000 C 
ATOM     19  C   UNL     1      28.670  23.898  21.706  0.00  0.00    +0.000 C 
ENDBRANCH   5  17
TORSDOF 2
ENDMDL
MODEL 7
REMARK VINA RESULT:      -5.3     18.023     21.315
REMARK  Name = 
REMARK  2 active torsions:
REMARK  status: ('A' for Active; 'I' for Inactive)
REMARK    1  A    between atoms: C_4  and  N_5
REMARK    2  A    between atoms: C_13  and  C_14
REMARK                            x       y       z     vdW  Elec       q    Type
REMARK                         _______ _______ _______ _____ _____    ______ ____
ROOT
ATOM      1  C   UNL     1      23.680   9.001  36.091  0.00  0.00    +0.000 C 
ATOM      2  C   UNL     1      22.918  10.011  36.874  0.00  0.00    +0.000 A 
ATOM      3  C   UNL     1      21.560   9.950  37.056  0.00  0.00    +0.000 A 
ATOM      4  C   UNL     1      20.853  10.886  37.780  0.00  0.00    +0.000 A 
ATOM      5  C   UNL     1      21.577  11.921  38.336  0.00  0.00    +0.000 A 
ATOM      6  C   UNL     1      22.951  12.020  38.177  0.00  0.00    +0.000 A 
ATOM      7  C   UNL     1      23.624  11.046  37.434  0.00  0.00    +0.000 A 
ATOM      8  O   UNL     1      25.005  11.122  37.257  0.00  0.00    +0.000 OA
ENDROOT
BRANCH   4   9
ATOM      9  N   UNL     1      19.464  10.838  37.975  0.00  0.00    +0.000 NA
ATOM     10  C   UNL     1      18.855  10.171  38.876  0.00  0.00    +0.000 C 
ATOM     11  C   UNL     1      17.399  10.241  38.927  0.00  0.00    +0.000 C 
ATOM     12  C   UNL     1      16.722   9.558  39.855  0.00  0.00    +0.000 C 
ATOM     13  C   UNL     1      17.401   8.727  40.840  0.00  0.00    +0.000 C 
ATOM     14  O   UNL     1      16.757   8.077  41.723  0.00  0.00    +0.000 OA
ATOM     15  C   UNL     1      18.858   8.652  40.794  0.00  0.00    +0.000 C 
ATOM     16  C   UNL     1      19.518   9.333  39.870  0.00  0.00    +0.000 C 
ENDBRANCH   4   9
BRANCH   5  17
ATOM     17  C   UNL     1      20.919  12.993  39.142  0.00  0.00    +0.000 C 
ATOM     18  C   UNL     1      21.396  14.364  38.739  0.00  0.00    +0.000 C 
ATOM     19  C   UNL     1      21.160  12.810  40.614  0.00  0.00    +0.000 C 
ENDBRANCH   5  17
TORSDOF 2
ENDMDL
MODEL 8
REMARK VINA RESULT:      -5.3     30.402     32.226
REMARK  Name = 
REMARK  2 active torsions:
REMARK  status: ('A' for Active; 'I' for Inactive)
REMARK    1  A    between atoms: C_4  and  N_5
REMARK    2  A    between atoms: C_13  and  C_14
REMARK                            x       y       z     vdW  Elec       q    Type
REMARK                         _______ _______ _______ _____ _____    ______ ____
ROOT
ATOM      1  C   UNL     1      20.635  27.111  25.044  0.00  0.00    +0.000 C 
ATOM      2  C   UNL     1      21.891  26.756  25.757  0.00  0.00    +0.000 A 
ATOM      3  C   UNL     1      23.132  26.847  25.182  0.00  0.00    +0.000 A 
ATOM      4  C   UNL     1      24.297  26.518  25.841  0.00  0.00    +0.000 A 
ATOM      5  C   UNL     1      24.172  26.077  27.143  0.00  0.00    +0.000 A 
ATOM      6  C   UNL     1      22.936  25.970  27.764  0.00  0.00    +0.000 A 
ATOM      7  C   UNL     1      21.784  26.317  27.053  0.00  0.00    +0.000 A 
ATOM      8  O   UNL     1      20.529  26.218  27.653  0.00  0.00    +0.000 OA
ENDROOT
BRANCH   4   9
ATOM      9  N   UNL     1      25.574  26.606  25.266  0.00  0.00    +0.000 NA
ATOM     10  C   UNL     1      26.142  25.708  24.558  0.00  0.00    +0.000 C 
ATOM     11  C   UNL     1      27.479  25.976  24.041  0.00  0.00    +0.000 C 
ATOM     12  C   UNL     1      28.109  25.063  23.296  0.00  0.00    +0.000 C 
ATOM     13  C   UNL     1      27.496  23.782  22.974  0.00  0.00    +0.000 C 
ATOM     14  O   UNL     1      28.095  22.914  22.264  0.00  0.00    +0.000 OA
ATOM     15  C   UNL     1      26.158  23.509  23.489  0.00  0.00    +0.000 C 
ATOM     16  C   UNL     1      25.543  24.420  24.226  0.00  0.00    +0.000 C 
ENDBRANCH   4   9
BRANCH   5  17
ATOM     17  C   UNL     1      25.364  25.692  27.958  0.00  0.00    +0.000 C 
ATOM     18  C   UNL     1      25.633  24.212  27.883  0.00  0.00    +0.000 C 
ATOM     19  C   UNL     1      25.202  26.083  29.400  0.00  0.00    +0.000 C 
ENDBRANCH   5  17
TORSDOF 2
ENDMDL
MODEL 9
REMARK VINA RESULT:      -5.3     27.773     29.259
REMARK  Name = 
REMARK  2 active torsions:
REMARK  status: ('A' for Active; 'I' for Inactive)
REMARK    1  A    between atoms: C_4  and  N_5
REMARK    2  A    between atoms: C_13  and  C_14
REMARK                            x       y       z     vdW  Elec       q    Type
REMARK                         _______ _______ _______ _____ _____    ______ ____
ROOT
ATOM      1  C   UNL     1      26.602  21.977  30.099  0.00  0.00    +0.000 C 
ATOM      2  C   UNL     1      27.821  22.364  29.338  0.00  0.00    +0.000 A 
ATOM      3  C   UNL     1      27.934  22.221  27.979  0.00  0.00    +0.000 A 
ATOM      4  C   UNL     1      29.063  22.579  27.273  0.00  0.00    +0.000 A 
ATOM      5  C   UNL     1      30.112  23.103  28.001  0.00  0.00    +0.000 A 
ATOM      6  C   UNL     1      30.040  23.265  29.376  0.00  0.00    +0.000 A 
ATOM      7  C   UNL     1      28.873  22.888  30.047  0.00  0.00    +0.000 A 
ATOM      8  O   UNL     1      28.774  23.039  31.430  0.00  0.00    +0.000 OA
ENDROOT
BRANCH   4   9
ATOM      9  N   UNL     1      29.194  22.438  25.884  0.00  0.00    +0.000 NA
ATOM     10  C   UNL     1      28.736  23.239  25.001  0.00  0.00    +0.000 C 
ATOM     11  C   UNL     1      28.970  22.929  23.595  0.00  0.00    +0.000 C 
ATOM     12  C   UNL     1      28.508  23.742  22.640  0.00  0.00    +0.000 C 
ATOM     13  C   UNL     1      27.763  24.952  22.959  0.00  0.00    +0.000 C 
ATOM     14  O   UNL     1      27.323  25.725  22.050  0.00  0.00    +0.000 OA
ATOM     15  C   UNL     1      27.525  25.266  24.364  0.00  0.00    +0.000 C 
ATOM     16  C   UNL     1      27.988  24.454  25.302  0.00  0.00    +0.000 C 
ENDBRANCH   4   9
BRANCH   5  17
ATOM     17  C   UNL     1      31.386  23.526  27.345  0.00  0.00    +0.000 C 
ATOM     18  C   UNL     1      32.578  23.273  28.230  0.00  0.00    +0.000 C 
ATOM     19  C   UNL     1      31.362  24.980  26.969  0.00  0.00    +0.000 C 
ENDBRANCH   5  17
TORSDOF 2
ENDMDL
MODEL 10
REMARK VINA RESULT:      -5.2     15.835     17.662
REMARK  Name = 
REMARK  2 active torsions:
REMARK  status: ('A' for Active; 'I' for Inactive)
REMARK    1  A    between atoms: C_4  and  N_5
REMARK    2  A    between atoms: C_13  and  C_14
REMARK                            x       y       z     vdW  Elec       q    Type
REMARK                         _______ _______ _______ _____ _____    ______ ____
ROOT
ATOM      1  C   UNL     1      16.805 -10.500  32.275  0.00  0.00    +0.000 C 
ATOM      2  C   UNL     1      16.710 -10.547  30.791  0.00  0.00    +0.000 A 
ATOM      3  C   UNL     1      17.705 -10.099  29.961  0.00  0.00    +0.000 A 
ATOM      4  C   UNL     1      17.618 -10.142  28.585  0.00  0.00    +0.000 A 
ATOM      5  C   UNL     1      16.459 -10.667  28.051  0.00  0.00    +0.000 A 
ATOM      6  C   UNL     1      15.428 -11.132  28.854  0.00  0.00    +0.000 A 
ATOM      7  C   UNL     1      15.564 -11.067  30.243  0.00  0.00    +0.000 A 
ATOM      8  O   UNL     1      14.542 -11.527  31.074  0.00  0.00    +0.000 OA
ENDROOT
BRANCH   4   9
ATOM      9  N   UNL     1      18.627  -9.688  27.723  0.00  0.00    +0.000 NA
ATOM     10  C   UNL     1      18.753  -8.499  27.276  0.00  0.00    +0.000 C 
ATOM     11  C   UNL     1      19.870  -8.208  26.384  0.00  0.00    +0.000 C 
ATOM     12  C   UNL     1      20.039  -6.976  25.894  0.00  0.00    +0.000 C 
ATOM     13  C   UNL     1      19.128  -5.889  26.225  0.00  0.00    +0.000 C 
ATOM     14  O   UNL     1      19.289  -4.717  25.759  0.00  0.00    +0.000 OA
ATOM     15  C   UNL     1      18.008  -6.175  27.117  0.00  0.00    +0.000 C 
ATOM     16  C   UNL     1      17.851  -7.399  27.597  0.00  0.00    +0.000 C 
ENDBRANCH   4   9
BRANCH   5  17
ATOM     17  C   UNL     1      16.251 -10.765  26.575  0.00  0.00    +0.000 C 
ATOM     18  C   UNL     1      15.320  -9.694  26.072  0.00  0.00    +0.000 C 
ATOM     19  C   UNL     1      15.705 -12.108  26.178  0.00  0.00    +0.000 C 
ENDBRANCH   5  17
TORSDOF 2
ENDMDL
