MODEL 1
REMARK VINA RESULT:      -8.0      0.000      0.000
REMARK  Name = 
REMARK  7 active torsions:
REMARK  status: ('A' for Active; 'I' for Inactive)
REMARK    1  A    between atoms: C_5  and  C_6
REMARK    2  A    between atoms: C_9  and  S_10
REMARK    3  A    between atoms: S_10  and  C_11
REMARK    4  A    between atoms: C_11  and  C_12
REMARK    5  A    between atoms: C_15  and  C_16
REMARK    6  A    between atoms: N_18  and  C_19
REMARK    7  A    between atoms: C_19  and  C_20
REMARK                            x       y       z     vdW  Elec       q    Type
REMARK                         _______ _______ _______ _____ _____    ______ ____
ROOT
ATOM      1  S   UNL     1      36.695   4.422  13.527  0.00  0.00    +0.000 S 
ENDROOT
BRANCH   1   5
ATOM      2  C   UNL     1      39.717   5.658  16.750  0.00  0.00    +0.000 A 
ATOM      3  C   UNL     1      40.126   5.556  15.438  0.00  0.00    +0.000 A 
ATOM      4  C   UNL     1      39.224   5.182  14.439  0.00  0.00    +0.000 A 
ATOM      5  C   UNL     1      37.913   4.911  14.763  0.00  0.00    +0.000 A 
ATOM      6  N   UNL     1      37.567   5.024  16.062  0.00  0.00    +0.000 NA
ATOM      7  N   UNL     1      38.428   5.381  17.006  0.00  0.00    +0.000 NA
BRANCH   2  12
ATOM      8  C   UNL     1      43.058   7.157  21.175  0.00  0.00    +0.000 C 
ATOM      9  C   UNL     1      42.243   6.777  19.990  0.00  0.00    +0.000 A 
ATOM     10  C   UNL     1      42.758   6.764  18.698  0.00  0.00    +0.000 A 
ATOM     11  C   UNL     1      41.925   6.396  17.635  0.00  0.00    +0.000 A 
ATOM     12  C   UNL     1      40.609   6.045  17.835  0.00  0.00    +0.000 A 
ATOM     13  C   UNL     1      40.159   6.078  19.138  0.00  0.00    +0.000 A 
ATOM     14  C   UNL     1      40.935   6.430  20.201  0.00  0.00    +0.000 A 
ENDBRANCH   2  12
ENDBRANCH   1   5
BRANCH   1  15
ATOM     15  C   UNL     1      35.147   3.928  14.328  0.00  0.00    +0.000 C 
BRANCH  15  16
ATOM     16  C   UNL     1      35.404   2.663  15.090  0.00  0.00    +0.000 A 
ATOM     17  C   UNL     1      34.914   2.402  16.330  0.00  0.00    +0.000 A 
ATOM     18  C   UNL     1      35.179   1.223  16.990  0.00  0.00    +0.000 A 
ATOM     19  C   UNL     1      35.967   0.277  16.372  0.00  0.00    +0.000 A 
ATOM     20  C   UNL     1      36.466   0.545  15.109  0.00  0.00    +0.000 A 
ATOM     21  C   UNL     1      36.200   1.712  14.462  0.00  0.00    +0.000 A 
BRANCH  19  22
ATOM     22  C   UNL     1      36.286  -1.011  17.036  0.00  0.00    +0.000 C 
ATOM     23  O   UNL     1      35.390  -1.876  17.114  0.00  0.00    +0.000 OA
ATOM     24  N   UNL     1      37.571  -1.248  17.563  0.00  0.00    +0.000 NA
BRANCH  24  25
ATOM     25  C   UNL     1      38.034  -2.406  18.225  0.00  0.00    +0.000 C 
BRANCH  25  26
ATOM     26  C   UNL     1      38.872  -3.362  17.454  0.00  0.00    +0.000 C 
ATOM     27  C   UNL     1      38.290  -4.702  17.193  0.00  0.00    +0.000 C 
ATOM     28  C   UNL     1      39.378  -2.760  16.181  0.00  0.00    +0.000 C 
ENDBRANCH  25  26
ENDBRANCH  24  25
ENDBRANCH  19  22
ENDBRANCH  15  16
ENDBRANCH   1  15
TORSDOF 7
ENDMDL
MODEL 2
REMARK VINA RESULT:      -7.9      1.469      2.083
REMARK  Name = 
REMARK  7 active torsions:
REMARK  status: ('A' for Active; 'I' for Inactive)
REMARK    1  A    between atoms: C_5  and  C_6
REMARK    2  A    between atoms: C_9  and  S_10
REMARK    3  A    between atoms: S_10  and  C_11
REMARK    4  A    between atoms: C_11  and  C_12
REMARK    5  A    between atoms: C_15  and  C_16
REMARK    6  A    between atoms: N_18  and  C_19
REMARK    7  A    between atoms: C_19  and  C_20
REMARK                            x       y       z     vdW  Elec       q    Type
REMARK                         _______ _______ _______ _____ _____    ______ ____
ROOT
ATOM      1  S   UNL     1      36.314   5.516  13.584  0.00  0.00    +0.000 S 
ENDROOT
BRANCH   1   5
ATOM      2  C   UNL     1      39.465   5.975  16.887  0.00  0.00    +0.000 A 
ATOM      3  C   UNL     1      39.621   4.998  15.930  0.00  0.00    +0.000 A 
ATOM      4  C   UNL     1      38.676   4.838  14.914  0.00  0.00    +0.000 A 
ATOM      5  C   UNL     1      37.574   5.664  14.865  0.00  0.00    +0.000 A 
ATOM      6  N   UNL     1      37.469   6.603  15.828  0.00  0.00    +0.000 NA
ATOM      7  N   UNL     1      38.371   6.750  16.789  0.00  0.00    +0.000 NA
BRANCH   2  12
ATOM      8  C   UNL     1      43.384   6.852  20.994  0.00  0.00    +0.000 C 
ATOM      9  C   UNL     1      42.324   6.619  19.976  0.00  0.00    +0.000 A 
ATOM     10  C   UNL     1      40.997   6.373  20.316  0.00  0.00    +0.000 A 
ATOM     11  C   UNL     1      40.060   6.161  19.298  0.00  0.00    +0.000 A 
ATOM     12  C   UNL     1      40.416   6.191  17.969  0.00  0.00    +0.000 A 
ATOM     13  C   UNL     1      41.746   6.440  17.698  0.00  0.00    +0.000 A 
ATOM     14  C   UNL     1      42.690   6.651  18.657  0.00  0.00    +0.000 A 
ENDBRANCH   2  12
ENDBRANCH   1   5
BRANCH   1  15
ATOM     15  C   UNL     1      34.848   4.672  14.236  0.00  0.00    +0.000 C 
BRANCH  15  16
ATOM     16  C   UNL     1      35.270   3.314  14.711  0.00  0.00    +0.000 A 
ATOM     17  C   UNL     1      36.098   2.485  14.021  0.00  0.00    +0.000 A 
ATOM     18  C   UNL     1      36.456   1.246  14.501  0.00  0.00    +0.000 A 
ATOM     19  C   UNL     1      35.962   0.833  15.718  0.00  0.00    +0.000 A 
ATOM     20  C   UNL     1      35.119   1.679  16.418  0.00  0.00    +0.000 A 
ATOM     21  C   UNL     1      34.768   2.903  15.939  0.00  0.00    +0.000 A 
BRANCH  19  22
ATOM     22  C   UNL     1      36.314  -0.493  16.282  0.00  0.00    +0.000 C 
ATOM     23  O   UNL     1      37.503  -0.708  16.595  0.00  0.00    +0.000 OA
ATOM     24  N   UNL     1      35.328  -1.483  16.460  0.00  0.00    +0.000 NA
BRANCH  24  25
ATOM     25  C   UNL     1      35.495  -2.788  16.974  0.00  0.00    +0.000 C 
BRANCH  25  26
ATOM     26  C   UNL     1      35.529  -3.918  16.008  0.00  0.00    +0.000 C 
ATOM     27  C   UNL     1      34.516  -3.901  14.923  0.00  0.00    +0.000 C 
ATOM     28  C   UNL     1      36.897  -4.124  15.437  0.00  0.00    +0.000 C 
ENDBRANCH  25  26
ENDBRANCH  24  25
ENDBRANCH  19  22
ENDBRANCH  15  16
ENDBRANCH   1  15
TORSDOF 7
ENDMDL
MODEL 3
REMARK VINA RESULT:      -7.7      3.467      9.568
REMARK  Name = 
REMARK  7 active torsions:
REMARK  status: ('A' for Active; 'I' for Inactive)
REMARK    1  A    between atoms: C_5  and  C_6
REMARK    2  A    between atoms: C_9  and  S_10
REMARK    3  A    between atoms: S_10  and  C_11
REMARK    4  A    between atoms: C_11  and  C_12
REMARK    5  A    between atoms: C_15  and  C_16
REMARK    6  A    between atoms: N_18  and  C_19
REMARK    7  A    between atoms: C_19  and  C_20
REMARK                            x       y       z     vdW  Elec       q    Type
REMARK                         _______ _______ _______ _____ _____    ______ ____
ROOT
ATOM      1  S   UNL     1      38.924   4.931  15.651  0.00  0.00    +0.000 S 
ENDROOT
BRANCH   1   5
ATOM      2  C   UNL     1      36.808   0.861  15.760  0.00  0.00    +0.000 A 
ATOM      3  C   UNL     1      36.221   1.949  16.366  0.00  0.00    +0.000 A 
ATOM      4  C   UNL     1      36.845   3.199  16.347  0.00  0.00    +0.000 A 
ATOM      5  C   UNL     1      38.061   3.350  15.716  0.00  0.00    +0.000 A 
ATOM      6  N   UNL     1      38.592   2.251  15.140  0.00  0.00    +0.000 NA
ATOM      7  N   UNL     1      37.993   1.068  15.162  0.00  0.00    +0.000 NA
BRANCH   2  12
ATOM      8  C   UNL     1      34.569  -4.423  15.523  0.00  0.00    +0.000 C 
ATOM      9  C   UNL     1      35.111  -3.042  15.634  0.00  0.00    +0.000 A 
ATOM     10  C   UNL     1      34.651  -2.129  16.578  0.00  0.00    +0.000 A 
ATOM     11  C   UNL     1      35.211  -0.847  16.617  0.00  0.00    +0.000 A 
ATOM     12  C   UNL     1      36.206  -0.465  15.745  0.00  0.00    +0.000 A 
ATOM     13  C   UNL     1      36.618  -1.415  14.834  0.00  0.00    +0.000 A 
ATOM     14  C   UNL     1      36.100  -2.673  14.762  0.00  0.00    +0.000 A 
ENDBRANCH   2  12
ENDBRANCH   1   5
BRANCH   1  15
ATOM     15  C   UNL     1      38.395   5.994  17.020  0.00  0.00    +0.000 C 
BRANCH  15  16
ATOM     16  C   UNL     1      39.562   6.173  17.943  0.00  0.00    +0.000 A 
ATOM     17  C   UNL     1      39.463   6.263  19.296  0.00  0.00    +0.000 A 
ATOM     18  C   UNL     1      40.566   6.427  20.102  0.00  0.00    +0.000 A 
ATOM     19  C   UNL     1      41.812   6.501  19.519  0.00  0.00    +0.000 A 
ATOM     20  C   UNL     1      41.912   6.410  18.141  0.00  0.00    +0.000 A 
ATOM     21  C   UNL     1      40.816   6.248  17.350  0.00  0.00    +0.000 A 
BRANCH  19  22
ATOM     22  C   UNL     1      43.036   6.678  20.339  0.00  0.00    +0.000 C 
ATOM     23  O   UNL     1      43.962   7.378  19.880  0.00  0.00    +0.000 OA
ATOM     24  N   UNL     1      43.145   6.071  21.606  0.00  0.00    +0.000 NA
BRANCH  24  25
ATOM     25  C   UNL     1      44.234   6.133  22.502  0.00  0.00    +0.000 C 
BRANCH  25  26
ATOM     26  C   UNL     1      44.267   7.251  23.483  0.00  0.00    +0.000 C 
ATOM     27  C   UNL     1      44.231   6.882  24.920  0.00  0.00    +0.000 C 
ATOM     28  C   UNL     1      45.398   8.194  23.217  0.00  0.00    +0.000 C 
ENDBRANCH  25  26
ENDBRANCH  24  25
ENDBRANCH  19  22
ENDBRANCH  15  16
ENDBRANCH   1  15
TORSDOF 7
ENDMDL
MODEL 4
REMARK VINA RESULT:      -7.4      6.907     11.295
REMARK  Name = 
REMARK  7 active torsions:
REMARK  status: ('A' for Active; 'I' for Inactive)
REMARK    1  A    between atoms: C_5  and  C_6
REMARK    2  A    between atoms: C_9  and  S_10
REMARK    3  A    between atoms: S_10  and  C_11
REMARK    4  A    between atoms: C_11  and  C_12
REMARK    5  A    between atoms: C_15  and  C_16
REMARK    6  A    between atoms: N_18  and  C_19
REMARK    7  A    between atoms: C_19  and  C_20
REMARK                            x       y       z     vdW  Elec       q    Type
REMARK                         _______ _______ _______ _____ _____    ______ ____
ROOT
ATOM      1  S   UNL     1      46.093   5.055  24.352  0.00  0.00    +0.000 S 
ENDROOT
BRANCH   1   5
ATOM      2  C   UNL     1      42.645   5.668  27.316  0.00  0.00    +0.000 A 
ATOM      3  C   UNL     1      43.293   6.764  26.789  0.00  0.00    +0.000 A 
ATOM      4  C   UNL     1      44.345   6.604  25.885  0.00  0.00    +0.000 A 
ATOM      5  C   UNL     1      44.744   5.338  25.513  0.00  0.00    +0.000 A 
ATOM      6  N   UNL     1      44.077   4.301  26.059  0.00  0.00    +0.000 NA
ATOM      7  N   UNL     1      43.078   4.460  26.917  0.00  0.00    +0.000 NA
BRANCH   2  12
ATOM      8  C   UNL     1      38.325   5.855  31.096  0.00  0.00    +0.000 C 
ATOM      9  C   UNL     1      39.434   5.868  30.103  0.00  0.00    +0.000 A 
ATOM     10  C   UNL     1      39.751   6.993  29.349  0.00  0.00    +0.000 A 
ATOM     11  C   UNL     1      40.808   6.924  28.433  0.00  0.00    +0.000 A 
ATOM     12  C   UNL     1      41.541   5.772  28.260  0.00  0.00    +0.000 A 
ATOM     13  C   UNL     1      41.176   4.692  29.037  0.00  0.00    +0.000 A 
ATOM     14  C   UNL     1      40.155   4.716  29.939  0.00  0.00    +0.000 A 
ENDBRANCH   2  12
ENDBRANCH   1   5
BRANCH   1  15
ATOM     15  C   UNL     1      46.297   6.487  23.260  0.00  0.00    +0.000 C 
BRANCH  15  16
ATOM     16  C   UNL     1      45.037   6.641  22.461  0.00  0.00    +0.000 A 
ATOM     17  C   UNL     1      44.313   5.603  21.966  0.00  0.00    +0.000 A 
ATOM     18  C   UNL     1      43.161   5.796  21.238  0.00  0.00    +0.000 A 
ATOM     19  C   UNL     1      42.728   7.083  21.003  0.00  0.00    +0.000 A 
ATOM     20  C   UNL     1      43.468   8.139  21.508  0.00  0.00    +0.000 A 
ATOM     21  C   UNL     1      44.607   7.941  22.227  0.00  0.00    +0.000 A 
BRANCH  19  22
ATOM     22  C   UNL     1      41.494   7.350  20.224  0.00  0.00    +0.000 C 
ATOM     23  O   UNL     1      41.311   8.502  19.780  0.00  0.00    +0.000 OA
ATOM     24  N   UNL     1      40.556   6.325  19.992  0.00  0.00    +0.000 NA
BRANCH  24  25
ATOM     25  C   UNL     1      39.338   6.413  19.283  0.00  0.00    +0.000 C 
BRANCH  25  26
ATOM     26  C   UNL     1      39.307   5.903  17.886  0.00  0.00    +0.000 C 
ATOM     27  C   UNL     1      38.271   6.472  16.989  0.00  0.00    +0.000 C 
ATOM     28  C   UNL     1      40.653   5.976  17.235  0.00  0.00    +0.000 C 
ENDBRANCH  25  26
ENDBRANCH  24  25
ENDBRANCH  19  22
ENDBRANCH  15  16
ENDBRANCH   1  15
TORSDOF 7
ENDMDL
MODEL 5
REMARK VINA RESULT:      -7.4      6.579     11.338
REMARK  Name = 
REMARK  7 active torsions:
REMARK  status: ('A' for Active; 'I' for Inactive)
REMARK    1  A    between atoms: C_5  and  C_6
REMARK    2  A    between atoms: C_9  and  S_10
REMARK    3  A    between atoms: S_10  and  C_11
REMARK    4  A    between atoms: C_11  and  C_12
REMARK    5  A    between atoms: C_15  and  C_16
REMARK    6  A    between atoms: N_18  and  C_19
REMARK    7  A    between atoms: C_19  and  C_20
REMARK                            x       y       z     vdW  Elec       q    Type
REMARK                         _______ _______ _______ _____ _____    ______ ____
ROOT
ATOM      1  S   UNL     1      45.051   8.568  23.298  0.00  0.00    +0.000 S 
ENDROOT
BRANCH   1   5
ATOM      2  C   UNL     1      42.190   6.883  20.132  0.00  0.00    +0.000 A 
ATOM      3  C   UNL     1      42.784   6.029  21.035  0.00  0.00    +0.000 A 
ATOM      4  C   UNL     1      43.658   6.518  22.008  0.00  0.00    +0.000 A 
ATOM      5  C   UNL     1      43.933   7.867  22.070  0.00  0.00    +0.000 A 
ATOM      6  N   UNL     1      43.326   8.658  21.161  0.00  0.00    +0.000 NA
ATOM      7  N   UNL     1      42.496   8.187  20.239  0.00  0.00    +0.000 NA
BRANCH   2  12
ATOM      8  C   UNL     1      38.408   5.055  16.215  0.00  0.00    +0.000 C 
ATOM      9  C   UNL     1      39.427   5.544  17.182  0.00  0.00    +0.000 A 
ATOM     10  C   UNL     1      40.666   6.036  16.781  0.00  0.00    +0.000 A 
ATOM     11  C   UNL     1      41.572   6.475  17.754  0.00  0.00    +0.000 A 
ATOM     12  C   UNL     1      41.269   6.434  19.096  0.00  0.00    +0.000 A 
ATOM     13  C   UNL     1      40.026   5.936  19.427  0.00  0.00    +0.000 A 
ATOM     14  C   UNL     1      39.115   5.498  18.514  0.00  0.00    +0.000 A 
ENDBRANCH   2  12
ENDBRANCH   1   5
BRANCH   1  15
ATOM     15  C   UNL     1      45.992   7.254  24.117  0.00  0.00    +0.000 C 
BRANCH  15  16
ATOM     16  C   UNL     1      45.062   6.527  25.041  0.00  0.00    +0.000 A 
ATOM     17  C   UNL     1      44.986   5.174  25.142  0.00  0.00    +0.000 A 
ATOM     18  C   UNL     1      44.114   4.552  26.007  0.00  0.00    +0.000 A 
ATOM     19  C   UNL     1      43.293   5.326  26.796  0.00  0.00    +0.000 A 
ATOM     20  C   UNL     1      43.371   6.705  26.691  0.00  0.00    +0.000 A 
ATOM     21  C   UNL     1      44.236   7.313  25.834  0.00  0.00    +0.000 A 
BRANCH  19  22
ATOM     22  C   UNL     1      42.334   4.710  27.745  0.00  0.00    +0.000 C 
ATOM     23  O   UNL     1      42.649   3.635  28.294  0.00  0.00    +0.000 OA
ATOM     24  N   UNL     1      41.098   5.329  28.019  0.00  0.00    +0.000 NA
BRANCH  24  25
ATOM     25  C   UNL     1      40.078   4.876  28.885  0.00  0.00    +0.000 C 
BRANCH  25  26
ATOM     26  C   UNL     1      39.945   5.536  30.211  0.00  0.00    +0.000 C 
ATOM     27  C   UNL     1      41.205   5.842  30.934  0.00  0.00    +0.000 C 
ATOM     28  C   UNL     1      39.076   6.751  30.145  0.00  0.00    +0.000 C 
ENDBRANCH  25  26
ENDBRANCH  24  25
ENDBRANCH  19  22
ENDBRANCH  15  16
ENDBRANCH   1  15
TORSDOF 7
ENDMDL
MODEL 6
REMARK VINA RESULT:      -7.3      2.989      8.703
REMARK  Name = 
REMARK  7 active torsions:
REMARK  status: ('A' for Active; 'I' for Inactive)
REMARK    1  A    between atoms: C_5  and  C_6
REMARK    2  A    between atoms: C_9  and  S_10
REMARK    3  A    between atoms: S_10  and  C_11
REMARK    4  A    between atoms: C_11  and  C_12
REMARK    5  A    between atoms: C_15  and  C_16
REMARK    6  A    between atoms: N_18  and  C_19
REMARK    7  A    between atoms: C_19  and  C_20
REMARK                            x       y       z     vdW  Elec       q    Type
REMARK                         _______ _______ _______ _____ _____    ______ ____
ROOT
ATOM      1  S   UNL     1      38.457   3.887  14.204  0.00  0.00    +0.000 S 
ENDROOT
BRANCH   1   5
ATOM      2  C   UNL     1      38.195  -0.538  15.387  0.00  0.00    +0.000 A 
ATOM      3  C   UNL     1      39.161  -0.129  14.496  0.00  0.00    +0.000 A 
ATOM      4  C   UNL     1      39.262   1.213  14.120  0.00  0.00    +0.000 A 
ATOM      5  C   UNL     1      38.387   2.140  14.644  0.00  0.00    +0.000 A 
ATOM      6  N   UNL     1      37.459   1.685  15.511  0.00  0.00    +0.000 NA
ATOM      7  N   UNL     1      37.370   0.410  15.864  0.00  0.00    +0.000 NA
BRANCH   2  12
ATOM      8  C   UNL     1      37.741  -5.950  17.258  0.00  0.00    +0.000 C 
ATOM      9  C   UNL     1      37.816  -4.561  16.728  0.00  0.00    +0.000 A 
ATOM     10  C   UNL     1      37.105  -4.148  15.606  0.00  0.00    +0.000 A 
ATOM     11  C   UNL     1      37.231  -2.824  15.168  0.00  0.00    +0.000 A 
ATOM     12  C   UNL     1      38.041  -1.921  15.819  0.00  0.00    +0.000 A 
ATOM     13  C   UNL     1      38.720  -2.394  16.923  0.00  0.00    +0.000 A 
ATOM     14  C   UNL     1      38.626  -3.672  17.383  0.00  0.00    +0.000 A 
ENDBRANCH   2  12
ENDBRANCH   1   5
BRANCH   1  15
ATOM     15  C   UNL     1      37.292   4.838  15.216  0.00  0.00    +0.000 C 
BRANCH  15  16
ATOM     16  C   UNL     1      38.026   5.328  16.428  0.00  0.00    +0.000 A 
ATOM     17  C   UNL     1      38.361   4.547  17.487  0.00  0.00    +0.000 A 
ATOM     18  C   UNL     1      39.037   5.044  18.579  0.00  0.00    +0.000 A 
ATOM     19  C   UNL     1      39.384   6.377  18.597  0.00  0.00    +0.000 A 
ATOM     20  C   UNL     1      39.041   7.171  17.516  0.00  0.00    +0.000 A 
ATOM     21  C   UNL     1      38.373   6.673  16.440  0.00  0.00    +0.000 A 
BRANCH  19  22
ATOM     22  C   UNL     1      40.112   6.967  19.747  0.00  0.00    +0.000 C 
ATOM     23  O   UNL     1      39.452   7.345  20.736  0.00  0.00    +0.000 OA
ATOM     24  N   UNL     1      41.515   7.094  19.720  0.00  0.00    +0.000 NA
BRANCH  24  25
ATOM     25  C   UNL     1      42.353   7.634  20.720  0.00  0.00    +0.000 C 
BRANCH  25  26
ATOM     26  C   UNL     1      43.683   7.002  20.931  0.00  0.00    +0.000 C 
ATOM     27  C   UNL     1      43.717   5.784  21.778  0.00  0.00    +0.000 C 
ATOM     28  C   UNL     1      44.395   6.756  19.639  0.00  0.00    +0.000 C 
ENDBRANCH  25  26
ENDBRANCH  24  25
ENDBRANCH  19  22
ENDBRANCH  15  16
ENDBRANCH   1  15
TORSDOF 7
ENDMDL
MODEL 7
REMARK VINA RESULT:      -7.0     24.348     27.352
REMARK  Name = 
REMARK  7 active torsions:
REMARK  status: ('A' for Active; 'I' for Inactive)
REMARK    1  A    between atoms: C_5  and  C_6
REMARK    2  A    between atoms: C_9  and  S_10
REMARK    3  A    between atoms: S_10  and  C_11
REMARK    4  A    between atoms: C_11  and  C_12
REMARK    5  A    between atoms: C_15  and  C_16
REMARK    6  A    between atoms: N_18  and  C_19
REMARK    7  A    between atoms: C_19  and  C_20
REMARK                            x       y       z     vdW  Elec       q    Type
REMARK                         _______ _______ _______ _____ _____    ______ ____
ROOT
ATOM      1  S   UNL     1      13.997   0.131  28.924  0.00  0.00    +0.000 S 
ENDROOT
BRANCH   1   5
ATOM      2  C   UNL     1      17.480   0.118  25.938  0.00  0.00    +0.000 A 
ATOM      3  C   UNL     1      17.705   0.493  27.244  0.00  0.00    +0.000 A 
ATOM      4  C   UNL     1      16.661   0.505  28.172  0.00  0.00    +0.000 A 
ATOM      5  C   UNL     1      15.391   0.139  27.782  0.00  0.00    +0.000 A 
ATOM      6  N   UNL     1      15.226  -0.218  26.492  0.00  0.00    +0.000 NA
ATOM      7  N   UNL     1      16.222  -0.228  25.615  0.00  0.00    +0.000 NA
BRANCH   2  12
ATOM      8  C   UNL     1      21.612   0.212  21.949  0.00  0.00    +0.000 C 
ATOM      9  C   UNL     1      20.543   0.124  22.981  0.00  0.00    +0.000 A 
ATOM     10  C   UNL     1      20.032  -1.090  23.430  0.00  0.00    +0.000 A 
ATOM     11  C   UNL     1      19.025  -1.088  24.402  0.00  0.00    +0.000 A 
ATOM     12  C   UNL     1      18.527   0.083  24.926  0.00  0.00    +0.000 A 
ATOM     13  C   UNL     1      19.075   1.252  24.439  0.00  0.00    +0.000 A 
ATOM     14  C   UNL     1      20.055   1.296  23.494  0.00  0.00    +0.000 A 
ENDBRANCH   2  12
ENDBRANCH   1   5
BRANCH   1  15
ATOM     15  C   UNL     1      12.833  -1.188  28.489  0.00  0.00    +0.000 C 
BRANCH  15  16
ATOM     16  C   UNL     1      11.797  -0.607  27.575  0.00  0.00    +0.000 A 
ATOM     17  C   UNL     1      10.878  -1.341  26.894  0.00  0.00    +0.000 A 
ATOM     18  C   UNL     1       9.945  -0.759  26.065  0.00  0.00    +0.000 A 
ATOM     19  C   UNL     1       9.942   0.611  25.922  0.00  0.00    +0.000 A 
ATOM     20  C   UNL     1      10.880   1.357  26.617  0.00  0.00    +0.000 A 
ATOM     21  C   UNL     1      11.800   0.775  27.435  0.00  0.00    +0.000 A 
BRANCH  19  22
ATOM     22  C   UNL     1       8.961   1.291  25.042  0.00  0.00    +0.000 C 
ATOM     23  O   UNL     1       9.310   2.340  24.464  0.00  0.00    +0.000 OA
ATOM     24  N   UNL     1       7.667   0.761  24.866  0.00  0.00    +0.000 NA
BRANCH  24  25
ATOM     25  C   UNL     1       6.620   1.283  24.075  0.00  0.00    +0.000 C 
BRANCH  25  26
ATOM     26  C   UNL     1       5.733   2.309  24.684  0.00  0.00    +0.000 C 
ATOM     27  C   UNL     1       4.381   2.463  24.090  0.00  0.00    +0.000 C 
ATOM     28  C   UNL     1       5.631   2.151  26.168  0.00  0.00    +0.000 C 
ENDBRANCH  25  26
ENDBRANCH  24  25
ENDBRANCH  19  22
ENDBRANCH  15  16
ENDBRANCH   1  15
TORSDOF 7
ENDMDL
MODEL 8
REMARK VINA RESULT:      -7.0     23.626     26.458
REMARK  Name = 
REMARK  7 active torsions:
REMARK  status: ('A' for Active; 'I' for Inactive)
REMARK    1  A    between atoms: C_5  and  C_6
REMARK    2  A    between atoms: C_9  and  S_10
REMARK    3  A    between atoms: S_10  and  C_11
REMARK    4  A    between atoms: C_11  and  C_12
REMARK    5  A    between atoms: C_15  and  C_16
REMARK    6  A    between atoms: N_18  and  C_19
REMARK    7  A    between atoms: C_19  and  C_20
REMARK                            x       y       z     vdW  Elec       q    Type
REMARK                         _______ _______ _______ _____ _____    ______ ____
ROOT
ATOM      1  S   UNL     1      13.876   0.106  28.602  0.00  0.00    +0.000 S 
ENDROOT
BRANCH   1   5
ATOM      2  C   UNL     1      17.486   0.143  25.771  0.00  0.00    +0.000 A 
ATOM      3  C   UNL     1      17.653   0.500  27.090  0.00  0.00    +0.000 A 
ATOM      4  C   UNL     1      16.570   0.497  27.972  0.00  0.00    +0.000 A 
ATOM      5  C   UNL     1      15.319   0.133  27.522  0.00  0.00    +0.000 A 
ATOM      6  N   UNL     1      15.211  -0.206  26.221  0.00  0.00    +0.000 NA
ATOM      7  N   UNL     1      16.244  -0.201  25.389  0.00  0.00    +0.000 NA
BRANCH   2  12
ATOM      8  C   UNL     1      21.791   0.303  21.971  0.00  0.00    +0.000 C 
ATOM      9  C   UNL     1      20.677   0.198  22.952  0.00  0.00    +0.000 A 
ATOM     10  C   UNL     1      20.133  -1.023  23.341  0.00  0.00    +0.000 A 
ATOM     11  C   UNL     1      19.084  -1.037  24.268  0.00  0.00    +0.000 A 
ATOM     12  C   UNL     1      18.577   0.125  24.805  0.00  0.00    +0.000 A 
ATOM     13  C   UNL     1      19.159   1.300  24.379  0.00  0.00    +0.000 A 
ATOM     14  C   UNL     1      20.180   1.360  23.479  0.00  0.00    +0.000 A 
ENDBRANCH   2  12
ENDBRANCH   1   5
BRANCH   1  15
ATOM     15  C   UNL     1      12.604   1.240  27.983  0.00  0.00    +0.000 C 
BRANCH  15  16
ATOM     16  C   UNL     1      11.735   0.480  27.027  0.00  0.00    +0.000 A 
ATOM     17  C   UNL     1      11.808  -0.861  26.825  0.00  0.00    +0.000 A 
ATOM     18  C   UNL     1      10.985  -1.514  25.935  0.00  0.00    +0.000 A 
ATOM     19  C   UNL     1      10.058  -0.783  25.226  0.00  0.00    +0.000 A 
ATOM     20  C   UNL     1       9.985   0.584  25.433  0.00  0.00    +0.000 A 
ATOM     21  C   UNL     1      10.801   1.223  26.315  0.00  0.00    +0.000 A 
BRANCH  19  22
ATOM     22  C   UNL     1       9.146  -1.433  24.253  0.00  0.00    +0.000 C 
ATOM     23  O   UNL     1       8.098  -1.959  24.681  0.00  0.00    +0.000 OA
ATOM     24  N   UNL     1       9.459  -1.453  22.879  0.00  0.00    +0.000 NA
BRANCH  24  25
ATOM     25  C   UNL     1       8.710  -2.031  21.831  0.00  0.00    +0.000 C 
BRANCH  25  26
ATOM     26  C   UNL     1       8.871  -3.488  21.579  0.00  0.00    +0.000 C 
ATOM     27  C   UNL     1       7.768  -4.371  22.037  0.00  0.00    +0.000 C 
ATOM     28  C   UNL     1       9.206  -3.774  20.150  0.00  0.00    +0.000 C 
ENDBRANCH  25  26
ENDBRANCH  24  25
ENDBRANCH  19  22
ENDBRANCH  15  16
ENDBRANCH   1  15
TORSDOF 7
ENDMDL
MODEL 9
REMARK VINA RESULT:      -7.0      3.485      4.742
REMARK  Name = 
REMARK  7 active torsions:
REMARK  status: ('A' for Active; 'I' for Inactive)
REMARK    1  A    between atoms: C_5  and  C_6
REMARK    2  A    between atoms: C_9  and  S_10
REMARK    3  A    between atoms: S_10  and  C_11
REMARK    4  A    between atoms: C_11  and  C_12
REMARK    5  A    between atoms: C_15  and  C_16
REMARK    6  A    between atoms: N_18  and  C_19
REMARK    7  A    between atoms: C_19  and  C_20
REMARK                            x       y       z     vdW  Elec       q    Type
REMARK                         _______ _______ _______ _____ _____    ______ ____
ROOT
ATOM      1  S   UNL     1      36.204   1.009  14.150  0.00  0.00    +0.000 S 
ENDROOT
BRANCH   1   5
ATOM      2  C   UNL     1      38.494   4.126  16.617  0.00  0.00    +0.000 A 
ATOM      3  C   UNL     1      37.202   3.799  16.965  0.00  0.00    +0.000 A 
ATOM      4  C   UNL     1      36.484   2.853  16.230  0.00  0.00    +0.000 A 
ATOM      5  C   UNL     1      37.069   2.238  15.144  0.00  0.00    +0.000 A 
ATOM      6  N   UNL     1      38.335   2.597  14.846  0.00  0.00    +0.000 NA
ATOM      7  N   UNL     1      39.012   3.495  15.549  0.00  0.00    +0.000 NA
BRANCH   2  12
ATOM      8  C   UNL     1      41.525   7.926  19.678  0.00  0.00    +0.000 C 
ATOM      9  C   UNL     1      40.775   6.956  18.834  0.00  0.00    +0.000 A 
ATOM     10  C   UNL     1      41.038   6.782  17.478  0.00  0.00    +0.000 A 
ATOM     11  C   UNL     1      40.286   5.851  16.753  0.00  0.00    +0.000 A 
ATOM     12  C   UNL     1      39.294   5.103  17.345  0.00  0.00    +0.000 A 
ATOM     13  C   UNL     1      39.083   5.323  18.690  0.00  0.00    +0.000 A 
ATOM     14  C   UNL     1      39.790   6.218  19.433  0.00  0.00    +0.000 A 
ENDBRANCH   2  12
ENDBRANCH   1   5
BRANCH   1  15
ATOM     15  C   UNL     1      36.403  -0.641  14.873  0.00  0.00    +0.000 C 
BRANCH  15  16
ATOM     16  C   UNL     1      37.759  -1.152  14.490  0.00  0.00    +0.000 A 
ATOM     17  C   UNL     1      38.049  -1.737  13.299  0.00  0.00    +0.000 A 
ATOM     18  C   UNL     1      39.313  -2.190  12.995  0.00  0.00    +0.000 A 
ATOM     19  C   UNL     1      40.316  -2.045  13.927  0.00  0.00    +0.000 A 
ATOM     20  C   UNL     1      40.018  -1.448  15.141  0.00  0.00    +0.000 A 
ATOM     21  C   UNL     1      38.767  -1.002  15.436  0.00  0.00    +0.000 A 
BRANCH  19  22
ATOM     22  C   UNL     1      41.696  -2.516  13.653  0.00  0.00    +0.000 C 
ATOM     23  O   UNL     1      41.845  -3.573  13.007  0.00  0.00    +0.000 OA
ATOM     24  N   UNL     1      42.808  -1.783  14.111  0.00  0.00    +0.000 NA
BRANCH  24  25
ATOM     25  C   UNL     1      44.176  -2.093  13.943  0.00  0.00    +0.000 C 
BRANCH  25  26
ATOM     26  C   UNL     1      45.144  -1.523  14.917  0.00  0.00    +0.000 C 
ATOM     27  C   UNL     1      44.743  -0.269  15.604  0.00  0.00    +0.000 C 
ATOM     28  C   UNL     1      45.595  -2.540  15.917  0.00  0.00    +0.000 C 
ENDBRANCH  25  26
ENDBRANCH  24  25
ENDBRANCH  19  22
ENDBRANCH  15  16
ENDBRANCH   1  15
TORSDOF 7
ENDMDL
MODEL 10
REMARK VINA RESULT:      -6.9      5.904      7.596
REMARK  Name = 
REMARK  7 active torsions:
REMARK  status: ('A' for Active; 'I' for Inactive)
REMARK    1  A    between atoms: C_5  and  C_6
REMARK    2  A    between atoms: C_9  and  S_10
REMARK    3  A    between atoms: S_10  and  C_11
REMARK    4  A    between atoms: C_11  and  C_12
REMARK    5  A    between atoms: C_15  and  C_16
REMARK    6  A    between atoms: N_18  and  C_19
REMARK    7  A    between atoms: C_19  and  C_20
REMARK                            x       y       z     vdW  Elec       q    Type
REMARK                         _______ _______ _______ _____ _____    ______ ____
ROOT
ATOM      1  S   UNL     1      44.059  -2.275  13.574  0.00  0.00    +0.000 S 
ENDROOT
BRANCH   1   5
ATOM      2  C   UNL     1      45.980  -0.927  17.516  0.00  0.00    +0.000 A 
ATOM      3  C   UNL     1      45.342  -0.002  16.719  0.00  0.00    +0.000 A 
ATOM      4  C   UNL     1      44.750  -0.387  15.514  0.00  0.00    +0.000 A 
ATOM      5  C   UNL     1      44.800  -1.705  15.115  0.00  0.00    +0.000 A 
ATOM      6  N   UNL     1      45.438  -2.569  15.932  0.00  0.00    +0.000 NA
ATOM      7  N   UNL     1      45.998  -2.196  17.075  0.00  0.00    +0.000 NA
BRANCH   2  12
ATOM      8  C   UNL     1      48.508   0.190  22.551  0.00  0.00    +0.000 C 
ATOM      9  C   UNL     1      47.847  -0.036  21.237  0.00  0.00    +0.000 A 
ATOM     10  C   UNL     1      47.391   1.007  20.437  0.00  0.00    +0.000 A 
ATOM     11  C   UNL     1      46.778   0.710  19.214  0.00  0.00    +0.000 A 
ATOM     12  C   UNL     1      46.614  -0.587  18.783  0.00  0.00    +0.000 A 
ATOM     13  C   UNL     1      47.087  -1.574  19.621  0.00  0.00    +0.000 A 
ATOM     14  C   UNL     1      47.689  -1.330  20.819  0.00  0.00    +0.000 A 
ENDBRANCH   2  12
ENDBRANCH   1   5
BRANCH   1  15
ATOM     15  C   UNL     1      42.746  -1.141  13.049  0.00  0.00    +0.000 C 
BRANCH  15  16
ATOM     16  C   UNL     1      41.564  -1.357  13.945  0.00  0.00    +0.000 A 
ATOM     17  C   UNL     1      41.282  -2.530  14.572  0.00  0.00    +0.000 A 
ATOM     18  C   UNL     1      40.183  -2.678  15.387  0.00  0.00    +0.000 A 
ATOM     19  C   UNL     1      39.341  -1.604  15.573  0.00  0.00    +0.000 A 
ATOM     20  C   UNL     1      39.629  -0.411  14.934  0.00  0.00    +0.000 A 
ATOM     21  C   UNL     1      40.718  -0.270  14.129  0.00  0.00    +0.000 A 
BRANCH  19  22
ATOM     22  C   UNL     1      38.141  -1.708  16.440  0.00  0.00    +0.000 C 
ATOM     23  O   UNL     1      38.281  -2.158  17.596  0.00  0.00    +0.000 OA
ATOM     24  N   UNL     1      36.877  -1.306  15.966  0.00  0.00    +0.000 NA
BRANCH  24  25
ATOM     25  C   UNL     1      35.644  -1.344  16.654  0.00  0.00    +0.000 C 
BRANCH  25  26
ATOM     26  C   UNL     1      35.183  -0.102  17.328  0.00  0.00    +0.000 C 
ATOM     27  C   UNL     1      35.772   0.197  18.657  0.00  0.00    +0.000 C 
ATOM     28  C   UNL     1      35.291   1.092  16.432  0.00  0.00    +0.000 C 
ENDBRANCH  25  26
ENDBRANCH  24  25
ENDBRANCH  19  22
ENDBRANCH  15  16
ENDBRANCH   1  15
TORSDOF 7
ENDMDL
