MODEL 1
REMARK VINA RESULT:      -6.8      0.000      0.000
REMARK  Name = 
REMARK  0 active torsions:
REMARK  status: ('A' for Active; 'I' for Inactive)
REMARK                            x       y       z     vdW  Elec       q    Type
REMARK                         _______ _______ _______ _____ _____    ______ ____
ROOT
ATOM      1  C   UNL     1      29.481  25.255  21.586  0.00  0.00    +0.000 C 
ATOM      2  C   UNL     1      28.245  24.756  22.255  0.00  0.00    +0.000 A 
ATOM      3  C   UNL     1      27.347  23.807  21.805  0.00  0.00    +0.000 A 
ATOM      4  C   UNL     1      26.380  23.703  22.784  0.00  0.00    +0.000 A 
ATOM      5  N   UNL     1      25.264  22.828  22.710  0.00  0.00    +0.000 NA
ATOM      6  N   UNL     1      26.669  24.547  23.790  0.00  0.00    +0.000 N 
ATOM      7  C   UNL     1      25.941  24.766  25.001  0.00  0.00    +0.000 A 
ATOM      8  N   UNL     1      24.764  25.399  24.919  0.00  0.00    +0.000 NA
ATOM      9  C   UNL     1      23.974  25.672  25.970  0.00  0.00    +0.000 A 
ATOM     10  N   UNL     1      24.411  25.273  27.187  0.00  0.00    +0.000 NA
ATOM     11  C   UNL     1      25.614  24.620  27.311  0.00  0.00    +0.000 A 
ATOM     12  S   UNL     1      26.456  23.990  28.654  0.00  0.00    +0.000 S 
ATOM     13  C   UNL     1      27.825  23.376  27.850  0.00  0.00    +0.000 A 
ATOM     14  C   UNL     1      27.587  23.681  26.551  0.00  0.00    +0.000 A 
ATOM     15  C   UNL     1      26.430  24.335  26.255  0.00  0.00    +0.000 A 
ATOM     16  C   UNL     1      28.657  23.252  25.547  0.00  0.00    +0.000 C 
ATOM     17  C   UNL     1      29.643  22.365  26.157  0.00  0.00    +0.000 C 
ATOM     18  C   UNL     1      30.257  23.196  27.465  0.00  0.00    +0.000 C 
ATOM     19  C   UNL     1      31.246  21.951  27.888  0.00  0.00    +0.000 C 
ATOM     20  C   UNL     1      29.017  22.666  28.402  0.00  0.00    +0.000 C 
ATOM     21  N   UNL     1      27.795  25.158  23.429  0.00  0.00    +0.000 NA
ENDROOT
TORSDOF 0
ENDMDL
MODEL 2
REMARK VINA RESULT:      -6.5      2.474      4.774
REMARK  Name = 
REMARK  0 active torsions:
REMARK  status: ('A' for Active; 'I' for Inactive)
REMARK                            x       y       z     vdW  Elec       q    Type
REMARK                         _______ _______ _______ _____ _____    ______ ____
ROOT
ATOM      1  C   UNL     1      27.432  21.966  30.253  0.00  0.00    +0.000 C 
ATOM      2  C   UNL     1      26.928  22.766  29.098  0.00  0.00    +0.000 A 
ATOM      3  C   UNL     1      26.152  23.908  29.116  0.00  0.00    +0.000 A 
ATOM      4  C   UNL     1      25.958  24.259  27.796  0.00  0.00    +0.000 A 
ATOM      5  N   UNL     1      25.206  25.387  27.374  0.00  0.00    +0.000 NA
ATOM      6  N   UNL     1      26.586  23.374  27.002  0.00  0.00    +0.000 N 
ATOM      7  C   UNL     1      26.648  23.354  25.573  0.00  0.00    +0.000 A 
ATOM      8  N   UNL     1      25.533  23.039  24.901  0.00  0.00    +0.000 NA
ATOM      9  C   UNL     1      25.445  22.980  23.564  0.00  0.00    +0.000 A 
ATOM     10  N   UNL     1      26.566  23.262  22.860  0.00  0.00    +0.000 NA
ATOM     11  C   UNL     1      27.729  23.590  23.514  0.00  0.00    +0.000 A 
ATOM     12  S   UNL     1      29.292  23.993  22.962  0.00  0.00    +0.000 S 
ATOM     13  C   UNL     1      30.053  24.236  24.465  0.00  0.00    +0.000 A 
ATOM     14  C   UNL     1      29.063  23.994  25.360  0.00  0.00    +0.000 A 
ATOM     15  C   UNL     1      27.838  23.654  24.872  0.00  0.00    +0.000 A 
ATOM     16  C   UNL     1      29.434  24.133  26.836  0.00  0.00    +0.000 C 
ATOM     17  C   UNL     1      30.749  24.746  27.005  0.00  0.00    +0.000 C 
ATOM     18  C   UNL     1      31.810  23.794  26.142  0.00  0.00    +0.000 C 
ATOM     19  C   UNL     1      33.095  24.750  26.520  0.00  0.00    +0.000 C 
ATOM     20  C   UNL     1      31.462  24.625  24.769  0.00  0.00    +0.000 C 
ATOM     21  N   UNL     1      27.153  22.497  27.826  0.00  0.00    +0.000 NA
ENDROOT
TORSDOF 0
ENDMDL
MODEL 3
REMARK VINA RESULT:      -6.2      1.915      2.499
REMARK  Name = 
REMARK  0 active torsions:
REMARK  status: ('A' for Active; 'I' for Inactive)
REMARK                            x       y       z     vdW  Elec       q    Type
REMARK                         _______ _______ _______ _____ _____    ______ ____
ROOT
ATOM      1  C   UNL     1      31.286  23.349  24.465  0.00  0.00    +0.000 C 
ATOM      2  C   UNL     1      29.839  23.625  24.234  0.00  0.00    +0.000 A 
ATOM      3  C   UNL     1      28.977  23.008  23.348  0.00  0.00    +0.000 A 
ATOM      4  C   UNL     1      27.753  23.623  23.516  0.00  0.00    +0.000 A 
ATOM      5  N   UNL     1      26.583  23.280  22.787  0.00  0.00    +0.000 NA
ATOM      6  N   UNL     1      27.856  24.573  24.462  0.00  0.00    +0.000 N 
ATOM      7  C   UNL     1      26.838  25.450  24.952  0.00  0.00    +0.000 A 
ATOM      8  N   UNL     1      26.404  26.423  24.140  0.00  0.00    +0.000 NA
ATOM      9  C   UNL     1      25.457  27.316  24.465  0.00  0.00    +0.000 A 
ATOM     10  N   UNL     1      24.913  27.213  25.700  0.00  0.00    +0.000 NA
ATOM     11  C   UNL     1      25.332  26.228  26.561  0.00  0.00    +0.000 A 
ATOM     12  S   UNL     1      24.879  25.812  28.153  0.00  0.00    +0.000 S 
ATOM     13  C   UNL     1      25.917  24.484  28.389  0.00  0.00    +0.000 A 
ATOM     14  C   UNL     1      26.592  24.401  27.216  0.00  0.00    +0.000 A 
ATOM     15  C   UNL     1      26.294  25.312  26.249  0.00  0.00    +0.000 A 
ATOM     16  C   UNL     1      27.626  23.281  27.106  0.00  0.00    +0.000 C 
ATOM     17  C   UNL     1      27.522  22.342  28.220  0.00  0.00    +0.000 C 
ATOM     18  C   UNL     1      27.681  23.257  29.604  0.00  0.00    +0.000 C 
ATOM     19  C   UNL     1      27.495  21.946  30.582  0.00  0.00    +0.000 C 
ATOM     20  C   UNL     1      26.075  23.598  29.580  0.00  0.00    +0.000 C 
ATOM     21  N   UNL     1      29.124  24.539  24.863  0.00  0.00    +0.000 NA
ENDROOT
TORSDOF 0
ENDMDL
MODEL 4
REMARK VINA RESULT:      -6.1      3.125      6.035
REMARK  Name = 
REMARK  0 active torsions:
REMARK  status: ('A' for Active; 'I' for Inactive)
REMARK                            x       y       z     vdW  Elec       q    Type
REMARK                         _______ _______ _______ _____ _____    ______ ____
ROOT
ATOM      1  C   UNL     1      25.141  26.081  28.951  0.00  0.00    +0.000 C 
ATOM      2  C   UNL     1      26.085  24.926  29.005  0.00  0.00    +0.000 A 
ATOM      3  C   UNL     1      25.889  23.681  29.572  0.00  0.00    +0.000 A 
ATOM      4  C   UNL     1      27.056  22.977  29.357  0.00  0.00    +0.000 A 
ATOM      5  N   UNL     1      27.270  21.641  29.788  0.00  0.00    +0.000 NA
ATOM      6  N   UNL     1      27.929  23.751  28.689  0.00  0.00    +0.000 N 
ATOM      7  C   UNL     1      29.254  23.426  28.260  0.00  0.00    +0.000 A 
ATOM      8  N   UNL     1      30.204  23.306  29.196  0.00  0.00    +0.000 NA
ATOM      9  C   UNL     1      31.487  23.006  28.940  0.00  0.00    +0.000 A 
ATOM     10  N   UNL     1      31.827  22.813  27.644  0.00  0.00    +0.000 NA
ATOM     11  C   UNL     1      30.879  22.927  26.656  0.00  0.00    +0.000 A 
ATOM     12  S   UNL     1      30.950  22.756  24.960  0.00  0.00    +0.000 S 
ATOM     13  C   UNL     1      29.319  23.073  24.590  0.00  0.00    +0.000 A 
ATOM     14  C   UNL     1      28.762  23.306  25.804  0.00  0.00    +0.000 A 
ATOM     15  C   UNL     1      29.571  23.232  26.897  0.00  0.00    +0.000 A 
ATOM     16  C   UNL     1      27.267  23.627  25.814  0.00  0.00    +0.000 C 
ATOM     17  C   UNL     1      26.656  23.385  24.511  0.00  0.00    +0.000 C 
ATOM     18  C   UNL     1      27.524  24.302  23.422  0.00  0.00    +0.000 C 
ATOM     19  C   UNL     1      26.621  23.781  22.149  0.00  0.00    +0.000 C 
ATOM     20  C   UNL     1      28.628  23.097  23.266  0.00  0.00    +0.000 C 
ATOM     21  N   UNL     1      27.304  24.910  28.500  0.00  0.00    +0.000 NA
ENDROOT
TORSDOF 0
ENDMDL
MODEL 5
REMARK VINA RESULT:      -6.1      2.683      4.638
REMARK  Name = 
REMARK  0 active torsions:
REMARK  status: ('A' for Active; 'I' for Inactive)
REMARK                            x       y       z     vdW  Elec       q    Type
REMARK                         _______ _______ _______ _____ _____    ______ ____
ROOT
ATOM      1  C   UNL     1      32.044  27.586  26.348  0.00  0.00    +0.000 C 
ATOM      2  C   UNL     1      31.661  26.333  25.635  0.00  0.00    +0.000 A 
ATOM      3  C   UNL     1      32.403  25.179  25.464  0.00  0.00    +0.000 A 
ATOM      4  C   UNL     1      31.607  24.318  24.737  0.00  0.00    +0.000 A 
ATOM      5  N   UNL     1      31.999  23.011  24.344  0.00  0.00    +0.000 NA
ATOM      6  N   UNL     1      30.430  24.913  24.473  0.00  0.00    +0.000 N 
ATOM      7  C   UNL     1      29.314  24.387  23.750  0.00  0.00    +0.000 A 
ATOM      8  N   UNL     1      29.439  24.236  22.425  0.00  0.00    +0.000 NA
ATOM      9  C   UNL     1      28.478  23.757  21.622  0.00  0.00    +0.000 A 
ATOM     10  N   UNL     1      27.308  23.405  22.204  0.00  0.00    +0.000 NA
ATOM     11  C   UNL     1      27.141  23.545  23.561  0.00  0.00    +0.000 A 
ATOM     12  S   UNL     1      25.835  23.211  24.607  0.00  0.00    +0.000 S 
ATOM     13  C   UNL     1      26.540  23.694  26.079  0.00  0.00    +0.000 A 
ATOM     14  C   UNL     1      27.779  24.104  25.713  0.00  0.00    +0.000 A 
ATOM     15  C   UNL     1      28.107  24.031  24.393  0.00  0.00    +0.000 A 
ATOM     16  C   UNL     1      28.686  24.609  26.836  0.00  0.00    +0.000 C 
ATOM     17  C   UNL     1      28.120  24.326  28.152  0.00  0.00    +0.000 C 
ATOM     18  C   UNL     1      26.607  25.024  28.158  0.00  0.00    +0.000 C 
ATOM     19  C   UNL     1      26.291  24.505  29.687  0.00  0.00    +0.000 C 
ATOM     20  C   UNL     1      25.969  23.682  27.459  0.00  0.00    +0.000 C 
ATOM     21  N   UNL     1      30.508  26.119  25.030  0.00  0.00    +0.000 NA
ENDROOT
TORSDOF 0
ENDMDL
MODEL 6
REMARK VINA RESULT:      -6.0     19.884     21.787
REMARK  Name = 
REMARK  0 active torsions:
REMARK  status: ('A' for Active; 'I' for Inactive)
REMARK                            x       y       z     vdW  Elec       q    Type
REMARK                         _______ _______ _______ _____ _____    ______ ____
ROOT
ATOM      1  C   UNL     1      16.065  11.026  35.716  0.00  0.00    +0.000 C 
ATOM      2  C   UNL     1      17.285  11.323  36.522  0.00  0.00    +0.000 A 
ATOM      3  C   UNL     1      17.733  12.545  36.984  0.00  0.00    +0.000 A 
ATOM      4  C   UNL     1      18.900  12.287  37.674  0.00  0.00    +0.000 A 
ATOM      5  N   UNL     1      19.685  13.284  38.313  0.00  0.00    +0.000 NA
ATOM      6  N   UNL     1      19.158  10.968  37.639  0.00  0.00    +0.000 N 
ATOM      7  C   UNL     1      20.258  10.264  38.221  0.00  0.00    +0.000 A 
ATOM      8  N   UNL     1      21.469  10.431  37.673  0.00  0.00    +0.000 NA
ATOM      9  C   UNL     1      22.589   9.835  38.112  0.00  0.00    +0.000 A 
ATOM     10  N   UNL     1      22.470   9.014  39.182  0.00  0.00    +0.000 NA
ATOM     11  C   UNL     1      21.244   8.819  39.771  0.00  0.00    +0.000 A 
ATOM     12  S   UNL     1      20.736   7.878  41.101  0.00  0.00    +0.000 S 
ATOM     13  C   UNL     1      19.077   8.260  41.082  0.00  0.00    +0.000 A 
ATOM     14  C   UNL     1      18.964   9.114  40.035  0.00  0.00    +0.000 A 
ATOM     15  C   UNL     1      20.095   9.415  39.338  0.00  0.00    +0.000 A 
ATOM     16  C   UNL     1      17.563   9.653  39.747  0.00  0.00    +0.000 C 
ATOM     17  C   UNL     1      16.630   9.328  40.822  0.00  0.00    +0.000 C 
ATOM     18  C   UNL     1      16.682   7.670  40.985  0.00  0.00    +0.000 C 
ATOM     19  C   UNL     1      15.598   7.683  42.224  0.00  0.00    +0.000 C 
ATOM     20  C   UNL     1      17.981   7.794  41.982  0.00  0.00    +0.000 C 
ATOM     21  N   UNL     1      18.163  10.430  36.937  0.00  0.00    +0.000 NA
ENDROOT
TORSDOF 0
ENDMDL
MODEL 7
REMARK VINA RESULT:      -5.9      3.300      4.562
REMARK  Name = 
REMARK  0 active torsions:
REMARK  status: ('A' for Active; 'I' for Inactive)
REMARK                            x       y       z     vdW  Elec       q    Type
REMARK                         _______ _______ _______ _____ _____    ______ ____
ROOT
ATOM      1  C   UNL     1      34.037  25.073  25.352  0.00  0.00    +0.000 C 
ATOM      2  C   UNL     1      32.687  24.456  25.504  0.00  0.00    +0.000 A 
ATOM      3  C   UNL     1      32.054  23.557  24.668  0.00  0.00    +0.000 A 
ATOM      4  C   UNL     1      30.830  23.295  25.247  0.00  0.00    +0.000 A 
ATOM      5  N   UNL     1      29.862  22.412  24.699  0.00  0.00    +0.000 NA
ATOM      6  N   UNL     1      30.714  24.000  26.387  0.00  0.00    +0.000 N 
ATOM      7  C   UNL     1      29.616  24.031  27.302  0.00  0.00    +0.000 A 
ATOM      8  N   UNL     1      28.489  24.640  26.910  0.00  0.00    +0.000 NA
ATOM      9  C   UNL     1      27.383  24.747  27.661  0.00  0.00    +0.000 A 
ATOM     10  N   UNL     1      27.423  24.195  28.896  0.00  0.00    +0.000 NA
ATOM     11  C   UNL     1      28.561  23.561  29.335  0.00  0.00    +0.000 A 
ATOM     12  S   UNL     1      28.957  22.773  30.795  0.00  0.00    +0.000 S 
ATOM     13  C   UNL     1      30.553  22.310  30.425  0.00  0.00    +0.000 A 
ATOM     14  C   UNL     1      30.734  22.785  29.169  0.00  0.00    +0.000 A 
ATOM     15  C   UNL     1      29.695  23.444  28.585  0.00  0.00    +0.000 A 
ATOM     16  C   UNL     1      32.101  22.524  28.535  0.00  0.00    +0.000 C 
ATOM     17  C   UNL     1      32.890  21.586  29.327  0.00  0.00    +0.000 C 
ATOM     18  C   UNL     1      32.983  22.244  30.856  0.00  0.00    +0.000 C 
ATOM     19  C   UNL     1      33.862  20.977  31.430  0.00  0.00    +0.000 C 
ATOM     20  C   UNL     1      31.544  21.560  31.253  0.00  0.00    +0.000 C 
ATOM     21  N   UNL     1      31.851  24.682  26.499  0.00  0.00    +0.000 NA
ENDROOT
TORSDOF 0
ENDMDL
MODEL 8
REMARK VINA RESULT:      -5.8     17.680     19.635
REMARK  Name = 
REMARK  0 active torsions:
REMARK  status: ('A' for Active; 'I' for Inactive)
REMARK                            x       y       z     vdW  Elec       q    Type
REMARK                         _______ _______ _______ _____ _____    ______ ____
ROOT
ATOM      1  C   UNL     1      17.699   9.543  40.436  0.00  0.00    +0.000 C 
ATOM      2  C   UNL     1      18.581   9.672  39.239  0.00  0.00    +0.000 A 
ATOM      3  C   UNL     1      18.237   9.585  37.904  0.00  0.00    +0.000 A 
ATOM      4  C   UNL     1      19.406   9.774  37.196  0.00  0.00    +0.000 A 
ATOM      5  N   UNL     1      19.490   9.760  35.778  0.00  0.00    +0.000 NA
ATOM      6  N   UNL     1      20.422   9.969  38.055  0.00  0.00    +0.000 N 
ATOM      7  C   UNL     1      21.802  10.203  37.758  0.00  0.00    +0.000 A 
ATOM      8  N   UNL     1      22.520   9.183  37.269  0.00  0.00    +0.000 NA
ATOM      9  C   UNL     1      23.820   9.257  36.947  0.00  0.00    +0.000 A 
ATOM     10  N   UNL     1      24.433  10.449  37.132  0.00  0.00    +0.000 NA
ATOM     11  C   UNL     1      23.729  11.519  37.630  0.00  0.00    +0.000 A 
ATOM     12  S   UNL     1      24.168  13.129  37.983  0.00  0.00    +0.000 S 
ATOM     13  C   UNL     1      22.666  13.699  38.547  0.00  0.00    +0.000 A 
ATOM     14  C   UNL     1      21.861  12.614  38.444  0.00  0.00    +0.000 A 
ATOM     15  C   UNL     1      22.408  11.462  37.964  0.00  0.00    +0.000 A 
ATOM     16  C   UNL     1      20.408  12.802  38.883  0.00  0.00    +0.000 C 
ATOM     17  C   UNL     1      20.094  14.210  39.110  0.00  0.00    +0.000 C 
ATOM     18  C   UNL     1      21.201  14.749  40.234  0.00  0.00    +0.000 C 
ATOM     19  C   UNL     1      20.589  16.277  40.215  0.00  0.00    +0.000 C 
ATOM     20  C   UNL     1      22.285  15.056  39.040  0.00  0.00    +0.000 C 
ATOM     21  N   UNL     1      19.881   9.898  39.268  0.00  0.00    +0.000 NA
ENDROOT
TORSDOF 0
ENDMDL
MODEL 9
REMARK VINA RESULT:      -5.8     28.226     30.570
REMARK  Name = 
REMARK  0 active torsions:
REMARK  status: ('A' for Active; 'I' for Inactive)
REMARK                            x       y       z     vdW  Elec       q    Type
REMARK                         _______ _______ _______ _____ _____    ______ ____
ROOT
ATOM      1  C   UNL     1      32.334  -5.434  30.201  0.00  0.00    +0.000 C 
ATOM      2  C   UNL     1      33.358  -5.594  31.274  0.00  0.00    +0.000 A 
ATOM      3  C   UNL     1      34.702  -5.884  31.144  0.00  0.00    +0.000 A 
ATOM      4  C   UNL     1      35.210  -5.923  32.426  0.00  0.00    +0.000 A 
ATOM      5  N   UNL     1      36.569  -6.194  32.737  0.00  0.00    +0.000 NA
ATOM      6  N   UNL     1      34.225  -5.669  33.305  0.00  0.00    +0.000 N 
ATOM      7  C   UNL     1      34.303  -5.611  34.732  0.00  0.00    +0.000 A 
ATOM      8  N   UNL     1      34.486  -6.758  35.398  0.00  0.00    +0.000 NA
ATOM      9  C   UNL     1      34.578  -6.855  36.733  0.00  0.00    +0.000 A 
ATOM     10  N   UNL     1      34.477  -5.705  37.441  0.00  0.00    +0.000 NA
ATOM     11  C   UNL     1      34.288  -4.508  36.793  0.00  0.00    +0.000 A 
ATOM     12  S   UNL     1      34.121  -2.905  37.351  0.00  0.00    +0.000 S 
ATOM     13  C   UNL     1      33.934  -2.117  35.854  0.00  0.00    +0.000 A 
ATOM     14  C   UNL     1      34.006  -3.131  34.956  0.00  0.00    +0.000 A 
ATOM     15  C   UNL     1      34.192  -4.391  35.437  0.00  0.00    +0.000 A 
ATOM     16  C   UNL     1      33.872  -2.743  33.483  0.00  0.00    +0.000 C 
ATOM     17  C   UNL     1      33.930  -1.296  33.301  0.00  0.00    +0.000 C 
ATOM     18  C   UNL     1      32.725  -0.665  34.265  0.00  0.00    +0.000 C 
ATOM     19  C   UNL     1      33.095   0.882  33.844  0.00  0.00    +0.000 C 
ATOM     20  C   UNL     1      33.739  -0.667  35.557  0.00  0.00    +0.000 C 
ATOM     21  N   UNL     1      33.133  -5.478  32.569  0.00  0.00    +0.000 NA
ENDROOT
TORSDOF 0
ENDMDL
MODEL 10
REMARK VINA RESULT:      -5.7     32.735     33.893
REMARK  Name = 
REMARK  0 active torsions:
REMARK  status: ('A' for Active; 'I' for Inactive)
REMARK                            x       y       z     vdW  Elec       q    Type
REMARK                         _______ _______ _______ _____ _____    ______ ____
ROOT
ATOM      1  C   UNL     1      19.438 -13.032  24.094  0.00  0.00    +0.000 C 
ATOM      2  C   UNL     1      19.197 -12.064  25.203  0.00  0.00    +0.000 A 
ATOM      3  C   UNL     1      19.277 -12.280  26.566  0.00  0.00    +0.000 A 
ATOM      4  C   UNL     1      18.964 -11.075  27.161  0.00  0.00    +0.000 A 
ATOM      5  N   UNL     1      18.930 -10.866  28.566  0.00  0.00    +0.000 NA
ATOM      6  N   UNL     1      18.705 -10.160  26.211  0.00  0.00    +0.000 N 
ATOM      7  C   UNL     1      18.342  -8.787  26.378  0.00  0.00    +0.000 A 
ATOM      8  N   UNL     1      17.120  -8.515  26.854  0.00  0.00    +0.000 NA
ATOM      9  C   UNL     1      16.644  -7.278  27.061  0.00  0.00    +0.000 A 
ATOM     10  N   UNL     1      17.467  -6.245  26.765  0.00  0.00    +0.000 NA
ATOM     11  C   UNL     1      18.728  -6.484  26.275  0.00  0.00    +0.000 A 
ATOM     12  S   UNL     1      20.002  -5.451  25.805  0.00  0.00    +0.000 S 
ATOM     13  C   UNL     1      21.144  -6.625  25.343  0.00  0.00    +0.000 A 
ATOM     14  C   UNL     1      20.498  -7.796  25.568  0.00  0.00    +0.000 A 
ATOM     15  C   UNL     1      19.228  -7.734  26.057  0.00  0.00    +0.000 A 
ATOM     16  C   UNL     1      21.275  -9.072  25.245  0.00  0.00    +0.000 C 
ATOM     17  C   UNL     1      22.682  -8.791  24.975  0.00  0.00    +0.000 C 
ATOM     18  C   UNL     1      22.695  -7.677  23.735  0.00  0.00    +0.000 C 
ATOM     19  C   UNL     1      24.338  -7.591  23.729  0.00  0.00    +0.000 C 
ATOM     20  C   UNL     1      22.530  -6.452  24.816  0.00  0.00    +0.000 C 
ATOM     21  N   UNL     1      18.857 -10.798  25.053  0.00  0.00    +0.000 NA
ENDROOT
TORSDOF 0
ENDMDL
