MODEL 1
REMARK VINA RESULT:      -7.9      0.000      0.000
REMARK  Name = 
REMARK  10 active torsions:
REMARK  status: ('A' for Active; 'I' for Inactive)
REMARK    1  A    between atoms: C_2  and  O_3
REMARK    2  A    between atoms: O_3  and  C_4
REMARK    3  A    between atoms: C_4  and  C_6
REMARK    4  A    between atoms: C_6  and  C_7
REMARK    5  A    between atoms: N_15  and  C_16
REMARK    6  A    between atoms: C_16  and  C_17
REMARK    7  A    between atoms: C_17  and  C_18
REMARK    8  A    between atoms: C_18  and  C_19
REMARK    9  A    between atoms: C_18  and  C_21
REMARK   10  A    between atoms: C_18  and  C_27
REMARK                            x       y       z     vdW  Elec       q    Type
REMARK                         _______ _______ _______ _____ _____    ______ ____
ROOT
ATOM      1  C   UNL     1      39.834   6.399  17.936  0.00  0.00    +0.000 C 
ATOM      2  C   UNL     1      38.968   5.325  18.581  0.00  0.00    +0.000 C 
ATOM      3  C   UNL     1      38.339   4.402  17.600  0.00  0.00    +0.000 C 
ATOM      4  N   UNL     1      37.851   5.012  16.407  0.00  0.00    +0.000 NA
ATOM      5  C   UNL     1      38.787   5.895  15.753  0.00  0.00    +0.000 C 
ATOM      6  C   UNL     1      40.093   5.999  16.507  0.00  0.00    +0.000 C 
ENDROOT
BRANCH   1   7
ATOM      7  C   UNL     1      41.112   6.475  18.651  0.00  0.00    +0.000 A 
ATOM      8  C   UNL     1      42.304   6.700  17.951  0.00  0.00    +0.000 A 
ATOM      9  C   UNL     1      43.513   6.775  18.602  0.00  0.00    +0.000 A 
ATOM     10  C   UNL     1      43.599   6.633  19.972  0.00  0.00    +0.000 A 
ATOM     11  C   UNL     1      42.410   6.410  20.658  0.00  0.00    +0.000 A 
ATOM     12  C   UNL     1      41.197   6.333  20.022  0.00  0.00    +0.000 A 
ENDBRANCH   1   7
BRANCH   1  13
ATOM     13  C   UNL     1      39.051   7.657  17.991  0.00  0.00    +0.000 C 
ATOM     14  O   UNL     1      39.539   8.690  17.465  0.00  0.00    +0.000 OA
BRANCH  13  15
ATOM     15  O   UNL     1      37.818   7.769  18.582  0.00  0.00    +0.000 OA
BRANCH  15  17
ATOM     16  C   UNL     1      38.353   8.575  20.728  0.00  0.00    +0.000 C 
ATOM     17  C   UNL     1      37.532   8.843  19.481  0.00  0.00    +0.000 C 
ENDBRANCH  15  17
ENDBRANCH  13  15
ENDBRANCH   1  13
BRANCH   4  18
ATOM     18  C   UNL     1      37.584   3.928  15.453  0.00  0.00    +0.000 C 
BRANCH  18  19
ATOM     19  C   UNL     1      37.425   2.674  16.287  0.00  0.00    +0.000 C 
BRANCH  19  20
ATOM     20  C   UNL     1      36.364   1.750  15.728  0.00  0.00    +0.000 C 
BRANCH  20  21
ATOM     21  C   UNL     1      36.962   1.086  14.524  0.00  0.00    +0.000 A 
ATOM     22  C   UNL     1      38.137   0.369  14.618  0.00  0.00    +0.000 A 
ATOM     23  C   UNL     1      38.707  -0.250  13.526  0.00  0.00    +0.000 A 
ATOM     24  C   UNL     1      38.104  -0.165  12.295  0.00  0.00    +0.000 A 
ATOM     25  C   UNL     1      36.939   0.541  12.182  0.00  0.00    +0.000 A 
ATOM     26  C   UNL     1      36.374   1.157  13.278  0.00  0.00    +0.000 A 
ENDBRANCH  20  21
BRANCH  20  27
ATOM     27  C   UNL     1      35.909   0.763  16.730  0.00  0.00    +0.000 A 
ATOM     28  C   UNL     1      35.148  -0.328  16.353  0.00  0.00    +0.000 A 
ATOM     29  C   UNL     1      34.725  -1.241  17.266  0.00  0.00    +0.000 A 
ATOM     30  C   UNL     1      35.066  -1.068  18.590  0.00  0.00    +0.000 A 
ATOM     31  C   UNL     1      35.827   0.015  18.993  0.00  0.00    +0.000 A 
ATOM     32  C   UNL     1      36.250   0.936  18.054  0.00  0.00    +0.000 A 
ENDBRANCH  20  27
BRANCH  20  33
ATOM     33  C   UNL     1      35.236   2.592  15.339  0.00  0.00    +0.000 C 
ATOM     34  N   UNL     1      34.325   3.267  15.045  0.00  0.00    +0.000 NA
ENDBRANCH  20  33
ENDBRANCH  19  20
ENDBRANCH  18  19
ENDBRANCH   4  18
TORSDOF 10
ENDMDL
MODEL 2
REMARK VINA RESULT:      -7.5      5.731      8.966
REMARK  Name = 
REMARK  10 active torsions:
REMARK  status: ('A' for Active; 'I' for Inactive)
REMARK    1  A    between atoms: C_2  and  O_3
REMARK    2  A    between atoms: O_3  and  C_4
REMARK    3  A    between atoms: C_4  and  C_6
REMARK    4  A    between atoms: C_6  and  C_7
REMARK    5  A    between atoms: N_15  and  C_16
REMARK    6  A    between atoms: C_16  and  C_17
REMARK    7  A    between atoms: C_17  and  C_18
REMARK    8  A    between atoms: C_18  and  C_19
REMARK    9  A    between atoms: C_18  and  C_21
REMARK   10  A    between atoms: C_18  and  C_27
REMARK                            x       y       z     vdW  Elec       q    Type
REMARK                         _______ _______ _______ _____ _____    ______ ____
ROOT
ATOM      1  C   UNL     1      36.826  -1.344  15.523  0.00  0.00    +0.000 C 
ATOM      2  C   UNL     1      37.956  -1.366  16.544  0.00  0.00    +0.000 C 
ATOM      3  C   UNL     1      39.252  -1.831  15.985  0.00  0.00    +0.000 C 
ATOM      4  N   UNL     1      39.171  -2.922  15.070  0.00  0.00    +0.000 NA
ATOM      5  C   UNL     1      38.188  -2.763  14.025  0.00  0.00    +0.000 C 
ATOM      6  C   UNL     1      37.431  -1.461  14.149  0.00  0.00    +0.000 C 
ENDROOT
BRANCH   1   7
ATOM      7  C   UNL     1      36.113  -0.067  15.626  0.00  0.00    +0.000 A 
ATOM      8  C   UNL     1      36.091   0.821  14.544  0.00  0.00    +0.000 A 
ATOM      9  C   UNL     1      35.427   2.024  14.618  0.00  0.00    +0.000 A 
ATOM     10  C   UNL     1      34.757   2.403  15.764  0.00  0.00    +0.000 A 
ATOM     11  C   UNL     1      34.786   1.514  16.833  0.00  0.00    +0.000 A 
ATOM     12  C   UNL     1      35.443   0.311  16.773  0.00  0.00    +0.000 A 
ENDBRANCH   1   7
BRANCH   1  13
ATOM     13  C   UNL     1      35.974  -2.521  15.819  0.00  0.00    +0.000 C 
ATOM     14  O   UNL     1      36.186  -3.164  16.879  0.00  0.00    +0.000 OA
BRANCH  13  15
ATOM     15  O   UNL     1      34.960  -2.960  15.004  0.00  0.00    +0.000 OA
BRANCH  15  17
ATOM     16  C   UNL     1      33.812  -4.803  14.095  0.00  0.00    +0.000 C 
ATOM     17  C   UNL     1      34.147  -4.074  15.382  0.00  0.00    +0.000 C 
ENDBRANCH  15  17
ENDBRANCH  13  15
ENDBRANCH   1  13
BRANCH   4  18
ATOM     18  C   UNL     1      40.471  -3.008  14.393  0.00  0.00    +0.000 C 
BRANCH  18  19
ATOM     19  C   UNL     1      41.198  -1.723  14.730  0.00  0.00    +0.000 C 
BRANCH  19  20
ATOM     20  C   UNL     1      41.640  -0.977  13.490  0.00  0.00    +0.000 C 
BRANCH  20  21
ATOM     21  C   UNL     1      40.659   0.138  13.284  0.00  0.00    +0.000 A 
ATOM     22  C   UNL     1      39.999   0.291  12.082  0.00  0.00    +0.000 A 
ATOM     23  C   UNL     1      39.093   1.308  11.868  0.00  0.00    +0.000 A 
ATOM     24  C   UNL     1      38.822   2.210  12.868  0.00  0.00    +0.000 A 
ATOM     25  C   UNL     1      39.466   2.074  14.066  0.00  0.00    +0.000 A 
ATOM     26  C   UNL     1      40.371   1.055  14.274  0.00  0.00    +0.000 A 
ENDBRANCH  20  21
BRANCH  20  27
ATOM     27  C   UNL     1      43.024  -0.475  13.611  0.00  0.00    +0.000 A 
ATOM     28  C   UNL     1      43.628   0.197  12.564  0.00  0.00    +0.000 A 
ATOM     29  C   UNL     1      44.900   0.663  12.666  0.00  0.00    +0.000 A 
ATOM     30  C   UNL     1      45.593   0.458  13.840  0.00  0.00    +0.000 A 
ATOM     31  C   UNL     1      45.012  -0.211  14.903  0.00  0.00    +0.000 A 
ATOM     32  C   UNL     1      43.717  -0.680  14.784  0.00  0.00    +0.000 A 
ENDBRANCH  20  27
BRANCH  20  33
ATOM     33  C   UNL     1      41.571  -1.927  12.381  0.00  0.00    +0.000 C 
ATOM     34  N   UNL     1      41.511  -2.702  11.505  0.00  0.00    +0.000 NA
ENDBRANCH  20  33
ENDBRANCH  19  20
ENDBRANCH  18  19
ENDBRANCH   4  18
TORSDOF 10
ENDMDL
MODEL 3
REMARK VINA RESULT:      -7.3      3.465      7.599
REMARK  Name = 
REMARK  10 active torsions:
REMARK  status: ('A' for Active; 'I' for Inactive)
REMARK    1  A    between atoms: C_2  and  O_3
REMARK    2  A    between atoms: O_3  and  C_4
REMARK    3  A    between atoms: C_4  and  C_6
REMARK    4  A    between atoms: C_6  and  C_7
REMARK    5  A    between atoms: N_15  and  C_16
REMARK    6  A    between atoms: C_16  and  C_17
REMARK    7  A    between atoms: C_17  and  C_18
REMARK    8  A    between atoms: C_18  and  C_19
REMARK    9  A    between atoms: C_18  and  C_21
REMARK   10  A    between atoms: C_18  and  C_27
REMARK                            x       y       z     vdW  Elec       q    Type
REMARK                         _______ _______ _______ _____ _____    ______ ____
ROOT
ATOM      1  C   UNL     1      37.354   1.401  14.976  0.00  0.00    +0.000 C 
ATOM      2  C   UNL     1      36.963   1.377  13.504  0.00  0.00    +0.000 C 
ATOM      3  C   UNL     1      38.100   1.081  12.593  0.00  0.00    +0.000 C 
ATOM      4  N   UNL     1      39.339   1.698  12.934  0.00  0.00    +0.000 NA
ATOM      5  C   UNL     1      39.732   1.541  14.314  0.00  0.00    +0.000 C 
ATOM      6  C   UNL     1      38.711   0.764  15.113  0.00  0.00    +0.000 C 
ENDROOT
BRANCH   1   7
ATOM      7  C   UNL     1      36.378   0.620  15.743  0.00  0.00    +0.000 A 
ATOM      8  C   UNL     1      36.232  -0.753  15.512  0.00  0.00    +0.000 A 
ATOM      9  C   UNL     1      35.323  -1.504  16.221  0.00  0.00    +0.000 A 
ATOM     10  C   UNL     1      34.520  -0.934  17.187  0.00  0.00    +0.000 A 
ATOM     11  C   UNL     1      34.673   0.431  17.408  0.00  0.00    +0.000 A 
ATOM     12  C   UNL     1      35.575   1.193  16.710  0.00  0.00    +0.000 A 
ENDBRANCH   1   7
BRANCH   1  13
ATOM     13  C   UNL     1      37.408   2.830  15.370  0.00  0.00    +0.000 C 
ATOM     14  O   UNL     1      36.899   3.684  14.599  0.00  0.00    +0.000 OA
BRANCH  13  15
ATOM     15  O   UNL     1      37.980   3.286  16.531  0.00  0.00    +0.000 OA
BRANCH  15  17
ATOM     16  C   UNL     1      38.809   4.862  18.071  0.00  0.00    +0.000 C 
ATOM     17  C   UNL     1      38.554   4.593  16.600  0.00  0.00    +0.000 C 
ENDBRANCH  15  17
ENDBRANCH  13  15
ENDBRANCH   1  13
BRANCH   4  18
ATOM     18  C   UNL     1      40.380   1.034  12.140  0.00  0.00    +0.000 C 
BRANCH  18  19
ATOM     19  C   UNL     1      39.801  -0.308  11.741  0.00  0.00    +0.000 C 
BRANCH  19  20
ATOM     20  C   UNL     1      40.677  -1.460  12.186  0.00  0.00    +0.000 C 
BRANCH  20  21
ATOM     21  C   UNL     1      39.963  -2.132  13.320  0.00  0.00    +0.000 A 
ATOM     22  C   UNL     1      40.572  -2.289  14.548  0.00  0.00    +0.000 A 
ATOM     23  C   UNL     1      39.937  -2.904  15.607  0.00  0.00    +0.000 A 
ATOM     24  C   UNL     1      38.658  -3.383  15.458  0.00  0.00    +0.000 A 
ATOM     25  C   UNL     1      38.039  -3.236  14.248  0.00  0.00    +0.000 A 
ATOM     26  C   UNL     1      38.679  -2.620  13.194  0.00  0.00    +0.000 A 
ENDBRANCH  20  21
BRANCH  20  27
ATOM     27  C   UNL     1      40.957  -2.399  11.079  0.00  0.00    +0.000 A 
ATOM     28  C   UNL     1      40.480  -2.154   9.805  0.00  0.00    +0.000 A 
ATOM     29  C   UNL     1      40.733  -3.011   8.781  0.00  0.00    +0.000 A 
ATOM     30  C   UNL     1      41.480  -4.143   9.028  0.00  0.00    +0.000 A 
ATOM     31  C   UNL     1      41.968  -4.412  10.294  0.00  0.00    +0.000 A 
ATOM     32  C   UNL     1      41.704  -3.531  11.326  0.00  0.00    +0.000 A 
ENDBRANCH  20  27
BRANCH  20  33
ATOM     33  C   UNL     1      41.934  -0.878  12.648  0.00  0.00    +0.000 C 
ATOM     34  N   UNL     1      42.952  -0.424  13.010  0.00  0.00    +0.000 NA
ENDBRANCH  20  33
ENDBRANCH  19  20
ENDBRANCH  18  19
ENDBRANCH   4  18
TORSDOF 10
ENDMDL
MODEL 4
REMARK VINA RESULT:      -7.0      1.888      2.940
REMARK  Name = 
REMARK  10 active torsions:
REMARK  status: ('A' for Active; 'I' for Inactive)
REMARK    1  A    between atoms: C_2  and  O_3
REMARK    2  A    between atoms: O_3  and  C_4
REMARK    3  A    between atoms: C_4  and  C_6
REMARK    4  A    between atoms: C_6  and  C_7
REMARK    5  A    between atoms: N_15  and  C_16
REMARK    6  A    between atoms: C_16  and  C_17
REMARK    7  A    between atoms: C_17  and  C_18
REMARK    8  A    between atoms: C_18  and  C_19
REMARK    9  A    between atoms: C_18  and  C_21
REMARK   10  A    between atoms: C_18  and  C_27
REMARK                            x       y       z     vdW  Elec       q    Type
REMARK                         _______ _______ _______ _____ _____    ______ ____
ROOT
ATOM      1  C   UNL     1      39.131   5.647  16.310  0.00  0.00    +0.000 C 
ATOM      2  C   UNL     1      38.113   4.596  16.733  0.00  0.00    +0.000 C 
ATOM      3  C   UNL     1      38.020   3.449  15.793  0.00  0.00    +0.000 C 
ATOM      4  N   UNL     1      38.085   3.781  14.407  0.00  0.00    +0.000 NA
ATOM      5  C   UNL     1      39.176   4.654  14.046  0.00  0.00    +0.000 C 
ATOM      6  C   UNL     1      40.010   5.049  15.244  0.00  0.00    +0.000 C 
ENDROOT
BRANCH   1   7
ATOM      7  C   UNL     1      39.958   6.005  17.467  0.00  0.00    +0.000 A 
ATOM      8  C   UNL     1      39.393   6.081  18.745  0.00  0.00    +0.000 A 
ATOM      9  C   UNL     1      40.150   6.414  19.844  0.00  0.00    +0.000 A 
ATOM     10  C   UNL     1      41.498   6.685  19.730  0.00  0.00    +0.000 A 
ATOM     11  C   UNL     1      42.050   6.607  18.455  0.00  0.00    +0.000 A 
ATOM     12  C   UNL     1      41.308   6.276  17.351  0.00  0.00    +0.000 A 
ENDBRANCH   1   7
BRANCH   1  13
ATOM     13  C   UNL     1      38.354   6.786  15.765  0.00  0.00    +0.000 C 
ATOM     14  O   UNL     1      37.106   6.665  15.661  0.00  0.00    +0.000 OA
BRANCH  13  15
ATOM     15  O   UNL     1      38.910   7.975  15.363  0.00  0.00    +0.000 OA
BRANCH  15  17
ATOM     16  C   UNL     1      39.868   9.597  16.775  0.00  0.00    +0.000 C 
ATOM     17  C   UNL     1      38.603   9.194  16.042  0.00  0.00    +0.000 C 
ENDBRANCH  15  17
ENDBRANCH  13  15
ENDBRANCH   1  13
BRANCH   4  18
ATOM     18  C   UNL     1      38.311   2.527  13.678  0.00  0.00    +0.000 C 
BRANCH  18  19
ATOM     19  C   UNL     1      38.318   1.435  14.727  0.00  0.00    +0.000 C 
BRANCH  19  20
ATOM     20  C   UNL     1      37.691   0.154  14.219  0.00  0.00    +0.000 C 
BRANCH  20  21
ATOM     21  C   UNL     1      38.807  -0.832  14.043  0.00  0.00    +0.000 A 
ATOM     22  C   UNL     1      39.684  -1.103  15.073  0.00  0.00    +0.000 A 
ATOM     23  C   UNL     1      40.718  -2.005  14.937  0.00  0.00    +0.000 A 
ATOM     24  C   UNL     1      40.902  -2.666  13.747  0.00  0.00    +0.000 A 
ATOM     25  C   UNL     1      40.043  -2.410  12.715  0.00  0.00    +0.000 A 
ATOM     26  C   UNL     1      39.011  -1.507  12.858  0.00  0.00    +0.000 A 
ENDBRANCH  20  21
BRANCH  20  27
ATOM     27  C   UNL     1      36.650  -0.353  15.137  0.00  0.00    +0.000 A 
ATOM     28  C   UNL     1      36.014   0.495  16.023  0.00  0.00    +0.000 A 
ATOM     29  C   UNL     1      35.055   0.039  16.871  0.00  0.00    +0.000 A 
ATOM     30  C   UNL     1      34.717  -1.297  16.838  0.00  0.00    +0.000 A 
ATOM     31  C   UNL     1      35.338  -2.167  15.960  0.00  0.00    +0.000 A 
ATOM     32  C   UNL     1      36.312  -1.689  15.103  0.00  0.00    +0.000 A 
ENDBRANCH  20  27
BRANCH  20  33
ATOM     33  C   UNL     1      37.080   0.468  12.929  0.00  0.00    +0.000 C 
ATOM     34  N   UNL     1      36.599   0.736  11.895  0.00  0.00    +0.000 NA
ENDBRANCH  20  33
ENDBRANCH  19  20
ENDBRANCH  18  19
ENDBRANCH   4  18
TORSDOF 10
ENDMDL
MODEL 5
REMARK VINA RESULT:      -7.0      5.682      8.805
REMARK  Name = 
REMARK  10 active torsions:
REMARK  status: ('A' for Active; 'I' for Inactive)
REMARK    1  A    between atoms: C_2  and  O_3
REMARK    2  A    between atoms: O_3  and  C_4
REMARK    3  A    between atoms: C_4  and  C_6
REMARK    4  A    between atoms: C_6  and  C_7
REMARK    5  A    between atoms: N_15  and  C_16
REMARK    6  A    between atoms: C_16  and  C_17
REMARK    7  A    between atoms: C_17  and  C_18
REMARK    8  A    between atoms: C_18  and  C_19
REMARK    9  A    between atoms: C_18  and  C_21
REMARK   10  A    between atoms: C_18  and  C_27
REMARK                            x       y       z     vdW  Elec       q    Type
REMARK                         _______ _______ _______ _____ _____    ______ ____
ROOT
ATOM      1  C   UNL     1      37.545  -1.769  15.828  0.00  0.00    +0.000 C 
ATOM      2  C   UNL     1      37.023  -0.349  15.647  0.00  0.00    +0.000 C 
ATOM      3  C   UNL     1      37.923   0.516  14.841  0.00  0.00    +0.000 C 
ATOM      4  N   UNL     1      39.318   0.355  15.091  0.00  0.00    +0.000 NA
ATOM      5  C   UNL     1      39.779  -1.012  15.086  0.00  0.00    +0.000 C 
ATOM      6  C   UNL     1      38.655  -1.992  14.836  0.00  0.00    +0.000 C 
ENDROOT
BRANCH   1   7
ATOM      7  C   UNL     1      36.460  -2.716  15.554  0.00  0.00    +0.000 A 
ATOM      8  C   UNL     1      35.175  -2.487  16.060  0.00  0.00    +0.000 A 
ATOM      9  C   UNL     1      34.143  -3.362  15.814  0.00  0.00    +0.000 A 
ATOM     10  C   UNL     1      34.333  -4.501  15.058  0.00  0.00    +0.000 A 
ATOM     11  C   UNL     1      35.614  -4.719  14.561  0.00  0.00    +0.000 A 
ATOM     12  C   UNL     1      36.652  -3.855  14.797  0.00  0.00    +0.000 A 
ENDBRANCH   1   7
BRANCH   1  13
ATOM     13  C   UNL     1      38.063  -1.849  17.215  0.00  0.00    +0.000 C 
ATOM     14  O   UNL     1      38.771  -2.839  17.535  0.00  0.00    +0.000 OA
BRANCH  13  15
ATOM     15  O   UNL     1      37.820  -0.906  18.182  0.00  0.00    +0.000 OA
BRANCH  15  17
ATOM     16  C   UNL     1      35.739  -0.399  19.159  0.00  0.00    +0.000 C 
ATOM     17  C   UNL     1      37.008  -1.214  19.318  0.00  0.00    +0.000 C 
ENDBRANCH  15  17
ENDBRANCH  13  15
ENDBRANCH   1  13
BRANCH   4  18
ATOM     18  C   UNL     1      40.029   1.026  13.995  0.00  0.00    +0.000 C 
BRANCH  18  19
ATOM     19  C   UNL     1      39.072   1.023  12.820  0.00  0.00    +0.000 C 
BRANCH  19  20
ATOM     20  C   UNL     1      39.795   0.876  11.499  0.00  0.00    +0.000 C 
BRANCH  20  21
ATOM     21  C   UNL     1      40.395  -0.499  11.486  0.00  0.00    +0.000 A 
ATOM     22  C   UNL     1      41.763  -0.676  11.474  0.00  0.00    +0.000 A 
ATOM     23  C   UNL     1      42.339  -1.929  11.461  0.00  0.00    +0.000 A 
ATOM     24  C   UNL     1      41.546  -3.050  11.460  0.00  0.00    +0.000 A 
ATOM     25  C   UNL     1      40.188  -2.894  11.471  0.00  0.00    +0.000 A 
ATOM     26  C   UNL     1      39.618  -1.639  11.484  0.00  0.00    +0.000 A 
ENDBRANCH  20  21
BRANCH  20  27
ATOM     27  C   UNL     1      38.892   1.092  10.349  0.00  0.00    +0.000 A 
ATOM     28  C   UNL     1      39.362   0.997   9.053  0.00  0.00    +0.000 A 
ATOM     29  C   UNL     1      38.540   1.193   7.988  0.00  0.00    +0.000 A 
ATOM     30  C   UNL     1      37.214   1.491   8.217  0.00  0.00    +0.000 A 
ATOM     31  C   UNL     1      36.718   1.592   9.504  0.00  0.00    +0.000 A 
ATOM     32  C   UNL     1      37.566   1.390  10.577  0.00  0.00    +0.000 A 
ENDBRANCH  20  27
BRANCH  20  33
ATOM     33  C   UNL     1      40.845   1.891  11.479  0.00  0.00    +0.000 C 
ATOM     34  N   UNL     1      41.676   2.717  11.456  0.00  0.00    +0.000 NA
ENDBRANCH  20  33
ENDBRANCH  19  20
ENDBRANCH  18  19
ENDBRANCH   4  18
TORSDOF 10
ENDMDL
MODEL 6
REMARK VINA RESULT:      -6.9      3.128      8.763
REMARK  Name = 
REMARK  10 active torsions:
REMARK  status: ('A' for Active; 'I' for Inactive)
REMARK    1  A    between atoms: C_2  and  O_3
REMARK    2  A    between atoms: O_3  and  C_4
REMARK    3  A    between atoms: C_4  and  C_6
REMARK    4  A    between atoms: C_6  and  C_7
REMARK    5  A    between atoms: N_15  and  C_16
REMARK    6  A    between atoms: C_16  and  C_17
REMARK    7  A    between atoms: C_17  and  C_18
REMARK    8  A    between atoms: C_18  and  C_19
REMARK    9  A    between atoms: C_18  and  C_21
REMARK   10  A    between atoms: C_18  and  C_27
REMARK                            x       y       z     vdW  Elec       q    Type
REMARK                         _______ _______ _______ _____ _____    ______ ____
ROOT
ATOM      1  C   UNL     1      36.849  -0.806  16.013  0.00  0.00    +0.000 C 
ATOM      2  C   UNL     1      36.226   0.069  17.093  0.00  0.00    +0.000 C 
ATOM      3  C   UNL     1      36.257   1.520  16.772  0.00  0.00    +0.000 C 
ATOM      4  N   UNL     1      37.455   1.989  16.156  0.00  0.00    +0.000 NA
ATOM      5  C   UNL     1      37.902   1.204  15.030  0.00  0.00    +0.000 C 
ATOM      6  C   UNL     1      36.997   0.022  14.764  0.00  0.00    +0.000 C 
ENDROOT
BRANCH   1   7
ATOM      7  C   UNL     1      35.953  -1.934  15.736  0.00  0.00    +0.000 A 
ATOM      8  C   UNL     1      36.275  -2.867  14.744  0.00  0.00    +0.000 A 
ATOM      9  C   UNL     1      35.450  -3.933  14.469  0.00  0.00    +0.000 A 
ATOM     10  C   UNL     1      34.272  -4.124  15.161  0.00  0.00    +0.000 A 
ATOM     11  C   UNL     1      33.961  -3.191  16.145  0.00  0.00    +0.000 A 
ATOM     12  C   UNL     1      34.774  -2.124  16.431  0.00  0.00    +0.000 A 
ENDBRANCH   1   7
BRANCH   1  13
ATOM     13  C   UNL     1      38.178  -1.219  16.525  0.00  0.00    +0.000 C 
ATOM     14  O   UNL     1      38.262  -1.633  17.710  0.00  0.00    +0.000 OA
BRANCH  13  15
ATOM     15  O   UNL     1      39.333  -1.179  15.785  0.00  0.00    +0.000 OA
BRANCH  15  17
ATOM     16  C   UNL     1      39.803  -2.592  13.962  0.00  0.00    +0.000 C 
ATOM     17  C   UNL     1      40.028  -2.381  15.447  0.00  0.00    +0.000 C 
ENDBRANCH  15  17
ENDBRANCH  13  15
ENDBRANCH   1  13
BRANCH   4  18
ATOM     18  C   UNL     1      37.167   3.327  15.627  0.00  0.00    +0.000 C 
BRANCH  18  19
ATOM     19  C   UNL     1      37.615   4.300  16.698  0.00  0.00    +0.000 C 
BRANCH  19  20
ATOM     20  C   UNL     1      38.619   5.303  16.171  0.00  0.00    +0.000 C 
BRANCH  20  21
ATOM     21  C   UNL     1      37.832   6.471  15.655  0.00  0.00    +0.000 A 
ATOM     22  C   UNL     1      37.175   6.404  14.444  0.00  0.00    +0.000 A 
ATOM     23  C   UNL     1      36.446   7.464  13.947  0.00  0.00    +0.000 A 
ATOM     24  C   UNL     1      36.356   8.632  14.663  0.00  0.00    +0.000 A 
ATOM     25  C   UNL     1      37.000   8.717  15.865  0.00  0.00    +0.000 A 
ATOM     26  C   UNL     1      37.728   7.654  16.356  0.00  0.00    +0.000 A 
ENDBRANCH  20  21
BRANCH  20  27
ATOM     27  C   UNL     1      39.589   5.710  17.209  0.00  0.00    +0.000 A 
ATOM     28  C   UNL     1      39.253   5.664  18.549  0.00  0.00    +0.000 A 
ATOM     29  C   UNL     1      40.138   6.036  19.511  0.00  0.00    +0.000 A 
ATOM     30  C   UNL     1      41.392   6.464  19.133  0.00  0.00    +0.000 A 
ATOM     31  C   UNL     1      41.754   6.520  17.798  0.00  0.00    +0.000 A 
ATOM     32  C   UNL     1      40.843   6.139  16.831  0.00  0.00    +0.000 A 
ENDBRANCH  20  27
BRANCH  20  33
ATOM     33  C   UNL     1      39.335   4.648  15.079  0.00  0.00    +0.000 C 
ATOM     34  N   UNL     1      39.925   4.127  14.211  0.00  0.00    +0.000 NA
ENDBRANCH  20  33
ENDBRANCH  19  20
ENDBRANCH  18  19
ENDBRANCH   4  18
TORSDOF 10
ENDMDL
MODEL 7
REMARK VINA RESULT:      -6.9      5.315      8.349
REMARK  Name = 
REMARK  10 active torsions:
REMARK  status: ('A' for Active; 'I' for Inactive)
REMARK    1  A    between atoms: C_2  and  O_3
REMARK    2  A    between atoms: O_3  and  C_4
REMARK    3  A    between atoms: C_4  and  C_6
REMARK    4  A    between atoms: C_6  and  C_7
REMARK    5  A    between atoms: N_15  and  C_16
REMARK    6  A    between atoms: C_16  and  C_17
REMARK    7  A    between atoms: C_17  and  C_18
REMARK    8  A    between atoms: C_18  and  C_19
REMARK    9  A    between atoms: C_18  and  C_21
REMARK   10  A    between atoms: C_18  and  C_27
REMARK                            x       y       z     vdW  Elec       q    Type
REMARK                         _______ _______ _______ _____ _____    ______ ____
ROOT
ATOM      1  C   UNL     1      37.327  -0.791  15.500  0.00  0.00    +0.000 C 
ATOM      2  C   UNL     1      36.533  -0.887  14.203  0.00  0.00    +0.000 C 
ATOM      3  C   UNL     1      37.077  -0.039  13.110  0.00  0.00    +0.000 C 
ATOM      4  N   UNL     1      37.539   1.251  13.504  0.00  0.00    +0.000 NA
ATOM      5  C   UNL     1      38.424   1.254  14.644  0.00  0.00    +0.000 C 
ATOM      6  C   UNL     1      38.648  -0.137  15.194  0.00  0.00    +0.000 C 
ENDROOT
BRANCH   1   7
ATOM      7  C   UNL     1      37.569  -2.143  16.013  0.00  0.00    +0.000 A 
ATOM      8  C   UNL     1      38.813  -2.482  16.557  0.00  0.00    +0.000 A 
ATOM      9  C   UNL     1      39.061  -3.744  17.045  0.00  0.00    +0.000 A 
ATOM     10  C   UNL     1      38.092  -4.726  17.018  0.00  0.00    +0.000 A 
ATOM     11  C   UNL     1      36.859  -4.379  16.475  0.00  0.00    +0.000 A 
ATOM     12  C   UNL     1      36.597  -3.125  15.985  0.00  0.00    +0.000 A 
ENDBRANCH   1   7
BRANCH   1  13
ATOM     13  C   UNL     1      36.527   0.055  16.418  0.00  0.00    +0.000 C 
ATOM     14  O   UNL     1      36.977   0.281  17.571  0.00  0.00    +0.000 OA
BRANCH  13  15
ATOM     15  O   UNL     1      35.317   0.614  16.090  0.00  0.00    +0.000 OA
BRANCH  15  17
ATOM     16  C   UNL     1      34.761   2.731  15.226  0.00  0.00    +0.000 C 
ATOM     17  C   UNL     1      34.988   1.943  16.501  0.00  0.00    +0.000 C 
ENDBRANCH  15  17
ENDBRANCH  13  15
ENDBRANCH   1  13
BRANCH   4  18
ATOM     18  C   UNL     1      38.324   1.784  12.383  0.00  0.00    +0.000 C 
BRANCH  18  19
ATOM     19  C   UNL     1      38.424   0.655  11.377  0.00  0.00    +0.000 C 
BRANCH  19  20
ATOM     20  C   UNL     1      39.861   0.335  11.024  0.00  0.00    +0.000 C 
BRANCH  20  21
ATOM     21  C   UNL     1      40.323  -0.705  12.000  0.00  0.00    +0.000 A 
ATOM     22  C   UNL     1      41.416  -0.480  12.812  0.00  0.00    +0.000 A 
ATOM     23  C   UNL     1      41.861  -1.420  13.717  0.00  0.00    +0.000 A 
ATOM     24  C   UNL     1      41.213  -2.626  13.832  0.00  0.00    +0.000 A 
ATOM     25  C   UNL     1      40.128  -2.866  13.036  0.00  0.00    +0.000 A 
ATOM     26  C   UNL     1      39.688  -1.922  12.133  0.00  0.00    +0.000 A 
ENDBRANCH  20  21
BRANCH  20  27
ATOM     27  C   UNL     1      39.996  -0.126   9.626  0.00  0.00    +0.000 A 
ATOM     28  C   UNL     1      40.826  -1.184   9.307  0.00  0.00    +0.000 A 
ATOM     29  C   UNL     1      40.956  -1.615   8.025  0.00  0.00    +0.000 A 
ATOM     30  C   UNL     1      40.243  -0.980   7.032  0.00  0.00    +0.000 A 
ATOM     31  C   UNL     1      39.405   0.081   7.324  0.00  0.00    +0.000 A 
ATOM     32  C   UNL     1      39.282   0.510   8.633  0.00  0.00    +0.000 A 
ENDBRANCH  20  27
BRANCH  20  33
ATOM     33  C   UNL     1      40.622   1.570  11.196  0.00  0.00    +0.000 C 
ATOM     34  N   UNL     1      41.235   2.561  11.315  0.00  0.00    +0.000 NA
ENDBRANCH  20  33
ENDBRANCH  19  20
ENDBRANCH  18  19
ENDBRANCH   4  18
TORSDOF 10
ENDMDL
MODEL 8
REMARK VINA RESULT:      -6.9      3.671      8.985
REMARK  Name = 
REMARK  10 active torsions:
REMARK  status: ('A' for Active; 'I' for Inactive)
REMARK    1  A    between atoms: C_2  and  O_3
REMARK    2  A    between atoms: O_3  and  C_4
REMARK    3  A    between atoms: C_4  and  C_6
REMARK    4  A    between atoms: C_6  and  C_7
REMARK    5  A    between atoms: N_15  and  C_16
REMARK    6  A    between atoms: C_16  and  C_17
REMARK    7  A    between atoms: C_17  and  C_18
REMARK    8  A    between atoms: C_18  and  C_19
REMARK    9  A    between atoms: C_18  and  C_21
REMARK   10  A    between atoms: C_18  and  C_27
REMARK                            x       y       z     vdW  Elec       q    Type
REMARK                         _______ _______ _______ _____ _____    ______ ____
ROOT
ATOM      1  C   UNL     1      36.392  -2.476  15.949  0.00  0.00    +0.000 C 
ATOM      2  C   UNL     1      35.648  -1.698  17.027  0.00  0.00    +0.000 C 
ATOM      3  C   UNL     1      35.445  -0.265  16.691  0.00  0.00    +0.000 C 
ATOM      4  N   UNL     1      36.546   0.381  16.056  0.00  0.00    +0.000 NA
ATOM      5  C   UNL     1      37.101  -0.336  14.933  0.00  0.00    +0.000 C 
ATOM      6  C   UNL     1      36.394  -1.650  14.690  0.00  0.00    +0.000 C 
ENDROOT
BRANCH   1   7
ATOM      7  C   UNL     1      35.686  -3.735  15.694  0.00  0.00    +0.000 A 
ATOM      8  C   UNL     1      36.092  -4.916  16.327  0.00  0.00    +0.000 A 
ATOM      9  C   UNL     1      35.442  -6.108  16.104  0.00  0.00    +0.000 A 
ATOM     10  C   UNL     1      34.364  -6.187  15.246  0.00  0.00    +0.000 A 
ATOM     11  C   UNL     1      33.969  -5.008  14.622  0.00  0.00    +0.000 A 
ATOM     12  C   UNL     1      34.606  -3.812  14.836  0.00  0.00    +0.000 A 
ENDBRANCH   1   7
BRANCH   1  13
ATOM     13  C   UNL     1      37.775  -2.665  16.449  0.00  0.00    +0.000 C 
ATOM     14  O   UNL     1      38.606  -3.250  15.708  0.00  0.00    +0.000 OA
BRANCH  13  15
ATOM     15  O   UNL     1      38.212  -2.241  17.679  0.00  0.00    +0.000 OA
BRANCH  15  17
ATOM     16  C   UNL     1      37.819  -2.651  19.963  0.00  0.00    +0.000 C 
ATOM     17  C   UNL     1      38.503  -3.180  18.717  0.00  0.00    +0.000 C 
ENDBRANCH  15  17
ENDBRANCH  13  15
ENDBRANCH   1  13
BRANCH   4  18
ATOM     18  C   UNL     1      36.043   1.650  15.516  0.00  0.00    +0.000 C 
BRANCH  18  19
ATOM     19  C   UNL     1      36.741   2.740  16.304  0.00  0.00    +0.000 C 
BRANCH  19  20
ATOM     20  C   UNL     1      37.486   3.703  15.405  0.00  0.00    +0.000 C 
BRANCH  20  21
ATOM     21  C   UNL     1      38.363   4.532  16.296  0.00  0.00    +0.000 A 
ATOM     22  C   UNL     1      38.313   4.396  17.668  0.00  0.00    +0.000 A 
ATOM     23  C   UNL     1      39.108   5.147  18.508  0.00  0.00    +0.000 A 
ATOM     24  C   UNL     1      39.985   6.066  17.986  0.00  0.00    +0.000 A 
ATOM     25  C   UNL     1      40.048   6.215  16.628  0.00  0.00    +0.000 A 
ATOM     26  C   UNL     1      39.251   5.461  15.794  0.00  0.00    +0.000 A 
ENDBRANCH  20  21
BRANCH  20  27
ATOM     27  C   UNL     1      38.268   2.998  14.368  0.00  0.00    +0.000 A 
ATOM     28  C   UNL     1      39.420   2.309  14.696  0.00  0.00    +0.000 A 
ATOM     29  C   UNL     1      40.145   1.656  13.750  0.00  0.00    +0.000 A 
ATOM     30  C   UNL     1      39.715   1.688  12.441  0.00  0.00    +0.000 A 
ATOM     31  C   UNL     1      38.565   2.371  12.086  0.00  0.00    +0.000 A 
ATOM     32  C   UNL     1      37.838   3.030  13.059  0.00  0.00    +0.000 A 
ENDBRANCH  20  27
BRANCH  20  33
ATOM     33  C   UNL     1      36.479   4.540  14.759  0.00  0.00    +0.000 C 
ATOM     34  N   UNL     1      35.679   5.209  14.223  0.00  0.00    +0.000 NA
ENDBRANCH  20  33
ENDBRANCH  19  20
ENDBRANCH  18  19
ENDBRANCH   4  18
TORSDOF 10
ENDMDL
MODEL 9
REMARK VINA RESULT:      -6.9     22.745     25.023
REMARK  Name = 
REMARK  10 active torsions:
REMARK  status: ('A' for Active; 'I' for Inactive)
REMARK    1  A    between atoms: C_2  and  O_3
REMARK    2  A    between atoms: O_3  and  C_4
REMARK    3  A    between atoms: C_4  and  C_6
REMARK    4  A    between atoms: C_6  and  C_7
REMARK    5  A    between atoms: N_15  and  C_16
REMARK    6  A    between atoms: C_16  and  C_17
REMARK    7  A    between atoms: C_17  and  C_18
REMARK    8  A    between atoms: C_18  and  C_19
REMARK    9  A    between atoms: C_18  and  C_21
REMARK   10  A    between atoms: C_18  and  C_27
REMARK                            x       y       z     vdW  Elec       q    Type
REMARK                         _______ _______ _______ _____ _____    ______ ____
ROOT
ATOM      1  C   UNL     1      30.803  15.217  35.995  0.00  0.00    +0.000 C 
ATOM      2  C   UNL     1      30.598  16.516  36.764  0.00  0.00    +0.000 C 
ATOM      3  C   UNL     1      29.363  17.246  36.377  0.00  0.00    +0.000 C 
ATOM      4  N   UNL     1      29.063  17.253  34.983  0.00  0.00    +0.000 NA
ATOM      5  C   UNL     1      29.115  15.958  34.347  0.00  0.00    +0.000 C 
ATOM      6  C   UNL     1      29.507  14.864  35.314  0.00  0.00    +0.000 C 
ENDROOT
BRANCH   1   7
ATOM      7  C   UNL     1      31.152  14.151  36.940  0.00  0.00    +0.000 A 
ATOM      8  C   UNL     1      31.893  13.042  36.516  0.00  0.00    +0.000 A 
ATOM      9  C   UNL     1      32.232  12.032  37.386  0.00  0.00    +0.000 A 
ATOM     10  C   UNL     1      31.856  12.073  38.713  0.00  0.00    +0.000 A 
ATOM     11  C   UNL     1      31.120  13.180  39.125  0.00  0.00    +0.000 A 
ATOM     12  C   UNL     1      30.775  14.194  38.269  0.00  0.00    +0.000 A 
ENDBRANCH   1   7
BRANCH   1  13
ATOM     13  C   UNL     1      31.861  15.487  34.992  0.00  0.00    +0.000 C 
ATOM     14  O   UNL     1      32.010  14.674  34.044  0.00  0.00    +0.000 OA
BRANCH  13  15
ATOM     15  O   UNL     1      32.696  16.575  35.031  0.00  0.00    +0.000 OA
BRANCH  15  17
ATOM     16  C   UNL     1      34.364  17.066  36.618  0.00  0.00    +0.000 C 
ATOM     17  C   UNL     1      34.096  16.416  35.274  0.00  0.00    +0.000 C 
ENDBRANCH  15  17
ENDBRANCH  13  15
ENDBRANCH   1  13
BRANCH   4  18
ATOM     18  C   UNL     1      27.677  17.715  34.847  0.00  0.00    +0.000 C 
BRANCH  18  19
ATOM     19  C   UNL     1      27.103  17.716  36.248  0.00  0.00    +0.000 C 
BRANCH  19  20
ATOM     20  C   UNL     1      25.752  17.036  36.310  0.00  0.00    +0.000 C 
BRANCH  20  21
ATOM     21  C   UNL     1      25.532  16.391  34.975  0.00  0.00    +0.000 A 
ATOM     22  C   UNL     1      24.989  17.101  33.924  0.00  0.00    +0.000 A 
ATOM     23  C   UNL     1      24.776  16.530  32.687  0.00  0.00    +0.000 A 
ATOM     24  C   UNL     1      25.109  15.215  32.470  0.00  0.00    +0.000 A 
ATOM     25  C   UNL     1      25.649  14.496  33.499  0.00  0.00    +0.000 A 
ATOM     26  C   UNL     1      25.858  15.072  34.734  0.00  0.00    +0.000 A 
ENDBRANCH  20  21
BRANCH  20  27
ATOM     27  C   UNL     1      25.678  16.055  37.413  0.00  0.00    +0.000 A 
ATOM     28  C   UNL     1      26.828  15.561  37.999  0.00  0.00    +0.000 A 
ATOM     29  C   UNL     1      26.771  14.660  39.014  0.00  0.00    +0.000 A 
ATOM     30  C   UNL     1      25.538  14.237  39.461  0.00  0.00    +0.000 A 
ATOM     31  C   UNL     1      24.371  14.715  38.892  0.00  0.00    +0.000 A 
ATOM     32  C   UNL     1      24.445  15.632  37.860  0.00  0.00    +0.000 A 
ENDBRANCH  20  27
BRANCH  20  33
ATOM     33  C   UNL     1      24.762  18.087  36.538  0.00  0.00    +0.000 C 
ATOM     34  N   UNL     1      23.976  18.932  36.737  0.00  0.00    +0.000 NA
ENDBRANCH  20  33
ENDBRANCH  19  20
ENDBRANCH  18  19
ENDBRANCH   4  18
TORSDOF 10
ENDMDL
MODEL 10
REMARK VINA RESULT:      -6.9      3.801      7.108
REMARK  Name = 
REMARK  10 active torsions:
REMARK  status: ('A' for Active; 'I' for Inactive)
REMARK    1  A    between atoms: C_2  and  O_3
REMARK    2  A    between atoms: O_3  and  C_4
REMARK    3  A    between atoms: C_4  and  C_6
REMARK    4  A    between atoms: C_6  and  C_7
REMARK    5  A    between atoms: N_15  and  C_16
REMARK    6  A    between atoms: C_16  and  C_17
REMARK    7  A    between atoms: C_17  and  C_18
REMARK    8  A    between atoms: C_18  and  C_19
REMARK    9  A    between atoms: C_18  and  C_21
REMARK   10  A    between atoms: C_18  and  C_27
REMARK                            x       y       z     vdW  Elec       q    Type
REMARK                         _______ _______ _______ _____ _____    ______ ____
ROOT
ATOM      1  C   UNL     1      37.714   1.686  14.721  0.00  0.00    +0.000 C 
ATOM      2  C   UNL     1      37.277   1.667  13.262  0.00  0.00    +0.000 C 
ATOM      3  C   UNL     1      38.339   1.207  12.330  0.00  0.00    +0.000 C 
ATOM      4  N   UNL     1      39.654   1.677  12.615  0.00  0.00    +0.000 NA
ATOM      5  C   UNL     1      40.070   1.514  13.988  0.00  0.00    +0.000 C 
ATOM      6  C   UNL     1      38.987   0.891  14.840  0.00  0.00    +0.000 C 
ENDROOT
BRANCH   1   7
ATOM      7  C   UNL     1      36.676   1.054  15.540  0.00  0.00    +0.000 A 
ATOM      8  C   UNL     1      36.755  -0.307  15.858  0.00  0.00    +0.000 A 
ATOM      9  C   UNL     1      35.792  -0.920  16.626  0.00  0.00    +0.000 A 
ATOM     10  C   UNL     1      34.709  -0.217  17.113  0.00  0.00    +0.000 A 
ATOM     11  C   UNL     1      34.639   1.134  16.791  0.00  0.00    +0.000 A 
ATOM     12  C   UNL     1      35.592   1.759  16.027  0.00  0.00    +0.000 A 
ENDBRANCH   1   7
BRANCH   1  13
ATOM     13  C   UNL     1      37.954   3.108  15.066  0.00  0.00    +0.000 C 
ATOM     14  O   UNL     1      37.571   3.994  14.259  0.00  0.00    +0.000 OA
BRANCH  13  15
ATOM     15  O   UNL     1      38.572   3.526  16.218  0.00  0.00    +0.000 OA
BRANCH  15  17
ATOM     16  C   UNL     1      38.926   4.922  18.080  0.00  0.00    +0.000 C 
ATOM     17  C   UNL     1      37.867   4.306  17.186  0.00  0.00    +0.000 C 
ENDBRANCH  15  17
ENDBRANCH  13  15
ENDBRANCH   1  13
BRANCH   4  18
ATOM     18  C   UNL     1      40.580   0.867  11.814  0.00  0.00    +0.000 C 
BRANCH  18  19
ATOM     19  C   UNL     1      41.399   0.071  12.809  0.00  0.00    +0.000 C 
BRANCH  19  20
ATOM     20  C   UNL     1      41.309  -1.419  12.557  0.00  0.00    +0.000 C 
BRANCH  20  21
ATOM     21  C   UNL     1      42.676  -1.983  12.808  0.00  0.00    +0.000 A 
ATOM     22  C   UNL     1      43.625  -1.259  13.499  0.00  0.00    +0.000 A 
ATOM     23  C   UNL     1      44.889  -1.755  13.742  0.00  0.00    +0.000 A 
ATOM     24  C   UNL     1      45.236  -3.005  13.292  0.00  0.00    +0.000 A 
ATOM     25  C   UNL     1      44.308  -3.736  12.606  0.00  0.00    +0.000 A 
ATOM     26  C   UNL     1      43.046  -3.235  12.365  0.00  0.00    +0.000 A 
ENDBRANCH  20  21
BRANCH  20  27
ATOM     27  C   UNL     1      40.285  -2.062  13.407  0.00  0.00    +0.000 A 
ATOM     28  C   UNL     1      40.535  -2.321  14.742  0.00  0.00    +0.000 A 
ATOM     29  C   UNL     1      39.600  -2.910  15.532  0.00  0.00    +0.000 A 
ATOM     30  C   UNL     1      38.383  -3.252  14.984  0.00  0.00    +0.000 A 
ATOM     31  C   UNL     1      38.108  -3.005  13.651  0.00  0.00    +0.000 A 
ATOM     32  C   UNL     1      39.068  -2.404  12.858  0.00  0.00    +0.000 A 
ENDBRANCH  20  27
BRANCH  20  33
ATOM     33  C   UNL     1      40.938  -1.586  11.153  0.00  0.00    +0.000 C 
ATOM     34  N   UNL     1      40.654  -1.734  10.026  0.00  0.00    +0.000 NA
ENDBRANCH  20  33
ENDBRANCH  19  20
ENDBRANCH  18  19
ENDBRANCH   4  18
TORSDOF 10
ENDMDL
