MODEL 1
REMARK VINA RESULT:      -8.8      0.000      0.000
REMARK  Name = 
REMARK  7 active torsions:
REMARK  status: ('A' for Active; 'I' for Inactive)
REMARK    1  A    between atoms: C_5  and  N_6
REMARK    2  A    between atoms: C_7  and  C_8
REMARK    3  A    between atoms: C_8  and  C_9
REMARK    4  A    between atoms: C_17  and  S_18
REMARK    5  A    between atoms: S_18  and  C_19
REMARK    6  A    between atoms: C_19  and  C_20
REMARK    7  A    between atoms: N_22  and  C_23
REMARK                            x       y       z     vdW  Elec       q    Type
REMARK                         _______ _______ _______ _____ _____    ______ ____
ROOT
ATOM      1  N   UNL     1      36.201   0.879  15.451  0.00  0.00    +0.000 N 
ATOM      2  C   UNL     1      35.356   0.260  16.279  0.00  0.00    +0.000 A 
ATOM      3  N   UNL     1      34.634   1.186  16.958  0.00  0.00    +0.000 NA
ATOM      4  N   UNL     1      35.028   2.370  16.551  0.00  0.00    +0.000 NA
ATOM      5  C   UNL     1      35.985   2.208  15.632  0.00  0.00    +0.000 A 
ENDROOT
BRANCH   1  10
ATOM      6  C   UNL     1      40.056  -1.190  11.756  0.00  0.00    +0.000 C 
ATOM      7  C   UNL     1      39.108  -0.658  12.751  0.00  0.00    +0.000 A 
ATOM      8  C   UNL     1      37.821  -0.380  12.337  0.00  0.00    +0.000 A 
ATOM      9  C   UNL     1      36.883   0.123  13.225  0.00  0.00    +0.000 A 
ATOM     10  C   UNL     1      37.170   0.369  14.546  0.00  0.00    +0.000 A 
ATOM     11  C   UNL     1      38.472   0.085  14.956  0.00  0.00    +0.000 A 
ATOM     12  C   UNL     1      39.406  -0.414  14.070  0.00  0.00    +0.000 A 
ENDBRANCH   1  10
BRANCH   2  13
ATOM     13  C   UNL     1      35.232  -1.220  16.400  0.00  0.00    +0.000 C 
BRANCH  13  14
ATOM     14  C   UNL     1      36.332  -1.702  17.288  0.00  0.00    +0.000 A 
ATOM     15  C   UNL     1      37.235  -2.668  16.825  0.00  0.00    +0.000 A 
ATOM     16  C   UNL     1      38.253  -3.109  17.648  0.00  0.00    +0.000 A 
ATOM     17  C   UNL     1      38.439  -2.644  18.923  0.00  0.00    +0.000 A 
ATOM     18  C   UNL     1      37.553  -1.687  19.390  0.00  0.00    +0.000 A 
ATOM     19  C   UNL     1      36.536  -1.248  18.569  0.00  0.00    +0.000 A 
ENDBRANCH  13  14
ENDBRANCH   2  13
BRANCH   5  20
ATOM     20  S   UNL     1      36.835   3.517  14.788  0.00  0.00    +0.000 S 
BRANCH  20  21
ATOM     21  C   UNL     1      38.549   3.612  15.361  0.00  0.00    +0.000 C 
BRANCH  21  22
ATOM     22  C   UNL     1      38.545   4.314  16.664  0.00  0.00    +0.000 C 
ATOM     23  O   UNL     1      37.953   3.790  17.631  0.00  0.00    +0.000 OA
ATOM     24  N   UNL     1      39.197   5.549  16.807  0.00  0.00    +0.000 NA
BRANCH  24  25
ATOM     25  C   UNL     1      39.226   6.281  18.053  0.00  0.00    +0.000 A 
ATOM     26  C   UNL     1      40.260   6.049  18.922  0.00  0.00    +0.000 A 
ATOM     27  C   UNL     1      40.330   6.714  20.105  0.00  0.00    +0.000 A 
ATOM     28  C   UNL     1      39.350   7.629  20.433  0.00  0.00    +0.000 A 
ATOM     29  C   UNL     1      38.316   7.858  19.562  0.00  0.00    +0.000 A 
ATOM     30  C   UNL     1      37.274   8.864  19.961  0.00  0.00    +0.000 C 
ATOM     31  C   UNL     1      38.248   7.185  18.367  0.00  0.00    +0.000 A 
ENDBRANCH  24  25
ENDBRANCH  21  22
ENDBRANCH  20  21
ENDBRANCH   5  20
TORSDOF 7
ENDMDL
MODEL 2
REMARK VINA RESULT:      -8.7      1.130      1.965
REMARK  Name = 
REMARK  7 active torsions:
REMARK  status: ('A' for Active; 'I' for Inactive)
REMARK    1  A    between atoms: C_5  and  N_6
REMARK    2  A    between atoms: C_7  and  C_8
REMARK    3  A    between atoms: C_8  and  C_9
REMARK    4  A    between atoms: C_17  and  S_18
REMARK    5  A    between atoms: S_18  and  C_19
REMARK    6  A    between atoms: C_19  and  C_20
REMARK    7  A    between atoms: N_22  and  C_23
REMARK                            x       y       z     vdW  Elec       q    Type
REMARK                         _______ _______ _______ _____ _____    ______ ____
ROOT
ATOM      1  N   UNL     1      36.200   0.621  15.623  0.00  0.00    +0.000 N 
ATOM      2  C   UNL     1      35.206   0.257  16.438  0.00  0.00    +0.000 A 
ATOM      3  N   UNL     1      34.525   1.361  16.836  0.00  0.00    +0.000 NA
ATOM      4  N   UNL     1      35.093   2.400  16.269  0.00  0.00    +0.000 NA
ATOM      5  C   UNL     1      36.117   1.973  15.525  0.00  0.00    +0.000 A 
ENDROOT
BRANCH   1  10
ATOM      6  C   UNL     1      40.165  -2.488  12.903  0.00  0.00    +0.000 C 
ATOM      7  C   UNL     1      39.188  -1.674  13.647  0.00  0.00    +0.000 A 
ATOM      8  C   UNL     1      37.919  -1.540  13.117  0.00  0.00    +0.000 A 
ATOM      9  C   UNL     1      36.955  -0.788  13.769  0.00  0.00    +0.000 A 
ATOM     10  C   UNL     1      37.196  -0.144  14.959  0.00  0.00    +0.000 A 
ATOM     11  C   UNL     1      38.479  -0.286  15.486  0.00  0.00    +0.000 A 
ATOM     12  C   UNL     1      39.439  -1.034  14.836  0.00  0.00    +0.000 A 
ENDBRANCH   1  10
BRANCH   2  13
ATOM     13  C   UNL     1      34.903  -1.153  16.815  0.00  0.00    +0.000 C 
BRANCH  13  14
ATOM     14  C   UNL     1      36.064  -1.679  17.592  0.00  0.00    +0.000 A 
ATOM     15  C   UNL     1      36.479  -1.028  18.761  0.00  0.00    +0.000 A 
ATOM     16  C   UNL     1      37.551  -1.521  19.481  0.00  0.00    +0.000 A 
ATOM     17  C   UNL     1      38.250  -2.639  19.110  0.00  0.00    +0.000 A 
ATOM     18  C   UNL     1      37.847  -3.291  17.956  0.00  0.00    +0.000 A 
ATOM     19  C   UNL     1      36.779  -2.799  17.238  0.00  0.00    +0.000 A 
ENDBRANCH  13  14
ENDBRANCH   2  13
BRANCH   5  20
ATOM     20  S   UNL     1      37.196   3.006  14.568  0.00  0.00    +0.000 S 
BRANCH  20  21
ATOM     21  C   UNL     1      37.157   4.700  15.203  0.00  0.00    +0.000 C 
BRANCH  21  22
ATOM     22  C   UNL     1      38.207   4.811  16.240  0.00  0.00    +0.000 C 
ATOM     23  O   UNL     1      38.650   3.769  16.768  0.00  0.00    +0.000 OA
ATOM     24  N   UNL     1      38.698   6.070  16.622  0.00  0.00    +0.000 NA
BRANCH  24  25
ATOM     25  C   UNL     1      39.721   6.242  17.627  0.00  0.00    +0.000 A 
ATOM     26  C   UNL     1      39.349   6.223  18.946  0.00  0.00    +0.000 A 
ATOM     27  C   UNL     1      40.276   6.380  19.927  0.00  0.00    +0.000 A 
ATOM     28  C   UNL     1      41.603   6.559  19.591  0.00  0.00    +0.000 A 
ATOM     29  C   UNL     1      41.973   6.579  18.270  0.00  0.00    +0.000 A 
ATOM     30  C   UNL     1      43.428   6.775  17.952  0.00  0.00    +0.000 C 
ATOM     31  C   UNL     1      41.033   6.419  17.281  0.00  0.00    +0.000 A 
ENDBRANCH  24  25
ENDBRANCH  21  22
ENDBRANCH  20  21
ENDBRANCH   5  20
TORSDOF 7
ENDMDL
MODEL 3
REMARK VINA RESULT:      -8.1      2.758      7.614
REMARK  Name = 
REMARK  7 active torsions:
REMARK  status: ('A' for Active; 'I' for Inactive)
REMARK    1  A    between atoms: C_5  and  N_6
REMARK    2  A    between atoms: C_7  and  C_8
REMARK    3  A    between atoms: C_8  and  C_9
REMARK    4  A    between atoms: C_17  and  S_18
REMARK    5  A    between atoms: S_18  and  C_19
REMARK    6  A    between atoms: C_19  and  C_20
REMARK    7  A    between atoms: N_22  and  C_23
REMARK                            x       y       z     vdW  Elec       q    Type
REMARK                         _______ _______ _______ _____ _____    ______ ____
ROOT
ATOM      1  N   UNL     1      37.089   4.209  15.565  0.00  0.00    +0.000 N 
ATOM      2  C   UNL     1      37.964   4.669  16.463  0.00  0.00    +0.000 A 
ATOM      3  N   UNL     1      37.991   3.832  17.530  0.00  0.00    +0.000 NA
ATOM      4  N   UNL     1      37.142   2.860  17.292  0.00  0.00    +0.000 NA
ATOM      5  C   UNL     1      36.579   3.070  16.098  0.00  0.00    +0.000 A 
ENDROOT
BRANCH   1  10
ATOM      6  C   UNL     1      35.523   6.246  10.447  0.00  0.00    +0.000 C 
ATOM      7  C   UNL     1      35.879   5.754  11.789  0.00  0.00    +0.000 A 
ATOM      8  C   UNL     1      36.941   4.878  11.899  0.00  0.00    +0.000 A 
ATOM      9  C   UNL     1      37.325   4.380  13.133  0.00  0.00    +0.000 A 
ATOM     10  C   UNL     1      36.686   4.721  14.301  0.00  0.00    +0.000 A 
ATOM     11  C   UNL     1      35.615   5.606  14.182  0.00  0.00    +0.000 A 
ATOM     12  C   UNL     1      35.232   6.101  12.951  0.00  0.00    +0.000 A 
ENDBRANCH   1  10
BRANCH   2  13
ATOM     13  C   UNL     1      38.783   5.901  16.283  0.00  0.00    +0.000 C 
BRANCH  13  14
ATOM     14  C   UNL     1      39.385   6.249  17.604  0.00  0.00    +0.000 A 
ATOM     15  C   UNL     1      38.586   6.793  18.618  0.00  0.00    +0.000 A 
ATOM     16  C   UNL     1      39.146   7.110  19.841  0.00  0.00    +0.000 A 
ATOM     17  C   UNL     1      40.471   6.918  20.130  0.00  0.00    +0.000 A 
ATOM     18  C   UNL     1      41.270   6.379  19.134  0.00  0.00    +0.000 A 
ATOM     19  C   UNL     1      40.712   6.063  17.915  0.00  0.00    +0.000 A 
ENDBRANCH  13  14
ENDBRANCH   2  13
BRANCH   5  20
ATOM     20  S   UNL     1      35.359   2.029  15.338  0.00  0.00    +0.000 S 
BRANCH  20  21
ATOM     21  C   UNL     1      35.488   0.346  15.988  0.00  0.00    +0.000 C 
BRANCH  21  22
ATOM     22  C   UNL     1      36.678  -0.280  15.370  0.00  0.00    +0.000 C 
ATOM     23  O   UNL     1      36.616  -0.655  14.180  0.00  0.00    +0.000 OA
ATOM     24  N   UNL     1      37.858  -0.447  16.112  0.00  0.00    +0.000 NA
BRANCH  24  25
ATOM     25  C   UNL     1      39.051  -1.051  15.564  0.00  0.00    +0.000 A 
ATOM     26  C   UNL     1      39.291  -2.375  15.825  0.00  0.00    +0.000 A 
ATOM     27  C   UNL     1      40.399  -2.986  15.330  0.00  0.00    +0.000 A 
ATOM     28  C   UNL     1      41.290  -2.267  14.559  0.00  0.00    +0.000 A 
ATOM     29  C   UNL     1      41.048  -0.942  14.300  0.00  0.00    +0.000 A 
ATOM     30  C   UNL     1      42.043  -0.200  13.454  0.00  0.00    +0.000 C 
ATOM     31  C   UNL     1      39.926  -0.327  14.800  0.00  0.00    +0.000 A 
ENDBRANCH  24  25
ENDBRANCH  21  22
ENDBRANCH  20  21
ENDBRANCH   5  20
TORSDOF 7
ENDMDL
MODEL 4
REMARK VINA RESULT:      -7.8      2.264      7.791
REMARK  Name = 
REMARK  7 active torsions:
REMARK  status: ('A' for Active; 'I' for Inactive)
REMARK    1  A    between atoms: C_5  and  N_6
REMARK    2  A    between atoms: C_7  and  C_8
REMARK    3  A    between atoms: C_8  and  C_9
REMARK    4  A    between atoms: C_17  and  S_18
REMARK    5  A    between atoms: S_18  and  C_19
REMARK    6  A    between atoms: C_19  and  C_20
REMARK    7  A    between atoms: N_22  and  C_23
REMARK                            x       y       z     vdW  Elec       q    Type
REMARK                         _______ _______ _______ _____ _____    ______ ____
ROOT
ATOM      1  N   UNL     1      38.489   4.688  16.166  0.00  0.00    +0.000 N 
ATOM      2  C   UNL     1      38.820   4.781  17.456  0.00  0.00    +0.000 A 
ATOM      3  N   UNL     1      38.096   3.884  18.171  0.00  0.00    +0.000 NA
ATOM      4  N   UNL     1      37.325   3.238  17.328  0.00  0.00    +0.000 NA
ATOM      5  C   UNL     1      37.547   3.712  16.098  0.00  0.00    +0.000 A 
ENDROOT
BRANCH   1  10
ATOM      6  C   UNL     1      40.373   7.545  11.575  0.00  0.00    +0.000 C 
ATOM      7  C   UNL     1      39.843   6.852  12.762  0.00  0.00    +0.000 A 
ATOM      8  C   UNL     1      40.468   5.689  13.167  0.00  0.00    +0.000 A 
ATOM      9  C   UNL     1      40.016   4.992  14.277  0.00  0.00    +0.000 A 
ATOM     10  C   UNL     1      38.942   5.407  15.027  0.00  0.00    +0.000 A 
ATOM     11  C   UNL     1      38.318   6.582  14.610  0.00  0.00    +0.000 A 
ATOM     12  C   UNL     1      38.767   7.276  13.505  0.00  0.00    +0.000 A 
ENDBRANCH   1  10
BRANCH   2  13
ATOM     13  C   UNL     1      39.844   5.720  17.994  0.00  0.00    +0.000 C 
BRANCH  13  14
ATOM     14  C   UNL     1      39.136   6.768  18.788  0.00  0.00    +0.000 A 
ATOM     15  C   UNL     1      38.039   7.444  18.237  0.00  0.00    +0.000 A 
ATOM     16  C   UNL     1      37.384   8.410  18.976  0.00  0.00    +0.000 A 
ATOM     17  C   UNL     1      37.751   8.755  20.250  0.00  0.00    +0.000 A 
ATOM     18  C   UNL     1      38.833   8.091  20.805  0.00  0.00    +0.000 A 
ATOM     19  C   UNL     1      39.488   7.128  20.067  0.00  0.00    +0.000 A 
ENDBRANCH  13  14
ENDBRANCH   2  13
BRANCH   5  20
ATOM     20  S   UNL     1      36.738   3.158  14.619  0.00  0.00    +0.000 S 
BRANCH  20  21
ATOM     21  C   UNL     1      37.842   2.079  13.675  0.00  0.00    +0.000 C 
BRANCH  21  22
ATOM     22  C   UNL     1      38.361   1.051  14.605  0.00  0.00    +0.000 C 
ATOM     23  O   UNL     1      39.516   1.177  15.064  0.00  0.00    +0.000 OA
ATOM     24  N   UNL     1      37.564  -0.048  14.963  0.00  0.00    +0.000 NA
BRANCH  24  25
ATOM     25  C   UNL     1      38.016  -1.083  15.864  0.00  0.00    +0.000 A 
ATOM     26  C   UNL     1      38.885  -2.029  15.388  0.00  0.00    +0.000 A 
ATOM     27  C   UNL     1      39.338  -3.022  16.199  0.00  0.00    +0.000 A 
ATOM     28  C   UNL     1      38.917  -3.076  17.513  0.00  0.00    +0.000 A 
ATOM     29  C   UNL     1      38.046  -2.129  17.986  0.00  0.00    +0.000 A 
ATOM     30  C   UNL     1      37.617  -2.228  19.423  0.00  0.00    +0.000 C 
ATOM     31  C   UNL     1      37.591  -1.127  17.165  0.00  0.00    +0.000 A 
ENDBRANCH  24  25
ENDBRANCH  21  22
ENDBRANCH  20  21
ENDBRANCH   5  20
TORSDOF 7
ENDMDL
MODEL 5
REMARK VINA RESULT:      -7.7      1.738      2.440
REMARK  Name = 
REMARK  7 active torsions:
REMARK  status: ('A' for Active; 'I' for Inactive)
REMARK    1  A    between atoms: C_5  and  N_6
REMARK    2  A    between atoms: C_7  and  C_8
REMARK    3  A    between atoms: C_8  and  C_9
REMARK    4  A    between atoms: C_17  and  S_18
REMARK    5  A    between atoms: S_18  and  C_19
REMARK    6  A    between atoms: C_19  and  C_20
REMARK    7  A    between atoms: N_22  and  C_23
REMARK                            x       y       z     vdW  Elec       q    Type
REMARK                         _______ _______ _______ _____ _____    ______ ____
ROOT
ATOM      1  N   UNL     1      37.423   0.558  14.298  0.00  0.00    +0.000 N 
ATOM      2  C   UNL     1      36.298   0.236  14.941  0.00  0.00    +0.000 A 
ATOM      3  N   UNL     1      35.516   1.339  15.056  0.00  0.00    +0.000 NA
ATOM      4  N   UNL     1      36.153   2.334  14.486  0.00  0.00    +0.000 NA
ATOM      5  C   UNL     1      37.319   1.882  14.017  0.00  0.00    +0.000 A 
ENDROOT
BRANCH   1  10
ATOM      6  C   UNL     1      41.952  -2.619  12.817  0.00  0.00    +0.000 C 
ATOM      7  C   UNL     1      40.818  -1.782  13.248  0.00  0.00    +0.000 A 
ATOM      8  C   UNL     1      39.693  -1.752  12.448  0.00  0.00    +0.000 A 
ATOM      9  C   UNL     1      38.594  -0.985  12.799  0.00  0.00    +0.000 A 
ATOM     10  C   UNL     1      38.556  -0.223  13.942  0.00  0.00    +0.000 A 
ATOM     11  C   UNL     1      39.696  -0.259  14.744  0.00  0.00    +0.000 A 
ATOM     12  C   UNL     1      40.791  -1.023  14.393  0.00  0.00    +0.000 A 
ENDBRANCH   1  10
BRANCH   2  13
ATOM     13  C   UNL     1      35.970  -1.135  15.425  0.00  0.00    +0.000 C 
BRANCH  13  14
ATOM     14  C   UNL     1      36.498  -1.270  16.815  0.00  0.00    +0.000 A 
ATOM     15  C   UNL     1      35.795  -0.712  17.890  0.00  0.00    +0.000 A 
ATOM     16  C   UNL     1      36.284  -0.842  19.176  0.00  0.00    +0.000 A 
ATOM     17  C   UNL     1      37.447  -1.503  19.470  0.00  0.00    +0.000 A 
ATOM     18  C   UNL     1      38.150  -2.060  18.414  0.00  0.00    +0.000 A 
ATOM     19  C   UNL     1      37.662  -1.930  17.132  0.00  0.00    +0.000 A 
ENDBRANCH  13  14
ENDBRANCH   2  13
BRANCH   5  20
ATOM     20  S   UNL     1      38.535   2.856  13.168  0.00  0.00    +0.000 S 
BRANCH  20  21
ATOM     21  C   UNL     1      37.998   4.582  13.082  0.00  0.00    +0.000 C 
BRANCH  21  22
ATOM     22  C   UNL     1      38.327   5.215  14.379  0.00  0.00    +0.000 C 
ATOM     23  O   UNL     1      37.771   6.290  14.686  0.00  0.00    +0.000 OA
ATOM     24  N   UNL     1      39.250   4.612  15.249  0.00  0.00    +0.000 NA
BRANCH  24  25
ATOM     25  C   UNL     1      39.611   5.183  16.526  0.00  0.00    +0.000 A 
ATOM     26  C   UNL     1      38.792   4.951  17.600  0.00  0.00    +0.000 A 
ATOM     27  C   UNL     1      39.091   5.466  18.821  0.00  0.00    +0.000 A 
ATOM     28  C   UNL     1      40.230   6.230  18.980  0.00  0.00    +0.000 A 
ATOM     29  C   UNL     1      41.048   6.462  17.904  0.00  0.00    +0.000 A 
ATOM     30  C   UNL     1      42.277   7.298  18.124  0.00  0.00    +0.000 C 
ATOM     31  C   UNL     1      40.743   5.939  16.671  0.00  0.00    +0.000 A 
ENDBRANCH  24  25
ENDBRANCH  21  22
ENDBRANCH  20  21
ENDBRANCH   5  20
TORSDOF 7
ENDMDL
MODEL 6
REMARK VINA RESULT:      -7.5      3.101      4.814
REMARK  Name = 
REMARK  7 active torsions:
REMARK  status: ('A' for Active; 'I' for Inactive)
REMARK    1  A    between atoms: C_5  and  N_6
REMARK    2  A    between atoms: C_7  and  C_8
REMARK    3  A    between atoms: C_8  and  C_9
REMARK    4  A    between atoms: C_17  and  S_18
REMARK    5  A    between atoms: S_18  and  C_19
REMARK    6  A    between atoms: C_19  and  C_20
REMARK    7  A    between atoms: N_22  and  C_23
REMARK                            x       y       z     vdW  Elec       q    Type
REMARK                         _______ _______ _______ _____ _____    ______ ____
ROOT
ATOM      1  N   UNL     1      36.822   4.216  15.457  0.00  0.00    +0.000 N 
ATOM      2  C   UNL     1      36.294   3.216  16.167  0.00  0.00    +0.000 A 
ATOM      3  N   UNL     1      37.046   3.009  17.277  0.00  0.00    +0.000 NA
ATOM      4  N   UNL     1      38.030   3.876  17.255  0.00  0.00    +0.000 NA
ATOM      5  C   UNL     1      37.914   4.624  16.153  0.00  0.00    +0.000 A 
ENDROOT
BRANCH   1  10
ATOM      6  C   UNL     1      35.276   6.546  10.459  0.00  0.00    +0.000 C 
ATOM      7  C   UNL     1      35.633   5.984  11.774  0.00  0.00    +0.000 A 
ATOM      8  C   UNL     1      36.569   4.969  11.813  0.00  0.00    +0.000 A 
ATOM      9  C   UNL     1      36.947   4.400  13.019  0.00  0.00    +0.000 A 
ATOM     10  C   UNL     1      36.426   4.802  14.224  0.00  0.00    +0.000 A 
ATOM     11  C   UNL     1      35.482   5.827  14.175  0.00  0.00    +0.000 A 
ATOM     12  C   UNL     1      35.105   6.394  12.974  0.00  0.00    +0.000 A 
ENDBRANCH   1  10
BRANCH   2  13
ATOM     13  C   UNL     1      35.058   2.477  15.785  0.00  0.00    +0.000 C 
BRANCH  13  14
ATOM     14  C   UNL     1      35.346   1.015  15.887  0.00  0.00    +0.000 A 
ATOM     15  C   UNL     1      34.754   0.252  16.902  0.00  0.00    +0.000 A 
ATOM     16  C   UNL     1      35.020  -1.100  16.991  0.00  0.00    +0.000 A 
ATOM     17  C   UNL     1      35.850  -1.759  16.123  0.00  0.00    +0.000 A 
ATOM     18  C   UNL     1      36.441  -1.014  15.115  0.00  0.00    +0.000 A 
ATOM     19  C   UNL     1      36.176   0.336  15.027  0.00  0.00    +0.000 A 
ENDBRANCH  13  14
ENDBRANCH   2  13
BRANCH   5  20
ATOM     20  S   UNL     1      39.013   5.932  15.676  0.00  0.00    +0.000 S 
BRANCH  20  21
ATOM     21  C   UNL     1      38.710   7.399  16.692  0.00  0.00    +0.000 C 
BRANCH  21  22
ATOM     22  C   UNL     1      39.838   7.523  17.643  0.00  0.00    +0.000 C 
ATOM     23  O   UNL     1      39.985   8.592  18.271  0.00  0.00    +0.000 OA
ATOM     24  N   UNL     1      40.726   6.452  17.834  0.00  0.00    +0.000 NA
BRANCH  24  25
ATOM     25  C   UNL     1      41.845   6.515  18.746  0.00  0.00    +0.000 A 
ATOM     26  C   UNL     1      41.613   6.292  20.078  0.00  0.00    +0.000 A 
ATOM     27  C   UNL     1      42.634   6.340  20.974  0.00  0.00    +0.000 A 
ATOM     28  C   UNL     1      43.914   6.616  20.536  0.00  0.00    +0.000 A 
ATOM     29  C   UNL     1      44.143   6.840  19.203  0.00  0.00    +0.000 A 
ATOM     30  C   UNL     1      45.552   7.134  18.773  0.00  0.00    +0.000 C 
ATOM     31  C   UNL     1      43.109   6.790  18.300  0.00  0.00    +0.000 A 
ENDBRANCH  24  25
ENDBRANCH  21  22
ENDBRANCH  20  21
ENDBRANCH   5  20
TORSDOF 7
ENDMDL
MODEL 7
REMARK VINA RESULT:      -7.4      2.795      8.244
REMARK  Name = 
REMARK  7 active torsions:
REMARK  status: ('A' for Active; 'I' for Inactive)
REMARK    1  A    between atoms: C_5  and  N_6
REMARK    2  A    between atoms: C_7  and  C_8
REMARK    3  A    between atoms: C_8  and  C_9
REMARK    4  A    between atoms: C_17  and  S_18
REMARK    5  A    between atoms: S_18  and  C_19
REMARK    6  A    between atoms: C_19  and  C_20
REMARK    7  A    between atoms: N_22  and  C_23
REMARK                            x       y       z     vdW  Elec       q    Type
REMARK                         _______ _______ _______ _____ _____    ______ ____
ROOT
ATOM      1  N   UNL     1      38.019   5.413  16.306  0.00  0.00    +0.000 N 
ATOM      2  C   UNL     1      38.277   5.486  17.614  0.00  0.00    +0.000 A 
ATOM      3  N   UNL     1      38.177   4.249  18.161  0.00  0.00    +0.000 NA
ATOM      4  N   UNL     1      37.862   3.416  17.197  0.00  0.00    +0.000 NA
ATOM      5  C   UNL     1      37.759   4.103  16.056  0.00  0.00    +0.000 A 
ENDROOT
BRANCH   1  10
ATOM      6  C   UNL     1      37.927   9.454  12.249  0.00  0.00    +0.000 C 
ATOM      7  C   UNL     1      37.890   8.423  13.302  0.00  0.00    +0.000 A 
ATOM      8  C   UNL     1      39.058   7.745  13.587  0.00  0.00    +0.000 A 
ATOM      9  C   UNL     1      39.088   6.765  14.567  0.00  0.00    +0.000 A 
ATOM     10  C   UNL     1      37.979   6.416  15.300  0.00  0.00    +0.000 A 
ATOM     11  C   UNL     1      36.804   7.106  15.005  0.00  0.00    +0.000 A 
ATOM     12  C   UNL     1      36.775   8.082  14.029  0.00  0.00    +0.000 A 
ENDBRANCH   1  10
BRANCH   2  13
ATOM     13  C   UNL     1      38.637   6.743  18.329  0.00  0.00    +0.000 C 
BRANCH  13  14
ATOM     14  C   UNL     1      40.079   6.660  18.705  0.00  0.00    +0.000 A 
ATOM     15  C   UNL     1      40.448   6.521  20.049  0.00  0.00    +0.000 A 
ATOM     16  C   UNL     1      41.783   6.441  20.393  0.00  0.00    +0.000 A 
ATOM     17  C   UNL     1      42.797   6.490  19.474  0.00  0.00    +0.000 A 
ATOM     18  C   UNL     1      42.444   6.627  18.141  0.00  0.00    +0.000 A 
ATOM     19  C   UNL     1      41.112   6.707  17.798  0.00  0.00    +0.000 A 
ENDBRANCH  13  14
ENDBRANCH   2  13
BRANCH   5  20
ATOM     20  S   UNL     1      37.347   3.416  14.473  0.00  0.00    +0.000 S 
BRANCH  20  21
ATOM     21  C   UNL     1      36.246   1.995  14.681  0.00  0.00    +0.000 C 
BRANCH  21  22
ATOM     22  C   UNL     1      37.072   0.772  14.563  0.00  0.00    +0.000 C 
ATOM     23  O   UNL     1      36.976   0.075  13.531  0.00  0.00    +0.000 OA
ATOM     24  N   UNL     1      37.948   0.405  15.597  0.00  0.00    +0.000 NA
BRANCH  24  25
ATOM     25  C   UNL     1      38.777  -0.777  15.539  0.00  0.00    +0.000 A 
ATOM     26  C   UNL     1      38.397  -1.876  16.263  0.00  0.00    +0.000 A 
ATOM     27  C   UNL     1      39.145  -3.011  16.240  0.00  0.00    +0.000 A 
ATOM     28  C   UNL     1      40.297  -3.054  15.481  0.00  0.00    +0.000 A 
ATOM     29  C   UNL     1      40.676  -1.951  14.758  0.00  0.00    +0.000 A 
ATOM     30  C   UNL     1      41.936  -2.045  13.946  0.00  0.00    +0.000 C 
ATOM     31  C   UNL     1      39.918  -0.807  14.783  0.00  0.00    +0.000 A 
ENDBRANCH  24  25
ENDBRANCH  21  22
ENDBRANCH  20  21
ENDBRANCH   5  20
TORSDOF 7
ENDMDL
MODEL 8
REMARK VINA RESULT:      -7.3      2.601      9.196
REMARK  Name = 
REMARK  7 active torsions:
REMARK  status: ('A' for Active; 'I' for Inactive)
REMARK    1  A    between atoms: C_5  and  N_6
REMARK    2  A    between atoms: C_7  and  C_8
REMARK    3  A    between atoms: C_8  and  C_9
REMARK    4  A    between atoms: C_17  and  S_18
REMARK    5  A    between atoms: S_18  and  C_19
REMARK    6  A    between atoms: C_19  and  C_20
REMARK    7  A    between atoms: N_22  and  C_23
REMARK                            x       y       z     vdW  Elec       q    Type
REMARK                         _______ _______ _______ _____ _____    ______ ____
ROOT
ATOM      1  N   UNL     1      39.075   7.371  16.862  0.00  0.00    +0.000 N 
ATOM      2  C   UNL     1      38.699   8.557  16.379  0.00  0.00    +0.000 A 
ATOM      3  N   UNL     1      37.755   8.373  15.422  0.00  0.00    +0.000 NA
ATOM      4  N   UNL     1      37.548   7.081  15.316  0.00  0.00    +0.000 NA
ATOM      5  C   UNL     1      38.343   6.449  16.185  0.00  0.00    +0.000 A 
ENDROOT
BRANCH   1  10
ATOM      6  C   UNL     1      42.877   5.971  20.909  0.00  0.00    +0.000 C 
ATOM      7  C   UNL     1      41.946   6.339  19.828  0.00  0.00    +0.000 A 
ATOM      8  C   UNL     1      40.593   6.328  20.105  0.00  0.00    +0.000 A 
ATOM      9  C   UNL     1      39.667   6.664  19.130  0.00  0.00    +0.000 A 
ATOM     10  C   UNL     1      40.031   7.023  17.855  0.00  0.00    +0.000 A 
ATOM     11  C   UNL     1      41.398   7.031  17.584  0.00  0.00    +0.000 A 
ATOM     12  C   UNL     1      42.320   6.695  18.555  0.00  0.00    +0.000 A 
ENDBRANCH   1  10
BRANCH   2  13
ATOM     13  C   UNL     1      39.234   9.865  16.853  0.00  0.00    +0.000 C 
BRANCH  13  14
ATOM     14  C   UNL     1      39.050   9.927  18.333  0.00  0.00    +0.000 A 
ATOM     15  C   UNL     1      37.788   9.691  18.894  0.00  0.00    +0.000 A 
ATOM     16  C   UNL     1      37.621   9.746  20.264  0.00  0.00    +0.000 A 
ATOM     17  C   UNL     1      38.644  10.023  21.132  0.00  0.00    +0.000 A 
ATOM     18  C   UNL     1      39.897  10.257  20.588  0.00  0.00    +0.000 A 
ATOM     19  C   UNL     1      40.063  10.203  19.221  0.00  0.00    +0.000 A 
ENDBRANCH  13  14
ENDBRANCH   2  13
BRANCH   5  20
ATOM     20  S   UNL     1      38.429   4.692  16.412  0.00  0.00    +0.000 S 
BRANCH  20  21
ATOM     21  C   UNL     1      37.105   3.881  15.483  0.00  0.00    +0.000 C 
BRANCH  21  22
ATOM     22  C   UNL     1      37.005   2.488  15.974  0.00  0.00    +0.000 C 
ATOM     23  O   UNL     1      37.895   1.670  15.660  0.00  0.00    +0.000 OA
ATOM     24  N   UNL     1      35.925   2.096  16.782  0.00  0.00    +0.000 NA
BRANCH  24  25
ATOM     25  C   UNL     1      35.774   0.752  17.290  0.00  0.00    +0.000 A 
ATOM     26  C   UNL     1      36.156   0.496  18.581  0.00  0.00    +0.000 A 
ATOM     27  C   UNL     1      36.032  -0.752  19.103  0.00  0.00    +0.000 A 
ATOM     28  C   UNL     1      35.516  -1.770  18.326  0.00  0.00    +0.000 A 
ATOM     29  C   UNL     1      35.135  -1.511  17.034  0.00  0.00    +0.000 A 
ATOM     30  C   UNL     1      34.578  -2.649  16.226  0.00  0.00    +0.000 C 
ATOM     31  C   UNL     1      35.261  -0.248  16.510  0.00  0.00    +0.000 A 
ENDBRANCH  24  25
ENDBRANCH  21  22
ENDBRANCH  20  21
ENDBRANCH   5  20
TORSDOF 7
ENDMDL
MODEL 9
REMARK VINA RESULT:      -7.3      3.813      6.148
REMARK  Name = 
REMARK  7 active torsions:
REMARK  status: ('A' for Active; 'I' for Inactive)
REMARK    1  A    between atoms: C_5  and  N_6
REMARK    2  A    between atoms: C_7  and  C_8
REMARK    3  A    between atoms: C_8  and  C_9
REMARK    4  A    between atoms: C_17  and  S_18
REMARK    5  A    between atoms: S_18  and  C_19
REMARK    6  A    between atoms: C_19  and  C_20
REMARK    7  A    between atoms: N_22  and  C_23
REMARK                            x       y       z     vdW  Elec       q    Type
REMARK                         _______ _______ _______ _____ _____    ______ ____
ROOT
ATOM      1  N   UNL     1      36.707   0.383  15.622  0.00  0.00    +0.000 N 
ATOM      2  C   UNL     1      35.724  -0.043  16.419  0.00  0.00    +0.000 A 
ATOM      3  N   UNL     1      35.087   1.026  16.957  0.00  0.00    +0.000 NA
ATOM      4  N   UNL     1      35.671   2.107  16.494  0.00  0.00    +0.000 NA
ATOM      5  C   UNL     1      36.662   1.739  15.678  0.00  0.00    +0.000 A 
ENDROOT
BRANCH   1  10
ATOM      6  C   UNL     1      40.505  -2.506  12.457  0.00  0.00    +0.000 C 
ATOM      7  C   UNL     1      39.572  -1.754  13.314  0.00  0.00    +0.000 A 
ATOM      8  C   UNL     1      38.283  -1.563  12.858  0.00  0.00    +0.000 A 
ATOM      9  C   UNL     1      37.359  -0.863  13.617  0.00  0.00    +0.000 A 
ATOM     10  C   UNL     1      37.662  -0.329  14.847  0.00  0.00    +0.000 A 
ATOM     11  C   UNL     1      38.966  -0.527  15.299  0.00  0.00    +0.000 A 
ATOM     12  C   UNL     1      39.886  -1.223  14.542  0.00  0.00    +0.000 A 
ENDBRANCH   1  10
BRANCH   2  13
ATOM     13  C   UNL     1      35.389  -1.478  16.644  0.00  0.00    +0.000 C 
BRANCH  13  14
ATOM     14  C   UNL     1      36.467  -2.074  17.488  0.00  0.00    +0.000 A 
ATOM     15  C   UNL     1      37.188  -3.183  17.026  0.00  0.00    +0.000 A 
ATOM     16  C   UNL     1      38.187  -3.730  17.807  0.00  0.00    +0.000 A 
ATOM     17  C   UNL     1      38.526  -3.239  19.040  0.00  0.00    +0.000 A 
ATOM     18  C   UNL     1      37.821  -2.141  19.507  0.00  0.00    +0.000 A 
ATOM     19  C   UNL     1      36.823  -1.596  18.727  0.00  0.00    +0.000 A 
ENDBRANCH  13  14
ENDBRANCH   2  13
BRANCH   5  20
ATOM     20  S   UNL     1      37.746   2.845  14.811  0.00  0.00    +0.000 S 
BRANCH  20  21
ATOM     21  C   UNL     1      36.825   3.753  13.546  0.00  0.00    +0.000 C 
BRANCH  21  22
ATOM     22  C   UNL     1      37.382   3.372  12.229  0.00  0.00    +0.000 C 
ATOM     23  O   UNL     1      38.002   4.228  11.564  0.00  0.00    +0.000 OA
ATOM     24  N   UNL     1      37.217   2.067  11.740  0.00  0.00    +0.000 NA
BRANCH  24  25
ATOM     25  C   UNL     1      37.737   1.636  10.462  0.00  0.00    +0.000 A 
ATOM     26  C   UNL     1      39.003   1.115  10.416  0.00  0.00    +0.000 A 
ATOM     27  C   UNL     1      39.536   0.696   9.238  0.00  0.00    +0.000 A 
ATOM     28  C   UNL     1      38.793   0.799   8.078  0.00  0.00    +0.000 A 
ATOM     29  C   UNL     1      37.526   1.323   8.127  0.00  0.00    +0.000 A 
ATOM     30  C   UNL     1      36.756   1.413   6.841  0.00  0.00    +0.000 C 
ATOM     31  C   UNL     1      36.992   1.744   9.319  0.00  0.00    +0.000 A 
ENDBRANCH  24  25
ENDBRANCH  21  22
ENDBRANCH  20  21
ENDBRANCH   5  20
TORSDOF 7
ENDMDL
MODEL 10
REMARK VINA RESULT:      -7.2      2.319      3.367
REMARK  Name = 
REMARK  7 active torsions:
REMARK  status: ('A' for Active; 'I' for Inactive)
REMARK    1  A    between atoms: C_5  and  N_6
REMARK    2  A    between atoms: C_7  and  C_8
REMARK    3  A    between atoms: C_8  and  C_9
REMARK    4  A    between atoms: C_17  and  S_18
REMARK    5  A    between atoms: S_18  and  C_19
REMARK    6  A    between atoms: C_19  and  C_20
REMARK    7  A    between atoms: N_22  and  C_23
REMARK                            x       y       z     vdW  Elec       q    Type
REMARK                         _______ _______ _______ _____ _____    ______ ____
ROOT
ATOM      1  N   UNL     1      37.618   0.874  14.011  0.00  0.00    +0.000 N 
ATOM      2  C   UNL     1      37.437  -0.197  14.788  0.00  0.00    +0.000 A 
ATOM      3  N   UNL     1      37.258   0.205  16.071  0.00  0.00    +0.000 NA
ATOM      4  N   UNL     1      37.326   1.515  16.087  0.00  0.00    +0.000 NA
ATOM      5  C   UNL     1      37.546   1.946  14.841  0.00  0.00    +0.000 A 
ENDROOT
BRANCH   1  10
ATOM      6  C   UNL     1      38.518   1.328   8.374  0.00  0.00    +0.000 C 
ATOM      7  C   UNL     1      38.349   1.213   9.833  0.00  0.00    +0.000 A 
ATOM      8  C   UNL     1      37.063   1.160  10.334  0.00  0.00    +0.000 A 
ATOM      9  C   UNL     1      36.837   1.052  11.697  0.00  0.00    +0.000 A 
ATOM     10  C   UNL     1      37.858   0.990  12.615  0.00  0.00    +0.000 A 
ATOM     11  C   UNL     1      39.153   1.043  12.100  0.00  0.00    +0.000 A 
ATOM     12  C   UNL     1      39.377   1.152  10.742  0.00  0.00    +0.000 A 
ENDBRANCH   1  10
BRANCH   2  13
ATOM     13  C   UNL     1      37.416  -1.602  14.290  0.00  0.00    +0.000 C 
BRANCH  13  14
ATOM     14  C   UNL     1      38.823  -2.004  13.993  0.00  0.00    +0.000 A 
ATOM     15  C   UNL     1      39.146  -2.557  12.747  0.00  0.00    +0.000 A 
ATOM     16  C   UNL     1      40.450  -2.925  12.474  0.00  0.00    +0.000 A 
ATOM     17  C   UNL     1      41.473  -2.776  13.372  0.00  0.00    +0.000 A 
ATOM     18  C   UNL     1      41.165  -2.229  14.607  0.00  0.00    +0.000 A 
ATOM     19  C   UNL     1      39.864  -1.863  14.880  0.00  0.00    +0.000 A 
ENDBRANCH  13  14
ENDBRANCH   2  13
BRANCH   5  20
ATOM     20  S   UNL     1      37.720   3.643  14.353  0.00  0.00    +0.000 S 
BRANCH  20  21
ATOM     21  C   UNL     1      39.469   4.107  14.335  0.00  0.00    +0.000 C 
BRANCH  21  22
ATOM     22  C   UNL     1      39.693   5.040  15.463  0.00  0.00    +0.000 C 
ATOM     23  O   UNL     1      40.534   5.954  15.334  0.00  0.00    +0.000 OA
ATOM     24  N   UNL     1      38.969   4.896  16.657  0.00  0.00    +0.000 NA
BRANCH  24  25
ATOM     25  C   UNL     1      39.145   5.774  17.791  0.00  0.00    +0.000 A 
ATOM     26  C   UNL     1      38.197   6.735  18.026  0.00  0.00    +0.000 A 
ATOM     27  C   UNL     1      38.319   7.583  19.080  0.00  0.00    +0.000 A 
ATOM     28  C   UNL     1      39.409   7.475  19.921  0.00  0.00    +0.000 A 
ATOM     29  C   UNL     1      40.358   6.514  19.683  0.00  0.00    +0.000 A 
ATOM     30  C   UNL     1      41.526   6.433  20.625  0.00  0.00    +0.000 C 
ATOM     31  C   UNL     1      40.231   5.658  18.617  0.00  0.00    +0.000 A 
ENDBRANCH  24  25
ENDBRANCH  21  22
ENDBRANCH  20  21
ENDBRANCH   5  20
TORSDOF 7
ENDMDL
