MODEL 1
REMARK VINA RESULT:      -6.1      0.000      0.000
REMARK  Name = 
REMARK  3 active torsions:
REMARK  status: ('A' for Active; 'I' for Inactive)
REMARK    1  A    between atoms: O_2  and  C_3
REMARK    2  A    between atoms: C_6  and  C_7
REMARK    3  A    between atoms: N_11  and  C_12
REMARK                            x       y       z     vdW  Elec       q    Type
REMARK                         _______ _______ _______ _____ _____    ______ ____
ROOT
ATOM      1  C   UNL     1      16.482  11.056  36.274  0.00  0.00    +0.000 C 
ATOM      2  C   UNL     1      15.562  11.916  36.675  0.00  0.00    +0.000 C 
ATOM      3  S   UNL     1      14.584  12.728  35.431  0.00  0.00    +0.000 S 
ATOM      4  C   UNL     1      15.145  12.125  33.855  0.00  0.00    +0.000 C 
ATOM      5  N   UNL     1      14.605  12.541  32.627  0.00  0.00    +0.000 NA
ATOM      6  N   UNL     1      16.095  11.262  33.824  0.00  0.00    +0.000 NA
ATOM      7  N   UNL     1      16.745  10.738  34.917  0.00  0.00    +0.000 NA
ENDROOT
BRANCH   1  11
ATOM      8  C   UNL     1      18.742   9.175  39.302  0.00  0.00    +0.000 A 
ATOM      9  C   UNL     1      19.268   9.373  38.051  0.00  0.00    +0.000 A 
ATOM     10  C   UNL     1      18.536   9.991  37.044  0.00  0.00    +0.000 A 
ATOM     11  C   UNL     1      17.263  10.410  37.310  0.00  0.00    +0.000 A 
ATOM     12  C   UNL     1      16.731  10.218  38.555  0.00  0.00    +0.000 A 
ATOM     13  C   UNL     1      17.466   9.603  39.551  0.00  0.00    +0.000 A 
BRANCH   8  15
ATOM     14  C   UNL     1      19.249   7.217  40.604  0.00  0.00    +0.000 C 
ATOM     15  O   UNL     1      19.503   8.560  40.267  0.00  0.00    +0.000 OA
ENDBRANCH   8  15
ENDBRANCH   1  11
BRANCH   5  16
ATOM     16  C   UNL     1      15.467  12.553  31.462  0.00  0.00    +0.000 C 
ATOM     17  C   UNL     1      15.573  13.795  30.636  0.00  0.00    +0.000 C 
ATOM     18  C   UNL     1      14.646  12.708  30.146  0.00  0.00    +0.000 C 
ENDBRANCH   5  16
TORSDOF 3
ENDMDL
MODEL 2
REMARK VINA RESULT:      -6.1      1.666      2.160
REMARK  Name = 
REMARK  3 active torsions:
REMARK  status: ('A' for Active; 'I' for Inactive)
REMARK    1  A    between atoms: O_2  and  C_3
REMARK    2  A    between atoms: C_6  and  C_7
REMARK    3  A    between atoms: N_11  and  C_12
REMARK                            x       y       z     vdW  Elec       q    Type
REMARK                         _______ _______ _______ _____ _____    ______ ____
ROOT
ATOM      1  C   UNL     1      16.861  10.587  35.624  0.00  0.00    +0.000 C 
ATOM      2  C   UNL     1      17.435   9.903  34.649  0.00  0.00    +0.000 C 
ATOM      3  S   UNL     1      17.066  10.376  32.974  0.00  0.00    +0.000 S 
ATOM      4  C   UNL     1      15.937  11.747  33.058  0.00  0.00    +0.000 C 
ATOM      5  N   UNL     1      15.417  12.396  31.927  0.00  0.00    +0.000 NA
ATOM      6  N   UNL     1      15.569  12.177  34.211  0.00  0.00    +0.000 NA
ATOM      7  N   UNL     1      15.970  11.672  35.426  0.00  0.00    +0.000 NA
ENDROOT
BRANCH   1  11
ATOM      8  C   UNL     1      17.806   9.391  39.560  0.00  0.00    +0.000 A 
ATOM      9  C   UNL     1      16.697  10.157  39.303  0.00  0.00    +0.000 A 
ATOM     10  C   UNL     1      16.373  10.558  38.013  0.00  0.00    +0.000 A 
ATOM     11  C   UNL     1      17.180  10.179  36.977  0.00  0.00    +0.000 A 
ATOM     12  C   UNL     1      18.288   9.415  37.225  0.00  0.00    +0.000 A 
ATOM     13  C   UNL     1      18.603   9.021  38.511  0.00  0.00    +0.000 A 
BRANCH   8  15
ATOM     14  C   UNL     1      17.057   9.008  41.813  0.00  0.00    +0.000 C 
ATOM     15  O   UNL     1      18.086   9.017  40.852  0.00  0.00    +0.000 OA
ENDBRANCH   8  15
ENDBRANCH   1  11
BRANCH   5  16
ATOM     16  C   UNL     1      14.098  12.992  32.017  0.00  0.00    +0.000 C 
ATOM     17  C   UNL     1      13.410  13.450  30.771  0.00  0.00    +0.000 C 
ATOM     18  C   UNL     1      14.120  14.494  31.600  0.00  0.00    +0.000 C 
ENDBRANCH   5  16
TORSDOF 3
ENDMDL
MODEL 3
REMARK VINA RESULT:      -6.0     19.407     21.058
REMARK  Name = 
REMARK  3 active torsions:
REMARK  status: ('A' for Active; 'I' for Inactive)
REMARK    1  A    between atoms: O_2  and  C_3
REMARK    2  A    between atoms: C_6  and  C_7
REMARK    3  A    between atoms: N_11  and  C_12
REMARK                            x       y       z     vdW  Elec       q    Type
REMARK                         _______ _______ _______ _____ _____    ______ ____
ROOT
ATOM      1  C   UNL     1      33.323   0.049  34.413  0.00  0.00    +0.000 C 
ATOM      2  C   UNL     1      32.448  -0.475  35.255  0.00  0.00    +0.000 C 
ATOM      3  S   UNL     1      32.147  -2.226  35.158  0.00  0.00    +0.000 S 
ATOM      4  C   UNL     1      33.179  -2.859  33.855  0.00  0.00    +0.000 C 
ATOM      5  N   UNL     1      33.216  -4.212  33.481  0.00  0.00    +0.000 NA
ATOM      6  N   UNL     1      33.937  -2.044  33.214  0.00  0.00    +0.000 NA
ATOM      7  N   UNL     1      34.038  -0.690  33.436  0.00  0.00    +0.000 NA
ENDROOT
BRANCH   1  11
ATOM      8  C   UNL     1      33.974   4.209  34.694  0.00  0.00    +0.000 A 
ATOM      9  C   UNL     1      34.101   3.400  35.795  0.00  0.00    +0.000 A 
ATOM     10  C   UNL     1      33.890   2.029  35.718  0.00  0.00    +0.000 A 
ATOM     11  C   UNL     1      33.548   1.476  34.516  0.00  0.00    +0.000 A 
ATOM     12  C   UNL     1      33.419   2.275  33.413  0.00  0.00    +0.000 A 
ATOM     13  C   UNL     1      33.631   3.638  33.498  0.00  0.00    +0.000 A 
BRANCH   8  15
ATOM     14  C   UNL     1      35.503   6.037  35.021  0.00  0.00    +0.000 C 
ATOM     15  O   UNL     1      34.194   5.560  34.817  0.00  0.00    +0.000 OA
ENDBRANCH   8  15
ENDBRANCH   1  11
BRANCH   5  16
ATOM     16  C   UNL     1      33.514  -4.539  32.101  0.00  0.00    +0.000 C 
ATOM     17  C   UNL     1      33.092  -5.863  31.550  0.00  0.00    +0.000 C 
ATOM     18  C   UNL     1      34.527  -5.719  32.000  0.00  0.00    +0.000 C 
ENDBRANCH   5  16
TORSDOF 3
ENDMDL
MODEL 4
REMARK VINA RESULT:      -5.7      3.806      7.838
REMARK  Name = 
REMARK  3 active torsions:
REMARK  status: ('A' for Active; 'I' for Inactive)
REMARK    1  A    between atoms: O_2  and  C_3
REMARK    2  A    between atoms: C_6  and  C_7
REMARK    3  A    between atoms: N_11  and  C_12
REMARK                            x       y       z     vdW  Elec       q    Type
REMARK                         _______ _______ _______ _____ _____    ______ ____
ROOT
ATOM      1  C   UNL     1      17.111  10.290  36.850  0.00  0.00    +0.000 C 
ATOM      2  C   UNL     1      18.344   9.817  36.898  0.00  0.00    +0.000 C 
ATOM      3  S   UNL     1      18.947   9.223  38.463  0.00  0.00    +0.000 S 
ATOM      4  C   UNL     1      17.632   9.437  39.640  0.00  0.00    +0.000 C 
ATOM      5  N   UNL     1      17.735   9.079  40.994  0.00  0.00    +0.000 NA
ATOM      6  N   UNL     1      16.521   9.946  39.244  0.00  0.00    +0.000 NA
ATOM      7  N   UNL     1      16.233  10.356  37.963  0.00  0.00    +0.000 NA
ENDROOT
BRANCH   1  11
ATOM      8  C   UNL     1      15.747  11.688  33.108  0.00  0.00    +0.000 A 
ATOM      9  C   UNL     1      16.821  10.839  33.194  0.00  0.00    +0.000 A 
ATOM     10  C   UNL     1      17.282  10.370  34.419  0.00  0.00    +0.000 A 
ATOM     11  C   UNL     1      16.647  10.766  35.563  0.00  0.00    +0.000 A 
ATOM     12  C   UNL     1      15.575  11.612  35.486  0.00  0.00    +0.000 A 
ATOM     13  C   UNL     1      15.124  12.073  34.264  0.00  0.00    +0.000 A 
BRANCH   8  15
ATOM     14  C   UNL     1      14.321  13.108  31.791  0.00  0.00    +0.000 C 
ATOM     15  O   UNL     1      15.326  12.125  31.875  0.00  0.00    +0.000 OA
ENDBRANCH   8  15
ENDBRANCH   1  11
BRANCH   5  16
ATOM     16  C   UNL     1      16.972   9.833  41.969  0.00  0.00    +0.000 C 
ATOM     17  C   UNL     1      17.428   9.871  43.392  0.00  0.00    +0.000 C 
ATOM     18  C   UNL     1      16.328   8.898  43.037  0.00  0.00    +0.000 C 
ENDBRANCH   5  16
TORSDOF 3
ENDMDL
MODEL 5
REMARK VINA RESULT:      -5.6      2.356      2.976
REMARK  Name = 
REMARK  3 active torsions:
REMARK  status: ('A' for Active; 'I' for Inactive)
REMARK    1  A    between atoms: O_2  and  C_3
REMARK    2  A    between atoms: C_6  and  C_7
REMARK    3  A    between atoms: N_11  and  C_12
REMARK                            x       y       z     vdW  Elec       q    Type
REMARK                         _______ _______ _______ _____ _____    ______ ____
ROOT
ATOM      1  C   UNL     1      18.789  10.229  36.678  0.00  0.00    +0.000 C 
ATOM      2  C   UNL     1      17.904  11.019  37.261  0.00  0.00    +0.000 C 
ATOM      3  S   UNL     1      16.457  11.476  36.332  0.00  0.00    +0.000 S 
ATOM      4  C   UNL     1      16.592  10.691  34.742  0.00  0.00    +0.000 C 
ATOM      5  N   UNL     1      15.630  10.819  33.728  0.00  0.00    +0.000 NA
ATOM      6  N   UNL     1      17.622   9.964  34.495  0.00  0.00    +0.000 NA
ATOM      7  N   UNL     1      18.664   9.721  35.359  0.00  0.00    +0.000 NA
ENDROOT
BRANCH   1  11
ATOM      8  C   UNL     1      22.180   9.191  38.967  0.00  0.00    +0.000 A 
ATOM      9  C   UNL     1      22.303   9.557  37.651  0.00  0.00    +0.000 A 
ATOM     10  C   UNL     1      21.197   9.902  36.884  0.00  0.00    +0.000 A 
ATOM     11  C   UNL     1      19.957   9.874  37.459  0.00  0.00    +0.000 A 
ATOM     12  C   UNL     1      19.825   9.510  38.771  0.00  0.00    +0.000 A 
ATOM     13  C   UNL     1      20.931   9.169  39.525  0.00  0.00    +0.000 A 
BRANCH   8  15
ATOM     14  C   UNL     1      24.577   9.139  39.155  0.00  0.00    +0.000 C 
ATOM     15  O   UNL     1      23.303   8.859  39.686  0.00  0.00    +0.000 OA
ENDBRANCH   8  15
ENDBRANCH   1  11
BRANCH   5  16
ATOM     16  C   UNL     1      16.066  10.743  32.348  0.00  0.00    +0.000 C 
ATOM     17  C   UNL     1      15.886  11.927  31.453  0.00  0.00    +0.000 C 
ATOM     18  C   UNL     1      14.860  10.822  31.363  0.00  0.00    +0.000 C 
ENDBRANCH   5  16
TORSDOF 3
ENDMDL
MODEL 6
REMARK VINA RESULT:      -5.6      8.731     11.995
REMARK  Name = 
REMARK  3 active torsions:
REMARK  status: ('A' for Active; 'I' for Inactive)
REMARK    1  A    between atoms: O_2  and  C_3
REMARK    2  A    between atoms: C_6  and  C_7
REMARK    3  A    between atoms: N_11  and  C_12
REMARK                            x       y       z     vdW  Elec       q    Type
REMARK                         _______ _______ _______ _____ _____    ______ ____
ROOT
ATOM      1  C   UNL     1      20.348   3.530  41.213  0.00  0.00    +0.000 C 
ATOM      2  C   UNL     1      21.419   3.816  41.934  0.00  0.00    +0.000 C 
ATOM      3  S   UNL     1      22.724   2.609  41.999  0.00  0.00    +0.000 S 
ATOM      4  C   UNL     1      22.206   1.230  41.003  0.00  0.00    +0.000 C 
ATOM      5  N   UNL     1      22.981   0.074  40.813  0.00  0.00    +0.000 NA
ATOM      6  N   UNL     1      21.062   1.280  40.421  0.00  0.00    +0.000 NA
ATOM      7  N   UNL     1      20.168   2.324  40.488  0.00  0.00    +0.000 NA
ENDROOT
BRANCH   1  11
ATOM      8  C   UNL     1      17.308   6.456  41.096  0.00  0.00    +0.000 A 
ATOM      9  C   UNL     1      17.305   5.474  42.054  0.00  0.00    +0.000 A 
ATOM     10  C   UNL     1      18.299   4.504  42.106  0.00  0.00    +0.000 A 
ATOM     11  C   UNL     1      19.302   4.531  41.178  0.00  0.00    +0.000 A 
ATOM     12  C   UNL     1      19.313   5.507  40.219  0.00  0.00    +0.000 A 
ATOM     13  C   UNL     1      18.321   6.467  40.175  0.00  0.00    +0.000 A 
BRANCH   8  15
ATOM     14  C   UNL     1      15.873   7.966  42.297  0.00  0.00    +0.000 C 
ATOM     15  O   UNL     1      16.305   7.395  41.085  0.00  0.00    +0.000 OA
ENDBRANCH   8  15
ENDBRANCH   1  11
BRANCH   5  16
ATOM     16  C   UNL     1      22.299  -1.186  40.589  0.00  0.00    +0.000 C 
ATOM     17  C   UNL     1      22.830  -2.433  41.220  0.00  0.00    +0.000 C 
ATOM     18  C   UNL     1      23.184  -2.177  39.774  0.00  0.00    +0.000 C 
ENDBRANCH   5  16
TORSDOF 3
ENDMDL
MODEL 7
REMARK VINA RESULT:      -5.5      2.635      3.546
REMARK  Name = 
REMARK  3 active torsions:
REMARK  status: ('A' for Active; 'I' for Inactive)
REMARK    1  A    between atoms: O_2  and  C_3
REMARK    2  A    between atoms: C_6  and  C_7
REMARK    3  A    between atoms: N_11  and  C_12
REMARK                            x       y       z     vdW  Elec       q    Type
REMARK                         _______ _______ _______ _____ _____    ______ ____
ROOT
ATOM      1  C   UNL     1      17.543   9.852  38.347  0.00  0.00    +0.000 C 
ATOM      2  C   UNL     1      18.690   9.417  37.854  0.00  0.00    +0.000 C 
ATOM      3  S   UNL     1      18.958   9.582  36.103  0.00  0.00    +0.000 S 
ATOM      4  C   UNL     1      17.503  10.346  35.425  0.00  0.00    +0.000 C 
ATOM      5  N   UNL     1      17.343  10.641  34.061  0.00  0.00    +0.000 NA
ATOM      6  N   UNL     1      16.537  10.651  36.215  0.00  0.00    +0.000 NA
ATOM      7  N   UNL     1      16.510  10.442  37.574  0.00  0.00    +0.000 NA
ENDROOT
BRANCH   1  11
ATOM      8  C   UNL     1      16.971   9.422  42.507  0.00  0.00    +0.000 A 
ATOM      9  C   UNL     1      18.231   9.533  41.976  0.00  0.00    +0.000 A 
ATOM     10  C   UNL     1      18.435   9.675  40.609  0.00  0.00    +0.000 A 
ATOM     11  C   UNL     1      17.353   9.705  39.776  0.00  0.00    +0.000 A 
ATOM     12  C   UNL     1      16.093   9.595  40.296  0.00  0.00    +0.000 A 
ATOM     13  C   UNL     1      15.898   9.454  41.656  0.00  0.00    +0.000 A 
BRANCH   8  15
ATOM     14  C   UNL     1      17.853   9.690  44.728  0.00  0.00    +0.000 C 
ATOM     15  O   UNL     1      16.817   9.284  43.865  0.00  0.00    +0.000 OA
ENDBRANCH   8  15
ENDBRANCH   1  11
BRANCH   5  16
ATOM     16  C   UNL     1      16.006  10.624  33.502  0.00  0.00    +0.000 C 
ATOM     17  C   UNL     1      15.828  10.566  32.019  0.00  0.00    +0.000 C 
ATOM     18  C   UNL     1      15.713  11.918  32.683  0.00  0.00    +0.000 C 
ENDBRANCH   5  16
TORSDOF 3
ENDMDL
MODEL 8
REMARK VINA RESULT:      -5.5      3.362      4.524
REMARK  Name = 
REMARK  3 active torsions:
REMARK  status: ('A' for Active; 'I' for Inactive)
REMARK    1  A    between atoms: O_2  and  C_3
REMARK    2  A    between atoms: C_6  and  C_7
REMARK    3  A    between atoms: N_11  and  C_12
REMARK                            x       y       z     vdW  Elec       q    Type
REMARK                         _______ _______ _______ _____ _____    ______ ____
ROOT
ATOM      1  C   UNL     1      19.002  10.174  36.990  0.00  0.00    +0.000 C 
ATOM      2  C   UNL     1      18.707   9.563  35.856  0.00  0.00    +0.000 C 
ATOM      3  S   UNL     1      17.137   9.921  35.101  0.00  0.00    +0.000 S 
ATOM      4  C   UNL     1      16.312  11.097  36.151  0.00  0.00    +0.000 C 
ATOM      5  N   UNL     1      15.039  11.621  35.880  0.00  0.00    +0.000 NA
ATOM      6  N   UNL     1      16.904  11.496  37.219  0.00  0.00    +0.000 NA
ATOM      7  N   UNL     1      18.149  11.097  37.649  0.00  0.00    +0.000 NA
ENDROOT
BRANCH   1  11
ATOM      8  C   UNL     1      22.755   9.270  38.696  0.00  0.00    +0.000 A 
ATOM      9  C   UNL     1      21.611   9.240  39.453  0.00  0.00    +0.000 A 
ATOM     10  C   UNL     1      20.368   9.535  38.905  0.00  0.00    +0.000 A 
ATOM     11  C   UNL     1      20.287   9.863  37.581  0.00  0.00    +0.000 A 
ATOM     12  C   UNL     1      21.423   9.895  36.819  0.00  0.00    +0.000 A 
ATOM     13  C   UNL     1      22.654   9.600  37.372  0.00  0.00    +0.000 A 
BRANCH   8  15
ATOM     14  C   UNL     1      25.032   8.527  38.479  0.00  0.00    +0.000 C 
ATOM     15  O   UNL     1      23.962   8.970  39.280  0.00  0.00    +0.000 OA
ENDBRANCH   8  15
ENDBRANCH   1  11
BRANCH   5  16
ATOM     16  C   UNL     1      14.196  12.001  36.997  0.00  0.00    +0.000 C 
ATOM     17  C   UNL     1      12.812  11.443  37.099  0.00  0.00    +0.000 C 
ATOM     18  C   UNL     1      12.965  12.833  36.526  0.00  0.00    +0.000 C 
ENDBRANCH   5  16
TORSDOF 3
ENDMDL
MODEL 9
REMARK VINA RESULT:      -5.5     19.303     20.375
REMARK  Name = 
REMARK  3 active torsions:
REMARK  status: ('A' for Active; 'I' for Inactive)
REMARK    1  A    between atoms: O_2  and  C_3
REMARK    2  A    between atoms: C_6  and  C_7
REMARK    3  A    between atoms: N_11  and  C_12
REMARK                            x       y       z     vdW  Elec       q    Type
REMARK                         _______ _______ _______ _____ _____    ______ ____
ROOT
ATOM      1  C   UNL     1      33.684   1.060  35.593  0.00  0.00    +0.000 C 
ATOM      2  C   UNL     1      33.907   1.186  36.890  0.00  0.00    +0.000 C 
ATOM      3  S   UNL     1      34.249   2.813  37.521  0.00  0.00    +0.000 S 
ATOM      4  C   UNL     1      34.199   3.928  36.137  0.00  0.00    +0.000 C 
ATOM      5  N   UNL     1      34.422   5.310  36.243  0.00  0.00    +0.000 NA
ATOM      6  N   UNL     1      33.945   3.456  34.969  0.00  0.00    +0.000 NA
ATOM      7  N   UNL     1      33.700   2.136  34.669  0.00  0.00    +0.000 NA
ENDROOT
BRANCH   1  11
ATOM      8  C   UNL     1      32.893  -2.833  34.168  0.00  0.00    +0.000 A 
ATOM      9  C   UNL     1      32.147  -2.289  35.182  0.00  0.00    +0.000 A 
ATOM     10  C   UNL     1      32.395  -1.009  35.662  0.00  0.00    +0.000 A 
ATOM     11  C   UNL     1      33.407  -0.277  35.108  0.00  0.00    +0.000 A 
ATOM     12  C   UNL     1      34.156  -0.811  34.095  0.00  0.00    +0.000 A 
ATOM     13  C   UNL     1      33.902  -2.085  33.624  0.00  0.00    +0.000 A 
BRANCH   8  15
ATOM     14  C   UNL     1      33.373  -4.662  32.681  0.00  0.00    +0.000 C 
ATOM     15  O   UNL     1      32.610  -4.103  33.725  0.00  0.00    +0.000 OA
ENDBRANCH   8  15
ENDBRANCH   1  11
BRANCH   5  16
ATOM     16  C   UNL     1      35.002   6.006  35.112  0.00  0.00    +0.000 C 
ATOM     17  C   UNL     1      36.489   6.095  34.985  0.00  0.00    +0.000 C 
ATOM     18  C   UNL     1      35.765   7.289  35.560  0.00  0.00    +0.000 C 
ENDBRANCH   5  16
TORSDOF 3
ENDMDL
MODEL 10
REMARK VINA RESULT:      -5.4     22.436     23.374
REMARK  Name = 
REMARK  3 active torsions:
REMARK  status: ('A' for Active; 'I' for Inactive)
REMARK    1  A    between atoms: O_2  and  C_3
REMARK    2  A    between atoms: C_6  and  C_7
REMARK    3  A    between atoms: N_11  and  C_12
REMARK                            x       y       z     vdW  Elec       q    Type
REMARK                         _______ _______ _______ _____ _____    ______ ____
ROOT
ATOM      1  C   UNL     1      22.485  -7.515  24.808  0.00  0.00    +0.000 C 
ATOM      2  C   UNL     1      23.103  -6.550  24.150  0.00  0.00    +0.000 C 
ATOM      3  S   UNL     1      24.747  -6.872  23.550  0.00  0.00    +0.000 S 
ATOM      4  C   UNL     1      25.157  -8.535  24.029  0.00  0.00    +0.000 C 
ATOM      5  N   UNL     1      26.384  -9.150  23.729  0.00  0.00    +0.000 NA
ATOM      6  N   UNL     1      24.294  -9.222  24.686  0.00  0.00    +0.000 NA
ATOM      7  N   UNL     1      23.044  -8.793  25.069  0.00  0.00    +0.000 NA
ENDROOT
BRANCH   1  11
ATOM      8  C   UNL     1      18.595  -6.649  26.198  0.00  0.00    +0.000 A 
ATOM      9  C   UNL     1      18.979  -7.940  25.938  0.00  0.00    +0.000 A 
ATOM     10  C   UNL     1      20.257  -8.241  25.480  0.00  0.00    +0.000 A 
ATOM     11  C   UNL     1      21.149  -7.224  25.285  0.00  0.00    +0.000 A 
ATOM     12  C   UNL     1      20.774  -5.934  25.543  0.00  0.00    +0.000 A 
ATOM     13  C   UNL     1      19.503  -5.644  25.998  0.00  0.00    +0.000 A 
BRANCH   8  15
ATOM     14  C   UNL     1      16.392  -7.453  26.728  0.00  0.00    +0.000 C 
ATOM     15  O   UNL     1      17.322  -6.399  26.650  0.00  0.00    +0.000 OA
ENDBRANCH   8  15
ENDBRANCH   1  11
BRANCH   5  16
ATOM     16  C   UNL     1      26.897 -10.150  24.644  0.00  0.00    +0.000 C 
ATOM     17  C   UNL     1      28.307 -10.051  25.129  0.00  0.00    +0.000 C 
ATOM     18  C   UNL     1      28.027 -10.998  23.986  0.00  0.00    +0.000 C 
ENDBRANCH   5  16
TORSDOF 3
ENDMDL
