MODEL 1
REMARK VINA RESULT:      -8.5      0.000      0.000
REMARK  Name = 
REMARK  3 active torsions:
REMARK  status: ('A' for Active; 'I' for Inactive)
REMARK    1  A    between atoms: C_3  and  C_5
REMARK    2  A    between atoms: C_5  and  C_6
REMARK    3  A    between atoms: C_6  and  N_7
REMARK                            x       y       z     vdW  Elec       q    Type
REMARK                         _______ _______ _______ _____ _____    ______ ____
ROOT
ATOM      1  N   UNL     1      15.051  12.332  34.787  0.00  0.00    +0.000 N 
ATOM      2  C   UNL     1      14.874  12.434  33.478  0.00  0.00    +0.000 A 
ATOM      3  C   UNL     1      15.755  11.543  32.861  0.00  0.00    +0.000 A 
ATOM      4  C   UNL     1      16.478  10.885  33.828  0.00  0.00    +0.000 A 
ATOM      5  C   UNL     1      17.457   9.929  33.853  0.00  0.00    +0.000 A 
ATOM      6  C   UNL     1      17.985   9.473  35.034  0.00  0.00    +0.000 A 
ATOM      7  C   UNL     1      17.540   9.970  36.234  0.00  0.00    +0.000 A 
ATOM      8  C   UNL     1      16.556  10.931  36.206  0.00  0.00    +0.000 A 
ATOM      9  C   UNL     1      16.024  11.391  35.026  0.00  0.00    +0.000 A 
ATOM     10  C   UNL     1      15.952  11.275  31.415  0.00  0.00    +0.000 C 
ATOM     11  C   UNL     1      14.665  11.589  30.709  0.00  0.00    +0.000 C 
ATOM     12  C   UNL     1      14.650  13.065  30.351  0.00  0.00    +0.000 C 
ATOM     13  C   UNL     1      14.601  13.938  31.577  0.00  0.00    +0.000 C 
ATOM     14  C   UNL     1      13.899  13.283  32.731  0.00  0.00    +0.000 C 
ENDROOT
BRANCH   1  15
ATOM     15  C   UNL     1      14.422  13.064  35.838  0.00  0.00    +0.000 C 
BRANCH  15  16
ATOM     16  C   UNL     1      12.991  13.027  36.031  0.00  0.00    +0.000 C 
BRANCH  16  19
ATOM     17  N   UNL     1      12.721  10.396  38.702  0.00  0.00    +0.000 NA
ATOM     18  N   UNL     1      13.325  11.292  37.820  0.00  0.00    +0.000 NA
ATOM     19  C   UNL     1      12.431  12.078  36.969  0.00  0.00    +0.000 C 
ATOM     20  O   UNL     1      11.208  11.873  37.113  0.00  0.00    +0.000 OA
ENDBRANCH  16  19
ENDBRANCH  15  16
ENDBRANCH   1  15
TORSDOF 3
ENDMDL
MODEL 2
REMARK VINA RESULT:      -7.5      2.695      6.246
REMARK  Name = 
REMARK  3 active torsions:
REMARK  status: ('A' for Active; 'I' for Inactive)
REMARK    1  A    between atoms: C_3  and  C_5
REMARK    2  A    between atoms: C_5  and  C_6
REMARK    3  A    between atoms: C_6  and  N_7
REMARK                            x       y       z     vdW  Elec       q    Type
REMARK                         _______ _______ _______ _____ _____    ______ ____
ROOT
ATOM      1  N   UNL     1      16.908  11.011  35.648  0.00  0.00    +0.000 N 
ATOM      2  C   UNL     1      17.694  10.441  36.550  0.00  0.00    +0.000 A 
ATOM      3  C   UNL     1      16.983  10.377  37.751  0.00  0.00    +0.000 A 
ATOM      4  C   UNL     1      15.735  10.921  37.563  0.00  0.00    +0.000 A 
ATOM      5  C   UNL     1      14.623  11.137  38.333  0.00  0.00    +0.000 A 
ATOM      6  C   UNL     1      13.497  11.727  37.818  0.00  0.00    +0.000 A 
ATOM      7  C   UNL     1      13.456  12.120  36.503  0.00  0.00    +0.000 A 
ATOM      8  C   UNL     1      14.575  11.902  35.732  0.00  0.00    +0.000 A 
ATOM      9  C   UNL     1      15.705  11.312  36.242  0.00  0.00    +0.000 A 
ATOM     10  C   UNL     1      17.414   9.831  39.061  0.00  0.00    +0.000 C 
ATOM     11  C   UNL     1      18.450   8.777  38.803  0.00  0.00    +0.000 C 
ATOM     12  C   UNL     1      19.814   9.439  38.722  0.00  0.00    +0.000 C 
ATOM     13  C   UNL     1      19.927  10.345  37.524  0.00  0.00    +0.000 C 
ATOM     14  C   UNL     1      19.073   9.897  36.374  0.00  0.00    +0.000 C 
ENDROOT
BRANCH   1  15
ATOM     15  C   UNL     1      17.190  11.340  34.289  0.00  0.00    +0.000 C 
BRANCH  15  16
ATOM     16  C   UNL     1      16.880  10.428  33.213  0.00  0.00    +0.000 C 
BRANCH  16  19
ATOM     17  N   UNL     1      14.625  11.969  30.631  0.00  0.00    +0.000 NA
ATOM     18  N   UNL     1      15.771  11.773  31.401  0.00  0.00    +0.000 NA
ATOM     19  C   UNL     1      15.726  10.687  32.381  0.00  0.00    +0.000 C 
ATOM     20  O   UNL     1      14.662  10.035  32.435  0.00  0.00    +0.000 OA
ENDBRANCH  16  19
ENDBRANCH  15  16
ENDBRANCH   1  15
TORSDOF 3
ENDMDL
MODEL 3
REMARK VINA RESULT:      -7.5      2.523      6.030
REMARK  Name = 
REMARK  3 active torsions:
REMARK  status: ('A' for Active; 'I' for Inactive)
REMARK    1  A    between atoms: C_3  and  C_5
REMARK    2  A    between atoms: C_5  and  C_6
REMARK    3  A    between atoms: C_6  and  N_7
REMARK                            x       y       z     vdW  Elec       q    Type
REMARK                         _______ _______ _______ _____ _____    ______ ____
ROOT
ATOM      1  N   UNL     1      14.913  11.987  36.178  0.00  0.00    +0.000 N 
ATOM      2  C   UNL     1      16.016  11.603  36.804  0.00  0.00    +0.000 A 
ATOM      3  C   UNL     1      15.631  10.954  37.980  0.00  0.00    +0.000 A 
ATOM      4  C   UNL     1      14.258  10.948  38.059  0.00  0.00    +0.000 A 
ATOM      5  C   UNL     1      13.320  10.479  38.940  0.00  0.00    +0.000 A 
ATOM      6  C   UNL     1      11.977  10.643  38.713  0.00  0.00    +0.000 A 
ATOM      7  C   UNL     1      11.536  11.290  37.585  0.00  0.00    +0.000 A 
ATOM      8  C   UNL     1      12.481  11.760  36.702  0.00  0.00    +0.000 A 
ATOM      9  C   UNL     1      13.826  11.597  36.924  0.00  0.00    +0.000 A 
ATOM     10  C   UNL     1      16.481  10.340  39.028  0.00  0.00    +0.000 C 
ATOM     11  C   UNL     1      17.772   9.920  38.388  0.00  0.00    +0.000 C 
ATOM     12  C   UNL     1      18.735  11.095  38.408  0.00  0.00    +0.000 C 
ATOM     13  C   UNL     1      18.258  12.225  37.534  0.00  0.00    +0.000 C 
ATOM     14  C   UNL     1      17.436  11.753  36.369  0.00  0.00    +0.000 C 
ENDROOT
BRANCH   1  15
ATOM     15  C   UNL     1      14.780  12.725  34.964  0.00  0.00    +0.000 C 
BRANCH  15  16
ATOM     16  C   UNL     1      14.921  12.088  33.676  0.00  0.00    +0.000 C 
BRANCH  16  19
ATOM     17  N   UNL     1      15.252  13.448  30.188  0.00  0.00    +0.000 NA
ATOM     18  N   UNL     1      15.541  12.672  31.311  0.00  0.00    +0.000 NA
ATOM     19  C   UNL     1      14.678  12.861  32.477  0.00  0.00    +0.000 C 
ATOM     20  O   UNL     1      13.762  13.700  32.358  0.00  0.00    +0.000 OA
ENDBRANCH  16  19
ENDBRANCH  15  16
ENDBRANCH   1  15
TORSDOF 3
ENDMDL
MODEL 4
REMARK VINA RESULT:      -7.2     17.806     20.080
REMARK  Name = 
REMARK  3 active torsions:
REMARK  status: ('A' for Active; 'I' for Inactive)
REMARK    1  A    between atoms: C_3  and  C_5
REMARK    2  A    between atoms: C_5  and  C_6
REMARK    3  A    between atoms: C_6  and  N_7
REMARK                            x       y       z     vdW  Elec       q    Type
REMARK                         _______ _______ _______ _____ _____    ______ ____
ROOT
ATOM      1  N   UNL     1      26.688  23.448  26.091  0.00  0.00    +0.000 N 
ATOM      2  C   UNL     1      26.937  23.140  27.355  0.00  0.00    +0.000 A 
ATOM      3  C   UNL     1      26.110  23.933  28.155  0.00  0.00    +0.000 A 
ATOM      4  C   UNL     1      25.342  24.737  27.347  0.00  0.00    +0.000 A 
ATOM      5  C   UNL     1      24.378  25.693  27.530  0.00  0.00    +0.000 A 
ATOM      6  C   UNL     1      23.788  26.329  26.468  0.00  0.00    +0.000 A 
ATOM      7  C   UNL     1      24.154  26.022  25.181  0.00  0.00    +0.000 A 
ATOM      8  C   UNL     1      25.122  25.061  25.000  0.00  0.00    +0.000 A 
ATOM      9  C   UNL     1      25.716  24.420  26.059  0.00  0.00    +0.000 A 
ATOM     10  C   UNL     1      26.004  23.973  29.634  0.00  0.00    +0.000 C 
ATOM     11  C   UNL     1      26.408  22.628  30.162  0.00  0.00    +0.000 C 
ATOM     12  C   UNL     1      27.914  22.608  30.352  0.00  0.00    +0.000 C 
ATOM     13  C   UNL     1      28.646  22.706  29.040  0.00  0.00    +0.000 C 
ATOM     14  C   UNL     1      27.874  22.112  27.898  0.00  0.00    +0.000 C 
ENDROOT
BRANCH   1  15
ATOM     15  C   UNL     1      27.304  22.948  24.906  0.00  0.00    +0.000 C 
BRANCH  15  16
ATOM     16  C   UNL     1      28.430  23.619  24.300  0.00  0.00    +0.000 C 
BRANCH  16  19
ATOM     17  N   UNL     1      29.653  24.438  20.842  0.00  0.00    +0.000 NA
ATOM     18  N   UNL     1      29.640  24.391  22.236  0.00  0.00    +0.000 NA
ATOM     19  C   UNL     1      28.506  23.706  22.858  0.00  0.00    +0.000 C 
ATOM     20  O   UNL     1      27.654  23.229  22.081  0.00  0.00    +0.000 OA
ENDBRANCH  16  19
ENDBRANCH  15  16
ENDBRANCH   1  15
TORSDOF 3
ENDMDL
MODEL 5
REMARK VINA RESULT:      -6.8     20.561     22.349
REMARK  Name = 
REMARK  3 active torsions:
REMARK  status: ('A' for Active; 'I' for Inactive)
REMARK    1  A    between atoms: C_3  and  C_5
REMARK    2  A    between atoms: C_5  and  C_6
REMARK    3  A    between atoms: C_6  and  N_7
REMARK                            x       y       z     vdW  Elec       q    Type
REMARK                         _______ _______ _______ _____ _____    ______ ____
ROOT
ATOM      1  N   UNL     1      20.500  -8.637  26.076  0.00  0.00    +0.000 N 
ATOM      2  C   UNL     1      21.532  -8.254  25.338  0.00  0.00    +0.000 A 
ATOM      3  C   UNL     1      21.412  -6.878  25.126  0.00  0.00    +0.000 A 
ATOM      4  C   UNL     1      20.279  -6.424  25.758  0.00  0.00    +0.000 A 
ATOM      5  C   UNL     1      19.647  -5.218  25.911  0.00  0.00    +0.000 A 
ATOM      6  C   UNL     1      18.485  -5.104  26.632  0.00  0.00    +0.000 A 
ATOM      7  C   UNL     1      17.921  -6.207  27.223  0.00  0.00    +0.000 A 
ATOM      8  C   UNL     1      18.558  -7.416  27.067  0.00  0.00    +0.000 A 
ATOM      9  C   UNL     1      19.721  -7.537  26.347  0.00  0.00    +0.000 A 
ATOM     10  C   UNL     1      22.305  -5.971  24.366  0.00  0.00    +0.000 C 
ATOM     11  C   UNL     1      23.686  -6.559  24.386  0.00  0.00    +0.000 C 
ATOM     12  C   UNL     1      23.822  -7.531  23.228  0.00  0.00    +0.000 C 
ATOM     13  C   UNL     1      22.926  -8.730  23.395  0.00  0.00    +0.000 C 
ATOM     14  C   UNL     1      22.674  -9.073  24.835  0.00  0.00    +0.000 C 
ENDROOT
BRANCH   1  15
ATOM     15  C   UNL     1      20.150  -9.947  26.519  0.00  0.00    +0.000 C 
BRANCH  15  16
ATOM     16  C   UNL     1      20.564 -10.441  27.812  0.00  0.00    +0.000 C 
BRANCH  16  19
ATOM     17  N   UNL     1      19.331  -9.680  31.280  0.00  0.00    +0.000 NA
ATOM     18  N   UNL     1      20.234  -9.825  30.227  0.00  0.00    +0.000 NA
ATOM     19  C   UNL     1      19.683 -10.270  28.947  0.00  0.00    +0.000 C 
ATOM     20  O   UNL     1      18.452 -10.479  28.917  0.00  0.00    +0.000 OA
ENDBRANCH  16  19
ENDBRANCH  15  16
ENDBRANCH   1  15
TORSDOF 3
ENDMDL
MODEL 6
REMARK VINA RESULT:      -6.6     21.167     23.016
REMARK  Name = 
REMARK  3 active torsions:
REMARK  status: ('A' for Active; 'I' for Inactive)
REMARK    1  A    between atoms: C_3  and  C_5
REMARK    2  A    between atoms: C_5  and  C_6
REMARK    3  A    between atoms: C_6  and  N_7
REMARK                            x       y       z     vdW  Elec       q    Type
REMARK                         _______ _______ _______ _____ _____    ______ ____
ROOT
ATOM      1  N   UNL     1      20.475  -8.648  25.852  0.00  0.00    +0.000 N 
ATOM      2  C   UNL     1      21.523  -8.252  25.144  0.00  0.00    +0.000 A 
ATOM      3  C   UNL     1      21.459  -6.861  25.036  0.00  0.00    +0.000 A 
ATOM      4  C   UNL     1      20.343  -6.410  25.700  0.00  0.00    +0.000 A 
ATOM      5  C   UNL     1      19.759  -5.195  25.943  0.00  0.00    +0.000 A 
ATOM      6  C   UNL     1      18.601  -5.088  26.670  0.00  0.00    +0.000 A 
ATOM      7  C   UNL     1      17.991  -6.209  27.177  0.00  0.00    +0.000 A 
ATOM      8  C   UNL     1      18.580  -7.428  26.932  0.00  0.00    +0.000 A 
ATOM      9  C   UNL     1      19.739  -7.541  26.204  0.00  0.00    +0.000 A 
ATOM     10  C   UNL     1      22.390  -5.936  24.345  0.00  0.00    +0.000 C 
ATOM     11  C   UNL     1      23.746  -6.579  24.321  0.00  0.00    +0.000 C 
ATOM     12  C   UNL     1      23.846  -7.467  23.093  0.00  0.00    +0.000 C 
ATOM     13  C   UNL     1      22.902  -8.638  23.171  0.00  0.00    +0.000 C 
ATOM     14  C   UNL     1      22.633  -9.076  24.581  0.00  0.00    +0.000 C 
ENDROOT
BRANCH   1  15
ATOM     15  C   UNL     1      20.071  -9.972  26.196  0.00  0.00    +0.000 C 
BRANCH  15  16
ATOM     16  C   UNL     1      19.071 -10.678  25.431  0.00  0.00    +0.000 C 
BRANCH  16  19
ATOM     17  N   UNL     1      19.048  -9.848  21.766  0.00  0.00    +0.000 NA
ATOM     18  N   UNL     1      19.500 -10.384  22.972  0.00  0.00    +0.000 NA
ATOM     19  C   UNL     1      18.662 -10.150  24.148  0.00  0.00    +0.000 C 
ATOM     20  O   UNL     1      17.618  -9.491  23.961  0.00  0.00    +0.000 OA
ENDBRANCH  16  19
ENDBRANCH  15  16
ENDBRANCH   1  15
TORSDOF 3
ENDMDL
MODEL 7
REMARK VINA RESULT:      -6.6      3.844      7.425
REMARK  Name = 
REMARK  3 active torsions:
REMARK  status: ('A' for Active; 'I' for Inactive)
REMARK    1  A    between atoms: C_3  and  C_5
REMARK    2  A    between atoms: C_5  and  C_6
REMARK    3  A    between atoms: C_6  and  N_7
REMARK                            x       y       z     vdW  Elec       q    Type
REMARK                         _______ _______ _______ _____ _____    ______ ____
ROOT
ATOM      1  N   UNL     1      17.290  10.539  38.210  0.00  0.00    +0.000 N 
ATOM      2  C   UNL     1      17.159   9.878  39.351  0.00  0.00    +0.000 A 
ATOM      3  C   UNL     1      15.813   9.934  39.720  0.00  0.00    +0.000 A 
ATOM      4  C   UNL     1      15.117  10.645  38.772  0.00  0.00    +0.000 A 
ATOM      5  C   UNL     1      13.816  11.027  38.578  0.00  0.00    +0.000 A 
ATOM      6  C   UNL     1      13.439  11.762  37.483  0.00  0.00    +0.000 A 
ATOM      7  C   UNL     1      14.367  12.137  36.543  0.00  0.00    +0.000 A 
ATOM      8  C   UNL     1      15.673  11.751  36.740  0.00  0.00    +0.000 A 
ATOM      9  C   UNL     1      16.056  11.015  37.834  0.00  0.00    +0.000 A 
ATOM     10  C   UNL     1      15.148   9.354  40.912  0.00  0.00    +0.000 C 
ATOM     11  C   UNL     1      15.946   8.160  41.350  0.00  0.00    +0.000 C 
ATOM     12  C   UNL     1      17.046   8.622  42.289  0.00  0.00    +0.000 C 
ATOM     13  C   UNL     1      18.059   9.484  41.583  0.00  0.00    +0.000 C 
ATOM     14  C   UNL     1      18.201   9.142  40.127  0.00  0.00    +0.000 C 
ENDROOT
BRANCH   1  15
ATOM     15  C   UNL     1      18.471  10.803  37.455  0.00  0.00    +0.000 C 
BRANCH  15  16
ATOM     16  C   UNL     1      18.988   9.847  36.504  0.00  0.00    +0.000 C 
BRANCH  16  19
ATOM     17  N   UNL     1      17.211  10.114  33.204  0.00  0.00    +0.000 NA
ATOM     18  N   UNL     1      17.985  10.506  34.295  0.00  0.00    +0.000 NA
ATOM     19  C   UNL     1      18.194   9.507  35.344  0.00  0.00    +0.000 C 
ATOM     20  O   UNL     1      17.658   8.394  35.162  0.00  0.00    +0.000 OA
ENDBRANCH  16  19
ENDBRANCH  15  16
ENDBRANCH   1  15
TORSDOF 3
ENDMDL
MODEL 8
REMARK VINA RESULT:      -6.4     18.079     19.968
REMARK  Name = 
REMARK  3 active torsions:
REMARK  status: ('A' for Active; 'I' for Inactive)
REMARK    1  A    between atoms: C_3  and  C_5
REMARK    2  A    between atoms: C_5  and  C_6
REMARK    3  A    between atoms: C_6  and  N_7
REMARK                            x       y       z     vdW  Elec       q    Type
REMARK                         _______ _______ _______ _____ _____    ______ ____
ROOT
ATOM      1  N   UNL     1      27.830  24.158  26.573  0.00  0.00    +0.000 N 
ATOM      2  C   UNL     1      26.747  24.856  26.263  0.00  0.00    +0.000 A 
ATOM      3  C   UNL     1      25.854  24.748  27.331  0.00  0.00    +0.000 A 
ATOM      4  C   UNL     1      26.418  23.967  28.311  0.00  0.00    +0.000 A 
ATOM      5  C   UNL     1      26.051  23.514  29.550  0.00  0.00    +0.000 A 
ATOM      6  C   UNL     1      26.881  22.719  30.299  0.00  0.00    +0.000 A 
ATOM      7  C   UNL     1      28.115  22.355  29.820  0.00  0.00    +0.000 A 
ATOM      8  C   UNL     1      28.482  22.811  28.575  0.00  0.00    +0.000 A 
ATOM      9  C   UNL     1      27.654  23.607  27.821  0.00  0.00    +0.000 A 
ATOM     10  C   UNL     1      24.502  25.341  27.480  0.00  0.00    +0.000 C 
ATOM     11  C   UNL     1      24.451  26.589  26.648  0.00  0.00    +0.000 C 
ATOM     12  C   UNL     1      24.044  26.218  25.233  0.00  0.00    +0.000 C 
ATOM     13  C   UNL     1      25.093  25.381  24.550  0.00  0.00    +0.000 C 
ATOM     14  C   UNL     1      26.481  25.672  25.041  0.00  0.00    +0.000 C 
ENDROOT
BRANCH   1  15
ATOM     15  C   UNL     1      29.001  23.923  25.794  0.00  0.00    +0.000 C 
BRANCH  15  16
ATOM     16  C   UNL     1      29.035  22.903  24.772  0.00  0.00    +0.000 C 
BRANCH  16  19
ATOM     17  N   UNL     1      29.567  24.308  21.327  0.00  0.00    +0.000 NA
ATOM     18  N   UNL     1      29.854  23.976  22.651  0.00  0.00    +0.000 NA
ATOM     19  C   UNL     1      28.804  23.278  23.394  0.00  0.00    +0.000 C 
ATOM     20  O   UNL     1      27.747  23.046  22.772  0.00  0.00    +0.000 OA
ENDBRANCH  16  19
ENDBRANCH  15  16
ENDBRANCH   1  15
TORSDOF 3
ENDMDL
MODEL 9
REMARK VINA RESULT:      -6.4     19.812     21.815
REMARK  Name = 
REMARK  3 active torsions:
REMARK  status: ('A' for Active; 'I' for Inactive)
REMARK    1  A    between atoms: C_3  and  C_5
REMARK    2  A    between atoms: C_5  and  C_6
REMARK    3  A    between atoms: C_6  and  N_7
REMARK                            x       y       z     vdW  Elec       q    Type
REMARK                         _______ _______ _______ _____ _____    ______ ____
ROOT
ATOM      1  N   UNL     1      27.675  24.599  24.050  0.00  0.00    +0.000 N 
ATOM      2  C   UNL     1      26.846  25.013  24.997  0.00  0.00    +0.000 A 
ATOM      3  C   UNL     1      27.257  24.437  26.201  0.00  0.00    +0.000 A 
ATOM      4  C   UNL     1      28.366  23.658  25.970  0.00  0.00    +0.000 A 
ATOM      5  C   UNL     1      29.196  22.870  26.722  0.00  0.00    +0.000 A 
ATOM      6  C   UNL     1      30.254  22.201  26.161  0.00  0.00    +0.000 A 
ATOM      7  C   UNL     1      30.510  22.307  24.816  0.00  0.00    +0.000 A 
ATOM      8  C   UNL     1      29.674  23.099  24.063  0.00  0.00    +0.000 A 
ATOM      9  C   UNL     1      28.614  23.771  24.620  0.00  0.00    +0.000 A 
ATOM     10  C   UNL     1      26.666  24.582  27.554  0.00  0.00    +0.000 C 
ATOM     11  C   UNL     1      25.973  25.911  27.615  0.00  0.00    +0.000 C 
ATOM     12  C   UNL     1      24.553  25.747  27.100  0.00  0.00    +0.000 C 
ATOM     13  C   UNL     1      24.525  25.401  25.635  0.00  0.00    +0.000 C 
ATOM     14  C   UNL     1      25.697  25.960  24.882  0.00  0.00    +0.000 C 
ENDROOT
BRANCH   1  15
ATOM     15  C   UNL     1      27.648  24.871  22.650  0.00  0.00    +0.000 C 
BRANCH  15  16
ATOM     16  C   UNL     1      28.360  25.994  22.087  0.00  0.00    +0.000 C 
BRANCH  16  19
ATOM     17  N   UNL     1      30.417  26.636  19.008  0.00  0.00    +0.000 NA
ATOM     18  N   UNL     1      29.578  26.911  20.088  0.00  0.00    +0.000 NA
ATOM     19  C   UNL     1      29.227  25.781  20.948  0.00  0.00    +0.000 C 
ATOM     20  O   UNL     1      29.711  24.674  20.634  0.00  0.00    +0.000 OA
ENDBRANCH  16  19
ENDBRANCH  15  16
ENDBRANCH   1  15
TORSDOF 3
ENDMDL
MODEL 10
REMARK VINA RESULT:      -6.3     18.300     20.128
REMARK  Name = 
REMARK  3 active torsions:
REMARK  status: ('A' for Active; 'I' for Inactive)
REMARK    1  A    between atoms: C_3  and  C_5
REMARK    2  A    between atoms: C_5  and  C_6
REMARK    3  A    between atoms: C_6  and  N_7
REMARK                            x       y       z     vdW  Elec       q    Type
REMARK                         _______ _______ _______ _____ _____    ______ ____
ROOT
ATOM      1  N   UNL     1      27.539  23.422  25.693  0.00  0.00    +0.000 N 
ATOM      2  C   UNL     1      28.765  23.363  26.192  0.00  0.00    +0.000 A 
ATOM      3  C   UNL     1      29.661  23.541  25.134  0.00  0.00    +0.000 A 
ATOM      4  C   UNL     1      28.951  23.713  23.969  0.00  0.00    +0.000 A 
ATOM      5  C   UNL     1      29.251  23.923  22.650  0.00  0.00    +0.000 A 
ATOM      6  C   UNL     1      28.267  24.058  21.703  0.00  0.00    +0.000 A 
ATOM      7  C   UNL     1      26.943  23.982  22.059  0.00  0.00    +0.000 A 
ATOM      8  C   UNL     1      26.645  23.771  23.386  0.00  0.00    +0.000 A 
ATOM      9  C   UNL     1      27.626  23.636  24.338  0.00  0.00    +0.000 A 
ATOM     10  C   UNL     1      31.143  23.558  25.161  0.00  0.00    +0.000 C 
ATOM     11  C   UNL     1      31.575  24.008  26.527  0.00  0.00    +0.000 C 
ATOM     12  C   UNL     1      31.653  22.796  27.439  0.00  0.00    +0.000 C 
ATOM     13  C   UNL     1      30.297  22.187  27.680  0.00  0.00    +0.000 C 
ATOM     14  C   UNL     1      29.187  23.195  27.614  0.00  0.00    +0.000 C 
ENDROOT
BRANCH   1  15
ATOM     15  C   UNL     1      26.289  23.254  26.360  0.00  0.00    +0.000 C 
BRANCH  15  16
ATOM     16  C   UNL     1      25.640  24.354  27.034  0.00  0.00    +0.000 C 
BRANCH  16  19
ATOM     17  N   UNL     1      26.052  23.310  30.621  0.00  0.00    +0.000 NA
ATOM     18  N   UNL     1      26.101  23.220  29.230  0.00  0.00    +0.000 NA
ATOM     19  C   UNL     1      25.617  24.380  28.480  0.00  0.00    +0.000 C 
ATOM     20  O   UNL     1      25.204  25.344  29.158  0.00  0.00    +0.000 OA
ENDBRANCH  16  19
ENDBRANCH  15  16
ENDBRANCH   1  15
TORSDOF 3
ENDMDL
