MODEL 1
REMARK VINA RESULT:      -6.6      0.000      0.000
REMARK  Name = 
REMARK  2 active torsions:
REMARK  status: ('A' for Active; 'I' for Inactive)
REMARK    1  A    between atoms: C_7  and  S_8
REMARK    2  A    between atoms: C_12  and  C_13
REMARK                            x       y       z     vdW  Elec       q    Type
REMARK                         _______ _______ _______ _____ _____    ______ ____
ROOT
ATOM      1  S   UNL     1      15.791  11.572  36.234  0.00  0.00    +0.000 S 
ATOM      2  C   UNL     1      16.442  10.023  35.626  0.00  0.00    +0.000 C 
ATOM      3  C   UNL     1      17.575  10.355  34.683  0.00  0.00    +0.000 C 
ATOM      4  C   UNL     1      17.269  11.717  34.070  0.00  0.00    +0.000 C 
ATOM      5  C   UNL     1      15.725  11.493  33.544  0.00  0.00    +0.000 C 
ATOM      6  C   UNL     1      15.084  12.369  34.799  0.00  0.00    +0.000 C 
ENDROOT
BRANCH   1  13
ATOM      7  O   UNL     1      10.813  11.222  37.380  0.00  0.00    +0.000 OA
ATOM      8  C   UNL     1      12.098  11.031  37.832  0.00  0.00    +0.000 A 
ATOM      9  C   UNL     1      12.400  10.554  39.088  0.00  0.00    +0.000 A 
ATOM     10  C   UNL     1      13.712  10.393  39.461  0.00  0.00    +0.000 A 
ATOM     11  C   UNL     1      14.734  10.712  38.566  0.00  0.00    +0.000 A 
ATOM     12  O   UNL     1      16.025  10.518  39.026  0.00  0.00    +0.000 OA
ATOM     13  C   UNL     1      14.452  11.191  37.304  0.00  0.00    +0.000 A 
ATOM     14  C   UNL     1      13.144  11.343  36.957  0.00  0.00    +0.000 A 
ENDBRANCH   1  13
BRANCH   5  15
ATOM     15  C   UNL     1      15.782  12.815  32.551  0.00  0.00    +0.000 C 
ATOM     16  C   UNL     1      16.374  12.300  31.255  0.00  0.00    +0.000 C 
ATOM     17  C   UNL     1      15.758  10.958  30.914  0.00  0.00    +0.000 C 
ATOM     18  C   UNL     1      14.251  10.999  31.007  0.00  0.00    +0.000 C 
ATOM     19  C   UNL     1      13.729  12.406  31.161  0.00  0.00    +0.000 C 
ATOM     20  C   UNL     1      14.344  13.155  32.296  0.00  0.00    +0.000 C 
ENDBRANCH   5  15
TORSDOF 2
ENDMDL
MODEL 2
REMARK VINA RESULT:      -6.2     20.160     23.138
REMARK  Name = 
REMARK  2 active torsions:
REMARK  status: ('A' for Active; 'I' for Inactive)
REMARK    1  A    between atoms: C_7  and  S_8
REMARK    2  A    between atoms: C_12  and  C_13
REMARK                            x       y       z     vdW  Elec       q    Type
REMARK                         _______ _______ _______ _____ _____    ______ ____
ROOT
ATOM      1  S   UNL     1      29.711  24.212  23.310  0.00  0.00    +0.000 S 
ATOM      2  C   UNL     1      31.064  24.429  24.457  0.00  0.00    +0.000 C 
ATOM      3  C   UNL     1      31.292  23.099  25.135  0.00  0.00    +0.000 C 
ATOM      4  C   UNL     1      29.953  22.371  25.165  0.00  0.00    +0.000 C 
ATOM      5  C   UNL     1      28.973  23.527  25.806  0.00  0.00    +0.000 C 
ATOM      6  C   UNL     1      28.287  23.878  24.337  0.00  0.00    +0.000 C 
ENDROOT
BRANCH   1  13
ATOM      7  O   UNL     1      28.683  29.227  23.395  0.00  0.00    +0.000 OA
ATOM      8  C   UNL     1      28.936  28.133  22.599  0.00  0.00    +0.000 A 
ATOM      9  C   UNL     1      28.975  28.185  21.224  0.00  0.00    +0.000 A 
ATOM     10  C   UNL     1      29.234  27.045  20.504  0.00  0.00    +0.000 A 
ATOM     11  C   UNL     1      29.457  25.838  21.168  0.00  0.00    +0.000 A 
ATOM     12  O   UNL     1      29.711  24.741  20.363  0.00  0.00    +0.000 OA
ATOM     13  C   UNL     1      29.422  25.765  22.544  0.00  0.00    +0.000 A 
ATOM     14  C   UNL     1      29.162  26.909  23.237  0.00  0.00    +0.000 A 
ENDBRANCH   1  13
BRANCH   5  15
ATOM     15  C   UNL     1      27.788  22.435  26.183  0.00  0.00    +0.000 C 
ATOM     16  C   UNL     1      28.022  22.099  27.642  0.00  0.00    +0.000 C 
ATOM     17  C   UNL     1      28.339  23.367  28.410  0.00  0.00    +0.000 C 
ATOM     18  C   UNL     1      27.340  24.461  28.113  0.00  0.00    +0.000 C 
ATOM     19  C   UNL     1      26.150  23.949  27.339  0.00  0.00    +0.000 C 
ATOM     20  C   UNL     1      26.513  23.218  26.091  0.00  0.00    +0.000 C 
ENDBRANCH   5  15
TORSDOF 2
ENDMDL
MODEL 3
REMARK VINA RESULT:      -6.0      3.900      7.448
REMARK  Name = 
REMARK  2 active torsions:
REMARK  status: ('A' for Active; 'I' for Inactive)
REMARK    1  A    between atoms: C_7  and  S_8
REMARK    2  A    between atoms: C_12  and  C_13
REMARK                            x       y       z     vdW  Elec       q    Type
REMARK                         _______ _______ _______ _____ _____    ______ ____
ROOT
ATOM      1  S   UNL     1      18.450  10.180  37.590  0.00  0.00    +0.000 S 
ATOM      2  C   UNL     1      19.176  11.569  38.448  0.00  0.00    +0.000 C 
ATOM      3  C   UNL     1      20.304  11.031  39.295  0.00  0.00    +0.000 C 
ATOM      4  C   UNL     1      19.947   9.596  39.664  0.00  0.00    +0.000 C 
ATOM      5  C   UNL     1      18.421   9.786  40.252  0.00  0.00    +0.000 C 
ATOM      6  C   UNL     1      17.726   9.173  38.876  0.00  0.00    +0.000 C 
ENDROOT
BRANCH   1  13
ATOM      7  O   UNL     1      13.933  12.521  37.016  0.00  0.00    +0.000 OA
ATOM      8  C   UNL     1      14.983  11.906  36.374  0.00  0.00    +0.000 A 
ATOM      9  C   UNL     1      15.050  11.745  35.008  0.00  0.00    +0.000 A 
ATOM     10  C   UNL     1      16.134  11.119  34.445  0.00  0.00    +0.000 A 
ATOM     11  C   UNL     1      17.165  10.648  35.260  0.00  0.00    +0.000 A 
ATOM     12  O   UNL     1      18.218  10.030  34.608  0.00  0.00    +0.000 OA
ATOM     13  C   UNL     1      17.117  10.799  36.630  0.00  0.00    +0.000 A 
ATOM     14  C   UNL     1      16.030  11.423  37.164  0.00  0.00    +0.000 A 
ENDBRANCH   1  13
BRANCH   5  15
ATOM     15  C   UNL     1      18.432   8.308  40.995  0.00  0.00    +0.000 C 
ATOM     16  C   UNL     1      18.748   8.607  42.446  0.00  0.00    +0.000 C 
ATOM     17  C   UNL     1      17.961   9.822  42.896  0.00  0.00    +0.000 C 
ATOM     18  C   UNL     1      16.501   9.709  42.524  0.00  0.00    +0.000 C 
ATOM     19  C   UNL     1      16.145   8.326  42.037  0.00  0.00    +0.000 C 
ATOM     20  C   UNL     1      17.009   7.840  40.921  0.00  0.00    +0.000 C 
ENDBRANCH   5  15
TORSDOF 2
ENDMDL
MODEL 4
REMARK VINA RESULT:      -6.0     21.068     23.675
REMARK  Name = 
REMARK  2 active torsions:
REMARK  status: ('A' for Active; 'I' for Inactive)
REMARK    1  A    between atoms: C_7  and  S_8
REMARK    2  A    between atoms: C_12  and  C_13
REMARK                            x       y       z     vdW  Elec       q    Type
REMARK                         _______ _______ _______ _____ _____    ______ ____
ROOT
ATOM      1  S   UNL     1      29.776  24.029  25.860  0.00  0.00    +0.000 S 
ATOM      2  C   UNL     1      30.547  22.434  26.089  0.00  0.00    +0.000 C 
ATOM      3  C   UNL     1      31.261  22.470  27.419  0.00  0.00    +0.000 C 
ATOM      4  C   UNL     1      31.668  23.916  27.675  0.00  0.00    +0.000 C 
ATOM      5  C   UNL     1      32.424  24.291  26.261  0.00  0.00    +0.000 C 
ATOM      6  C   UNL     1      31.135  25.180  25.712  0.00  0.00    +0.000 C 
ENDROOT
BRANCH   1  13
ATOM      7  O   UNL     1      29.666  24.549  20.768  0.00  0.00    +0.000 OA
ATOM      8  C   UNL     1      28.935  24.250  21.895  0.00  0.00    +0.000 A 
ATOM      9  C   UNL     1      27.596  23.928  21.870  0.00  0.00    +0.000 A 
ATOM     10  C   UNL     1      26.940  23.644  23.042  0.00  0.00    +0.000 A 
ATOM     11  C   UNL     1      27.632  23.681  24.254  0.00  0.00    +0.000 A 
ATOM     12  O   UNL     1      26.892  23.380  25.383  0.00  0.00    +0.000 OA
ATOM     13  C   UNL     1      28.973  24.001  24.299  0.00  0.00    +0.000 A 
ATOM     14  C   UNL     1      29.601  24.280  23.124  0.00  0.00    +0.000 A 
ENDBRANCH   1  13
BRANCH   5  15
ATOM     15  C   UNL     1      33.161  25.623  26.911  0.00  0.00    +0.000 C 
ATOM     16  C   UNL     1      34.579  25.176  27.203  0.00  0.00    +0.000 C 
ATOM     17  C   UNL     1      35.099  24.349  26.043  0.00  0.00    +0.000 C 
ATOM     18  C   UNL     1      34.858  25.035  24.719  0.00  0.00    +0.000 C 
ATOM     19  C   UNL     1      34.402  26.463  24.894  0.00  0.00    +0.000 C 
ATOM     20  C   UNL     1      33.213  26.610  25.783  0.00  0.00    +0.000 C 
ENDBRANCH   5  15
TORSDOF 2
ENDMDL
MODEL 5
REMARK VINA RESULT:      -5.9     18.421     20.290
REMARK  Name = 
REMARK  2 active torsions:
REMARK  status: ('A' for Active; 'I' for Inactive)
REMARK    1  A    between atoms: C_7  and  S_8
REMARK    2  A    between atoms: C_12  and  C_13
REMARK                            x       y       z     vdW  Elec       q    Type
REMARK                         _______ _______ _______ _____ _____    ______ ____
ROOT
ATOM      1  S   UNL     1      26.101  24.130  26.181  0.00  0.00    +0.000 S 
ATOM      2  C   UNL     1      26.711  25.468  25.167  0.00  0.00    +0.000 C 
ATOM      3  C   UNL     1      27.289  24.852  23.915  0.00  0.00    +0.000 C 
ATOM      4  C   UNL     1      27.786  23.460  24.284  0.00  0.00    +0.000 C 
ATOM      5  C   UNL     1      28.708  23.788  25.608  0.00  0.00    +0.000 C 
ATOM      6  C   UNL     1      27.558  23.210  26.654  0.00  0.00    +0.000 C 
ENDROOT
BRANCH   1  13
ATOM      7  O   UNL     1      25.851  24.663  31.267  0.00  0.00    +0.000 OA
ATOM      8  C   UNL     1      25.351  25.082  30.055  0.00  0.00    +0.000 A 
ATOM      9  C   UNL     1      24.365  26.035  29.927  0.00  0.00    +0.000 A 
ATOM     10  C   UNL     1      23.921  26.396  28.679  0.00  0.00    +0.000 A 
ATOM     11  C   UNL     1      24.470  25.797  27.545  0.00  0.00    +0.000 A 
ATOM     12  O   UNL     1      23.964  26.222  26.330  0.00  0.00    +0.000 OA
ATOM     13  C   UNL     1      25.458  24.841  27.652  0.00  0.00    +0.000 A 
ATOM     14  C   UNL     1      25.882  24.498  28.900  0.00  0.00    +0.000 A 
ENDBRANCH   1  13
BRANCH   5  15
ATOM     15  C   UNL     1      29.483  22.328  25.535  0.00  0.00    +0.000 C 
ATOM     16  C   UNL     1      30.715  22.586  24.691  0.00  0.00    +0.000 C 
ATOM     17  C   UNL     1      31.341  23.906  25.098  0.00  0.00    +0.000 C 
ATOM     18  C   UNL     1      31.507  24.004  26.596  0.00  0.00    +0.000 C 
ATOM     19  C   UNL     1      31.252  22.685  27.284  0.00  0.00    +0.000 C 
ATOM     20  C   UNL     1      29.935  22.073  26.942  0.00  0.00    +0.000 C 
ENDBRANCH   5  15
TORSDOF 2
ENDMDL
MODEL 6
REMARK VINA RESULT:      -5.9      6.789      8.119
REMARK  Name = 
REMARK  2 active torsions:
REMARK  status: ('A' for Active; 'I' for Inactive)
REMARK    1  A    between atoms: C_7  and  S_8
REMARK    2  A    between atoms: C_12  and  C_13
REMARK                            x       y       z     vdW  Elec       q    Type
REMARK                         _______ _______ _______ _____ _____    ______ ____
ROOT
ATOM      1  S   UNL     1      19.313  10.070  39.964  0.00  0.00    +0.000 S 
ATOM      2  C   UNL     1      20.512  10.410  41.245  0.00  0.00    +0.000 C 
ATOM      3  C   UNL     1      21.170  11.725  40.903  0.00  0.00    +0.000 C 
ATOM      4  C   UNL     1      21.137  11.866  39.385  0.00  0.00    +0.000 C 
ATOM      5  C   UNL     1      21.767  10.419  38.915  0.00  0.00    +0.000 C 
ATOM      6  C   UNL     1      20.281   9.820  38.483  0.00  0.00    +0.000 C 
ENDROOT
BRANCH   1  13
ATOM      7  O   UNL     1      19.244   4.954  40.142  0.00  0.00    +0.000 OA
ATOM      8  C   UNL     1      18.550   6.109  40.420  0.00  0.00    +0.000 A 
ATOM      9  C   UNL     1      17.293   6.125  40.983  0.00  0.00    +0.000 A 
ATOM     10  C   UNL     1      16.669   7.323  41.228  0.00  0.00    +0.000 A 
ATOM     11  C   UNL     1      17.311   8.520  40.906  0.00  0.00    +0.000 A 
ATOM     12  O   UNL     1      16.608   9.679  41.189  0.00  0.00    +0.000 OA
ATOM     13  C   UNL     1      18.569   8.525  40.343  0.00  0.00    +0.000 A 
ATOM     14  C   UNL     1      19.167   7.324  40.108  0.00  0.00    +0.000 A 
ENDBRANCH   1  13
BRANCH   5  15
ATOM     15  C   UNL     1      22.078  10.957  37.381  0.00  0.00    +0.000 C 
ATOM     16  C   UNL     1      23.502  11.471  37.434  0.00  0.00    +0.000 C 
ATOM     17  C   UNL     1      24.360  10.507  38.229  0.00  0.00    +0.000 C 
ATOM     18  C   UNL     1      24.166   9.081  37.770  0.00  0.00    +0.000 C 
ATOM     19  C   UNL     1      23.376   9.000  36.487  0.00  0.00    +0.000 C 
ATOM     20  C   UNL     1      22.068   9.717  36.539  0.00  0.00    +0.000 C 
ENDBRANCH   5  15
TORSDOF 2
ENDMDL
MODEL 7
REMARK VINA RESULT:      -5.9     22.087     24.315
REMARK  Name = 
REMARK  2 active torsions:
REMARK  status: ('A' for Active; 'I' for Inactive)
REMARK    1  A    between atoms: C_7  and  S_8
REMARK    2  A    between atoms: C_12  and  C_13
REMARK                            x       y       z     vdW  Elec       q    Type
REMARK                         _______ _______ _______ _____ _____    ______ ____
ROOT
ATOM      1  S   UNL     1      33.569  -3.766  34.751  0.00  0.00    +0.000 S 
ATOM      2  C   UNL     1      31.852  -4.251  34.840  0.00  0.00    +0.000 C 
ATOM      3  C   UNL     1      31.819  -5.758  34.943  0.00  0.00    +0.000 C 
ATOM      4  C   UNL     1      33.058  -6.287  34.231  0.00  0.00    +0.000 C 
ATOM      5  C   UNL     1      32.959  -5.502  32.787  0.00  0.00    +0.000 C 
ATOM      6  C   UNL     1      34.153  -4.426  33.197  0.00  0.00    +0.000 C 
ENDROOT
BRANCH   1  13
ATOM      7  O   UNL     1      34.133   0.577  32.099  0.00  0.00    +0.000 OA
ATOM      8  C   UNL     1      33.878   0.026  33.334  0.00  0.00    +0.000 A 
ATOM      9  C   UNL     1      33.651   0.772  34.468  0.00  0.00    +0.000 A 
ATOM     10  C   UNL     1      33.404   0.142  35.663  0.00  0.00    +0.000 A 
ATOM     11  C   UNL     1      33.384  -1.252  35.723  0.00  0.00    +0.000 A 
ATOM     12  O   UNL     1      33.127  -1.801  36.967  0.00  0.00    +0.000 OA
ATOM     13  C   UNL     1      33.609  -2.017  34.598  0.00  0.00    +0.000 A 
ATOM     14  C   UNL     1      33.852  -1.369  33.425  0.00  0.00    +0.000 A 
ENDBRANCH   1  13
BRANCH   5  15
ATOM     15  C   UNL     1      34.031  -6.530  32.059  0.00  0.00    +0.000 C 
ATOM     16  C   UNL     1      33.168  -7.495  31.271  0.00  0.00    +0.000 C 
ATOM     17  C   UNL     1      32.057  -6.732  30.578  0.00  0.00    +0.000 C 
ATOM     18  C   UNL     1      32.589  -5.529  29.835  0.00  0.00    +0.000 C 
ATOM     19  C   UNL     1      34.096  -5.532  29.754  0.00  0.00    +0.000 C 
ATOM     20  C   UNL     1      34.769  -5.669  31.078  0.00  0.00    +0.000 C 
ENDBRANCH   5  15
TORSDOF 2
ENDMDL
MODEL 8
REMARK VINA RESULT:      -5.8     18.453     20.444
REMARK  Name = 
REMARK  2 active torsions:
REMARK  status: ('A' for Active; 'I' for Inactive)
REMARK    1  A    between atoms: C_7  and  S_8
REMARK    2  A    between atoms: C_12  and  C_13
REMARK                            x       y       z     vdW  Elec       q    Type
REMARK                         _______ _______ _______ _____ _____    ______ ____
ROOT
ATOM      1  S   UNL     1      27.423  22.741  27.572  0.00  0.00    +0.000 S 
ATOM      2  C   UNL     1      26.536  24.289  27.682  0.00  0.00    +0.000 C 
ATOM      3  C   UNL     1      25.457  24.261  26.626  0.00  0.00    +0.000 C 
ATOM      4  C   UNL     1      25.960  23.379  25.489  0.00  0.00    +0.000 C 
ATOM      5  C   UNL     1      27.446  24.030  25.210  0.00  0.00    +0.000 C 
ATOM      6  C   UNL     1      28.227  22.784  25.977  0.00  0.00    +0.000 C 
ENDROOT
BRANCH   1  13
ATOM      7  O   UNL     1      32.264  23.458  29.076  0.00  0.00    +0.000 OA
ATOM      8  C   UNL     1      30.989  23.126  29.473  0.00  0.00    +0.000 A 
ATOM      9  C   UNL     1      30.652  22.821  30.773  0.00  0.00    +0.000 A 
ATOM     10  C   UNL     1      29.354  22.499  31.085  0.00  0.00    +0.000 A 
ATOM     11  C   UNL     1      28.381  22.482  30.085  0.00  0.00    +0.000 A 
ATOM     12  O   UNL     1      27.101  22.147  30.490  0.00  0.00    +0.000 OA
ATOM     13  C   UNL     1      28.699  22.784  28.777  0.00  0.00    +0.000 A 
ATOM     14  C   UNL     1      29.993  23.100  28.492  0.00  0.00    +0.000 A 
ENDBRANCH   1  13
BRANCH   5  15
ATOM     15  C   UNL     1      27.580  23.303  23.730  0.00  0.00    +0.000 C 
ATOM     16  C   UNL     1      27.038  24.322  22.748  0.00  0.00    +0.000 C 
ATOM     17  C   UNL     1      27.554  25.700  23.111  0.00  0.00    +0.000 C 
ATOM     18  C   UNL     1      29.048  25.694  23.333  0.00  0.00    +0.000 C 
ATOM     19  C   UNL     1      29.682  24.397  22.895  0.00  0.00    +0.000 C 
ATOM     20  C   UNL     1      29.057  23.186  23.502  0.00  0.00    +0.000 C 
ENDBRANCH   5  15
TORSDOF 2
ENDMDL
MODEL 9
REMARK VINA RESULT:      -5.7     20.778     22.543
REMARK  Name = 
REMARK  2 active torsions:
REMARK  status: ('A' for Active; 'I' for Inactive)
REMARK    1  A    between atoms: C_7  and  S_8
REMARK    2  A    between atoms: C_12  and  C_13
REMARK                            x       y       z     vdW  Elec       q    Type
REMARK                         _______ _______ _______ _____ _____    ______ ____
ROOT
ATOM      1  S   UNL     1      17.629  -9.383  26.138  0.00  0.00    +0.000 S 
ATOM      2  C   UNL     1      17.127  -9.597  27.839  0.00  0.00    +0.000 C 
ATOM      3  C   UNL     1      16.331 -10.879  27.912  0.00  0.00    +0.000 C 
ATOM      4  C   UNL     1      15.668 -11.077  26.553  0.00  0.00    +0.000 C 
ATOM      5  C   UNL     1      14.954  -9.611  26.328  0.00  0.00    +0.000 C 
ATOM      6  C   UNL     1      16.106  -9.125  25.238  0.00  0.00    +0.000 C 
ENDROOT
BRANCH   1  13
ATOM      7  O   UNL     1      18.109  -4.312  26.655  0.00  0.00    +0.000 OA
ATOM      8  C   UNL     1      18.738  -5.481  26.293  0.00  0.00    +0.000 A 
ATOM      9  C   UNL     1      20.043  -5.540  25.858  0.00  0.00    +0.000 A 
ATOM     10  C   UNL     1      20.596  -6.749  25.515  0.00  0.00    +0.000 A 
ATOM     11  C   UNL     1      19.834  -7.914  25.610  0.00  0.00    +0.000 A 
ATOM     12  O   UNL     1      20.472  -9.087  25.246  0.00  0.00    +0.000 OA
ATOM     13  C   UNL     1      18.526  -7.876  26.045  0.00  0.00    +0.000 A 
ATOM     14  C   UNL     1      17.999  -6.665  26.378  0.00  0.00    +0.000 A 
ENDBRANCH   1  13
BRANCH   5  15
ATOM     15  C   UNL     1      13.960 -10.184  25.135  0.00  0.00    +0.000 C 
ATOM     16  C   UNL     1      12.811 -10.841  25.872  0.00  0.00    +0.000 C 
ATOM     17  C   UNL     1      12.389  -9.967  27.037  0.00  0.00    +0.000 C 
ATOM     18  C   UNL     1      12.196  -8.530  26.612  0.00  0.00    +0.000 C 
ATOM     19  C   UNL     1      12.218  -8.373  25.112  0.00  0.00    +0.000 C 
ATOM     20  C   UNL     1      13.431  -8.952  24.464  0.00  0.00    +0.000 C 
ENDBRANCH   5  15
TORSDOF 2
ENDMDL
MODEL 10
REMARK VINA RESULT:      -5.7     20.002     22.913
REMARK  Name = 
REMARK  2 active torsions:
REMARK  status: ('A' for Active; 'I' for Inactive)
REMARK    1  A    between atoms: C_7  and  S_8
REMARK    2  A    between atoms: C_12  and  C_13
REMARK                            x       y       z     vdW  Elec       q    Type
REMARK                         _______ _______ _______ _____ _____    ______ ____
ROOT
ATOM      1  S   UNL     1      26.876  25.265  24.199  0.00  0.00    +0.000 S 
ATOM      2  C   UNL     1      26.529  23.568  23.758  0.00  0.00    +0.000 C 
ATOM      3  C   UNL     1      25.963  22.895  24.986  0.00  0.00    +0.000 C 
ATOM      4  C   UNL     1      26.555  23.599  26.201  0.00  0.00    +0.000 C 
ATOM      5  C   UNL     1      28.162  23.564  25.841  0.00  0.00    +0.000 C 
ATOM      6  C   UNL     1      28.184  25.166  25.412  0.00  0.00    +0.000 C 
ENDROOT
BRANCH   1  13
ATOM      7  O   UNL     1      29.832  25.351  20.019  0.00  0.00    +0.000 OA
ATOM      8  C   UNL     1      28.965  26.067  20.811  0.00  0.00    +0.000 A 
ATOM      9  C   UNL     1      28.603  27.372  20.558  0.00  0.00    +0.000 A 
ATOM     10  C   UNL     1      27.732  28.016  21.401  0.00  0.00    +0.000 A 
ATOM     11  C   UNL     1      27.215  27.347  22.511  0.00  0.00    +0.000 A 
ATOM     12  O   UNL     1      26.344  28.072  23.305  0.00  0.00    +0.000 OA
ATOM     13  C   UNL     1      27.565  26.041  22.782  0.00  0.00    +0.000 A 
ATOM     14  C   UNL     1      28.432  25.423  21.933  0.00  0.00    +0.000 A 
ENDBRANCH   1  13
BRANCH   5  15
ATOM     15  C   UNL     1      28.604  23.898  27.400  0.00  0.00    +0.000 C 
ATOM     16  C   UNL     1      29.103  22.578  27.952  0.00  0.00    +0.000 C 
ATOM     17  C   UNL     1      29.963  21.886  26.912  0.00  0.00    +0.000 C 
ATOM     18  C   UNL     1      31.000  22.822  26.338  0.00  0.00    +0.000 C 
ATOM     19  C   UNL     1      31.091  24.114  27.111  0.00  0.00    +0.000 C 
ATOM     20  C   UNL     1      29.783  24.815  27.267  0.00  0.00    +0.000 C 
ENDBRANCH   5  15
TORSDOF 2
ENDMDL
