MODEL 1
REMARK VINA RESULT:      -7.0      0.000      0.000
REMARK  Name = 
REMARK  2 active torsions:
REMARK  status: ('A' for Active; 'I' for Inactive)
REMARK    1  A    between atoms: C_5  and  C_6
REMARK    2  A    between atoms: N_16  and  C_17
REMARK                            x       y       z     vdW  Elec       q    Type
REMARK                         _______ _______ _______ _____ _____    ______ ____
ROOT
ATOM      1  C   UNL     1      17.698  11.372  37.320  0.00  0.00    +0.000 A 
ATOM      2  C   UNL     1      18.624  12.097  38.014  0.00  0.00    +0.000 A 
ATOM      3  C   UNL     1      19.867  11.512  37.826  0.00  0.00    +0.000 A 
ATOM      4  C   UNL     1      21.131  11.825  38.287  0.00  0.00    +0.000 A 
ATOM      5  C   UNL     1      22.217  11.046  37.930  0.00  0.00    +0.000 A 
ATOM      6 CL   UNL     1      23.838  11.417  38.500  0.00  0.00    +0.000 Cl
ATOM      7  C   UNL     1      21.988   9.962  37.107  0.00  0.00    +0.000 A 
ATOM      8  O   UNL     1      23.081   9.168  36.741  0.00  0.00    +0.000 OA
ATOM      9  C   UNL     1      20.715   9.659  36.652  0.00  0.00    +0.000 A 
ATOM     10  C   UNL     1      19.627  10.431  37.004  0.00  0.00    +0.000 A 
ATOM     11  N   UNL     1      18.326  10.351  36.704  0.00  0.00    +0.000 N 
ENDROOT
BRANCH   1  16
ATOM     12  O   UNL     1      12.132  12.239  36.853  0.00  0.00    +0.000 OA
ATOM     13  C   UNL     1      13.501  12.010  36.992  0.00  0.00    +0.000 A 
ATOM     14  C   UNL     1      14.349  12.553  36.058  0.00  0.00    +0.000 A 
ATOM     15  C   UNL     1      15.700  12.335  36.182  0.00  0.00    +0.000 A 
ATOM     16  C   UNL     1      16.246  11.592  37.207  0.00  0.00    +0.000 A 
ATOM     17  C   UNL     1      15.370  11.060  38.131  0.00  0.00    +0.000 A 
ATOM     18 CL   UNL     1      15.973  10.094  39.480  0.00  0.00    +0.000 Cl
ATOM     19  C   UNL     1      14.011  11.261  38.031  0.00  0.00    +0.000 A 
ENDBRANCH   1  16
BRANCH  11  20
ATOM     20  C   UNL     1      17.686   9.335  35.853  0.00  0.00    +0.000 C 
ATOM     21 CL   UNL     1      17.622   9.922  34.155  0.00  0.00    +0.000 Cl
ENDBRANCH  11  20
TORSDOF 2
ENDMDL
MODEL 2
REMARK VINA RESULT:      -6.7     18.984     20.542
REMARK  Name = 
REMARK  2 active torsions:
REMARK  status: ('A' for Active; 'I' for Inactive)
REMARK    1  A    between atoms: C_5  and  C_6
REMARK    2  A    between atoms: N_16  and  C_17
REMARK                            x       y       z     vdW  Elec       q    Type
REMARK                         _______ _______ _______ _____ _____    ______ ____
ROOT
ATOM      1  C   UNL     1      27.474  24.711  25.559  0.00  0.00    +0.000 A 
ATOM      2  C   UNL     1      26.754  25.688  26.185  0.00  0.00    +0.000 A 
ATOM      3  C   UNL     1      26.423  25.240  27.456  0.00  0.00    +0.000 A 
ATOM      4  C   UNL     1      25.717  25.809  28.497  0.00  0.00    +0.000 A 
ATOM      5  C   UNL     1      25.537  25.116  29.681  0.00  0.00    +0.000 A 
ATOM      6 CL   UNL     1      24.643  25.813  31.024  0.00  0.00    +0.000 Cl
ATOM      7  C   UNL     1      26.085  23.852  29.774  0.00  0.00    +0.000 A 
ATOM      8  O   UNL     1      25.908  23.143  30.968  0.00  0.00    +0.000 OA
ATOM      9  C   UNL     1      26.791  23.293  28.722  0.00  0.00    +0.000 A 
ATOM     10  C   UNL     1      26.974  23.979  27.539  0.00  0.00    +0.000 A 
ATOM     11  N   UNL     1      27.602  23.666  26.400  0.00  0.00    +0.000 N 
ENDROOT
BRANCH   1  16
ATOM     12  O   UNL     1      29.713  24.733  20.369  0.00  0.00    +0.000 OA
ATOM     13  C   UNL     1      29.138  24.713  21.640  0.00  0.00    +0.000 A 
ATOM     14  C   UNL     1      29.812  25.326  22.668  0.00  0.00    +0.000 A 
ATOM     15  C   UNL     1      29.258  25.313  23.926  0.00  0.00    +0.000 A 
ATOM     16  C   UNL     1      28.049  24.711  24.203  0.00  0.00    +0.000 A 
ATOM     17  C   UNL     1      27.394  24.104  23.151  0.00  0.00    +0.000 A 
ATOM     18 CL   UNL     1      25.841  23.306  23.406  0.00  0.00    +0.000 Cl
ATOM     19  C   UNL     1      27.927  24.101  21.880  0.00  0.00    +0.000 A 
ENDBRANCH   1  16
BRANCH  11  20
ATOM     20  C   UNL     1      28.310  22.409  26.109  0.00  0.00    +0.000 C 
ATOM     21 CL   UNL     1      30.054  22.591  26.509  0.00  0.00    +0.000 Cl
ENDBRANCH  11  20
TORSDOF 2
ENDMDL
MODEL 3
REMARK VINA RESULT:      -6.6      3.005      6.545
REMARK  Name = 
REMARK  2 active torsions:
REMARK  status: ('A' for Active; 'I' for Inactive)
REMARK    1  A    between atoms: C_5  and  C_6
REMARK    2  A    between atoms: N_16  and  C_17
REMARK                            x       y       z     vdW  Elec       q    Type
REMARK                         _______ _______ _______ _____ _____    ______ ____
ROOT
ATOM      1  C   UNL     1      17.467   9.844  38.477  0.00  0.00    +0.000 A 
ATOM      2  C   UNL     1      16.300  10.393  38.928  0.00  0.00    +0.000 A 
ATOM      3  C   UNL     1      15.675  11.026  37.864  0.00  0.00    +0.000 A 
ATOM      4  C   UNL     1      14.491  11.729  37.754  0.00  0.00    +0.000 A 
ATOM      5  C   UNL     1      14.107  12.264  36.537  0.00  0.00    +0.000 A 
ATOM      6 CL   UNL     1      12.607  13.164  36.365  0.00  0.00    +0.000 Cl
ATOM      7  C   UNL     1      14.942  12.066  35.457  0.00  0.00    +0.000 A 
ATOM      8  O   UNL     1      14.561  12.603  34.222  0.00  0.00    +0.000 OA
ATOM      9  C   UNL     1      16.126  11.359  35.580  0.00  0.00    +0.000 A 
ATOM     10  C   UNL     1      16.516  10.823  36.791  0.00  0.00    +0.000 A 
ATOM     11  N   UNL     1      17.588  10.116  37.164  0.00  0.00    +0.000 N 
ENDROOT
BRANCH   1  16
ATOM     12  O   UNL     1      21.318   6.858  41.341  0.00  0.00    +0.000 OA
ATOM     13  C   UNL     1      20.384   7.618  40.637  0.00  0.00    +0.000 A 
ATOM     14  C   UNL     1      19.240   6.998  40.197  0.00  0.00    +0.000 A 
ATOM     15  C   UNL     1      18.311   7.735  39.501  0.00  0.00    +0.000 A 
ATOM     16  C   UNL     1      18.476   9.075  39.224  0.00  0.00    +0.000 A 
ATOM     17  C   UNL     1      19.634   9.672  39.679  0.00  0.00    +0.000 A 
ATOM     18 CL   UNL     1      19.936  11.384  39.375  0.00  0.00    +0.000 Cl
ATOM     19  C   UNL     1      20.583   8.958  40.379  0.00  0.00    +0.000 A 
ENDBRANCH   1  16
BRANCH  11  20
ATOM     20  C   UNL     1      18.706   9.701  36.299  0.00  0.00    +0.000 C 
ATOM     21 CL   UNL     1      18.132   8.473  35.118  0.00  0.00    +0.000 Cl
ENDBRANCH  11  20
TORSDOF 2
ENDMDL
MODEL 4
REMARK VINA RESULT:      -6.5      2.946      6.286
REMARK  Name = 
REMARK  2 active torsions:
REMARK  status: ('A' for Active; 'I' for Inactive)
REMARK    1  A    between atoms: C_5  and  C_6
REMARK    2  A    between atoms: N_16  and  C_17
REMARK                            x       y       z     vdW  Elec       q    Type
REMARK                         _______ _______ _______ _____ _____    ______ ____
ROOT
ATOM      1  C   UNL     1      17.803  10.299  36.865  0.00  0.00    +0.000 A 
ATOM      2  C   UNL     1      18.155   9.867  35.618  0.00  0.00    +0.000 A 
ATOM      3  C   UNL     1      17.292  10.444  34.697  0.00  0.00    +0.000 A 
ATOM      4  C   UNL     1      17.193  10.358  33.322  0.00  0.00    +0.000 A 
ATOM      5  C   UNL     1      16.211  11.060  32.647  0.00  0.00    +0.000 A 
ATOM      6 CL   UNL     1      16.059  10.970  30.898  0.00  0.00    +0.000 Cl
ATOM      7  C   UNL     1      15.349  11.837  33.394  0.00  0.00    +0.000 A 
ATOM      8  O   UNL     1      14.352  12.551  32.719  0.00  0.00    +0.000 OA
ATOM      9  C   UNL     1      15.460  11.915  34.772  0.00  0.00    +0.000 A 
ATOM     10  C   UNL     1      16.437  11.217  35.452  0.00  0.00    +0.000 A 
ATOM     11  N   UNL     1      16.746  11.126  36.750  0.00  0.00    +0.000 N 
ENDROOT
BRANCH   1  16
ATOM     12  O   UNL     1      20.127   8.996  41.850  0.00  0.00    +0.000 OA
ATOM     13  C   UNL     1      19.567   9.342  40.620  0.00  0.00    +0.000 A 
ATOM     14  C   UNL     1      18.695   8.459  40.031  0.00  0.00    +0.000 A 
ATOM     15  C   UNL     1      18.137   8.787  38.818  0.00  0.00    +0.000 A 
ATOM     16  C   UNL     1      18.413   9.968  38.164  0.00  0.00    +0.000 A 
ATOM     17  C   UNL     1      19.292  10.836  38.780  0.00  0.00    +0.000 A 
ATOM     18 CL   UNL     1      19.708  12.374  38.020  0.00  0.00    +0.000 Cl
ATOM     19  C   UNL     1      19.867  10.533  39.994  0.00  0.00    +0.000 A 
ENDBRANCH   1  16
BRANCH  11  20
ATOM     20  C   UNL     1      16.062  11.807  37.861  0.00  0.00    +0.000 C 
ATOM     21 CL   UNL     1      14.477  11.015  38.171  0.00  0.00    +0.000 Cl
ENDBRANCH  11  20
TORSDOF 2
ENDMDL
MODEL 5
REMARK VINA RESULT:      -6.0      3.630      4.942
REMARK  Name = 
REMARK  2 active torsions:
REMARK  status: ('A' for Active; 'I' for Inactive)
REMARK    1  A    between atoms: C_5  and  C_6
REMARK    2  A    between atoms: N_16  and  C_17
REMARK                            x       y       z     vdW  Elec       q    Type
REMARK                         _______ _______ _______ _____ _____    ______ ____
ROOT
ATOM      1  C   UNL     1      17.452  10.066  38.098  0.00  0.00    +0.000 A 
ATOM      2  C   UNL     1      16.490   9.867  39.048  0.00  0.00    +0.000 A 
ATOM      3  C   UNL     1      17.113   9.760  40.282  0.00  0.00    +0.000 A 
ATOM      4  C   UNL     1      16.631   9.558  41.561  0.00  0.00    +0.000 A 
ATOM      5  C   UNL     1      17.504   9.491  42.633  0.00  0.00    +0.000 A 
ATOM      6 CL   UNL     1      16.922   9.235  44.272  0.00  0.00    +0.000 Cl
ATOM      7  C   UNL     1      18.851   9.633  42.374  0.00  0.00    +0.000 A 
ATOM      8  O   UNL     1      19.741   9.566  43.453  0.00  0.00    +0.000 OA
ATOM      9  C   UNL     1      19.321   9.834  41.087  0.00  0.00    +0.000 A 
ATOM     10  C   UNL     1      18.457   9.902  40.013  0.00  0.00    +0.000 A 
ATOM     11  N   UNL     1      18.655  10.085  38.703  0.00  0.00    +0.000 N 
ENDROOT
BRANCH   1  16
ATOM     12  O   UNL     1      16.850  10.691  32.512  0.00  0.00    +0.000 OA
ATOM     13  C   UNL     1      16.993  10.564  33.894  0.00  0.00    +0.000 A 
ATOM     14  C   UNL     1      17.329   9.333  34.403  0.00  0.00    +0.000 A 
ATOM     15  C   UNL     1      17.472   9.194  35.763  0.00  0.00    +0.000 A 
ATOM     16  C   UNL     1      17.293  10.239  36.644  0.00  0.00    +0.000 A 
ATOM     17  C   UNL     1      16.956  11.463  36.104  0.00  0.00    +0.000 A 
ATOM     18 CL   UNL     1      16.705  12.862  37.151  0.00  0.00    +0.000 Cl
ATOM     19  C   UNL     1      16.805  11.632  34.745  0.00  0.00    +0.000 A 
ENDBRANCH   1  16
BRANCH  11  20
ATOM     20  C   UNL     1      19.952  10.275  38.033  0.00  0.00    +0.000 C 
ATOM     21 CL   UNL     1      20.435  12.005  38.131  0.00  0.00    +0.000 Cl
ENDBRANCH  11  20
TORSDOF 2
ENDMDL
MODEL 6
REMARK VINA RESULT:      -6.0     21.177     22.634
REMARK  Name = 
REMARK  2 active torsions:
REMARK  status: ('A' for Active; 'I' for Inactive)
REMARK    1  A    between atoms: C_5  and  C_6
REMARK    2  A    between atoms: N_16  and  C_17
REMARK                            x       y       z     vdW  Elec       q    Type
REMARK                         _______ _______ _______ _____ _____    ______ ____
ROOT
ATOM      1  C   UNL     1      19.526  -9.107  27.369  0.00  0.00    +0.000 A 
ATOM      2  C   UNL     1      20.659  -9.697  26.886  0.00  0.00    +0.000 A 
ATOM      3  C   UNL     1      21.285  -8.804  26.029  0.00  0.00    +0.000 A 
ATOM      4  C   UNL     1      22.443  -8.877  25.279  0.00  0.00    +0.000 A 
ATOM      5  C   UNL     1      22.836  -7.807  24.494  0.00  0.00    +0.000 A 
ATOM      6 CL   UNL     1      24.303  -7.870  23.528  0.00  0.00    +0.000 Cl
ATOM      7  C   UNL     1      22.036  -6.683  24.494  0.00  0.00    +0.000 A 
ATOM      8  O   UNL     1      22.426  -5.596  23.704  0.00  0.00    +0.000 OA
ATOM      9  C   UNL     1      20.878  -6.623  25.251  0.00  0.00    +0.000 A 
ATOM     10  C   UNL     1      20.479  -7.686  26.036  0.00  0.00    +0.000 A 
ATOM     11  N   UNL     1      19.427  -7.872  26.840  0.00  0.00    +0.000 N 
ENDROOT
BRANCH   1  16
ATOM     12  O   UNL     1      15.721 -11.171  31.004  0.00  0.00    +0.000 OA
ATOM     13  C   UNL     1      16.646 -10.674  30.086  0.00  0.00    +0.000 A 
ATOM     14  C   UNL     1      17.684  -9.908  30.558  0.00  0.00    +0.000 A 
ATOM     15  C   UNL     1      18.603  -9.411  29.664  0.00  0.00    +0.000 A 
ATOM     16  C   UNL     1      18.530  -9.649  28.308  0.00  0.00    +0.000 A 
ATOM     17  C   UNL     1      17.477 -10.422  27.863  0.00  0.00    +0.000 A 
ATOM     18 CL   UNL     1      17.298 -10.782  26.144  0.00  0.00    +0.000 Cl
ATOM     19  C   UNL     1      16.541 -10.932  28.736  0.00  0.00    +0.000 A 
ENDBRANCH   1  16
BRANCH  11  20
ATOM     20  C   UNL     1      18.348  -6.906  27.106  0.00  0.00    +0.000 C 
ATOM     21 CL   UNL     1      16.916  -7.304  26.094  0.00  0.00    +0.000 Cl
ENDBRANCH  11  20
TORSDOF 2
ENDMDL
MODEL 7
REMARK VINA RESULT:      -6.0     19.496     20.517
REMARK  Name = 
REMARK  2 active torsions:
REMARK  status: ('A' for Active; 'I' for Inactive)
REMARK    1  A    between atoms: C_5  and  C_6
REMARK    2  A    between atoms: N_16  and  C_17
REMARK                            x       y       z     vdW  Elec       q    Type
REMARK                         _______ _______ _______ _____ _____    ______ ____
ROOT
ATOM      1  C   UNL     1      30.013  22.998  26.372  0.00  0.00    +0.000 A 
ATOM      2  C   UNL     1      30.418  21.891  27.063  0.00  0.00    +0.000 A 
ATOM      3  C   UNL     1      31.383  22.278  27.981  0.00  0.00    +0.000 A 
ATOM      4  C   UNL     1      32.118  21.581  28.920  0.00  0.00    +0.000 A 
ATOM      5  C   UNL     1      33.033  22.241  29.721  0.00  0.00    +0.000 A 
ATOM      6 CL   UNL     1      33.984  21.383  30.924  0.00  0.00    +0.000 Cl
ATOM      7  C   UNL     1      33.177  23.602  29.544  0.00  0.00    +0.000 A 
ATOM      8  O   UNL     1      34.100  24.278  30.350  0.00  0.00    +0.000 OA
ATOM      9  C   UNL     1      32.433  24.289  28.599  0.00  0.00    +0.000 A 
ATOM     10  C   UNL     1      31.518  23.638  27.797  0.00  0.00    +0.000 A 
ATOM     11  N   UNL     1      30.696  24.064  26.832  0.00  0.00    +0.000 N 
ENDROOT
BRANCH   1  16
ATOM     12  O   UNL     1      26.199  23.395  22.219  0.00  0.00    +0.000 OA
ATOM     13  C   UNL     1      27.119  23.298  23.263  0.00  0.00    +0.000 A 
ATOM     14  C   UNL     1      28.455  23.228  22.948  0.00  0.00    +0.000 A 
ATOM     15  C   UNL     1      29.372  23.131  23.967  0.00  0.00    +0.000 A 
ATOM     16  C   UNL     1      29.012  23.102  25.298  0.00  0.00    +0.000 A 
ATOM     17  C   UNL     1      27.664  23.174  25.583  0.00  0.00    +0.000 A 
ATOM     18 CL   UNL     1      27.103  23.143  27.257  0.00  0.00    +0.000 Cl
ATOM     19  C   UNL     1      26.722  23.270  24.583  0.00  0.00    +0.000 A 
ENDBRANCH   1  16
BRANCH  11  20
ATOM     20  C   UNL     1      30.555  25.448  26.352  0.00  0.00    +0.000 C 
ATOM     21 CL   UNL     1      31.700  25.738  24.996  0.00  0.00    +0.000 Cl
ENDBRANCH  11  20
TORSDOF 2
ENDMDL
MODEL 8
REMARK VINA RESULT:      -6.0     19.653     20.940
REMARK  Name = 
REMARK  2 active torsions:
REMARK  status: ('A' for Active; 'I' for Inactive)
REMARK    1  A    between atoms: C_5  and  C_6
REMARK    2  A    between atoms: N_16  and  C_17
REMARK                            x       y       z     vdW  Elec       q    Type
REMARK                         _______ _______ _______ _____ _____    ______ ____
ROOT
ATOM      1  C   UNL     1      27.826  25.106  26.201  0.00  0.00    +0.000 A 
ATOM      2  C   UNL     1      27.962  26.293  25.539  0.00  0.00    +0.000 A 
ATOM      3  C   UNL     1      28.418  26.028  24.256  0.00  0.00    +0.000 A 
ATOM      4  C   UNL     1      28.722  26.841  23.181  0.00  0.00    +0.000 A 
ATOM      5  C   UNL     1      29.167  26.290  21.993  0.00  0.00    +0.000 A 
ATOM      6 CL   UNL     1      29.562  27.298  20.608  0.00  0.00    +0.000 Cl
ATOM      7  C   UNL     1      29.292  24.918  21.928  0.00  0.00    +0.000 A 
ATOM      8  O   UNL     1      29.741  24.352  20.730  0.00  0.00    +0.000 OA
ATOM      9  C   UNL     1      28.983  24.114  23.013  0.00  0.00    +0.000 A 
ATOM     10  C   UNL     1      28.539  24.656  24.202  0.00  0.00    +0.000 A 
ATOM     11  N   UNL     1      28.184  24.108  25.369  0.00  0.00    +0.000 N 
ENDROOT
BRANCH   1  16
ATOM     12  O   UNL     1      26.133  24.178  31.513  0.00  0.00    +0.000 OA
ATOM     13  C   UNL     1      26.524  24.406  30.194  0.00  0.00    +0.000 A 
ATOM     14  C   UNL     1      27.865  24.538  29.927  0.00  0.00    +0.000 A 
ATOM     15  C   UNL     1      28.264  24.764  28.630  0.00  0.00    +0.000 A 
ATOM     16  C   UNL     1      27.375  24.864  27.581  0.00  0.00    +0.000 A 
ATOM     17  C   UNL     1      26.035  24.727  27.880  0.00  0.00    +0.000 A 
ATOM     18 CL   UNL     1      24.820  24.839  26.604  0.00  0.00    +0.000 Cl
ATOM     19  C   UNL     1      25.606  24.501  29.169  0.00  0.00    +0.000 A 
ENDBRANCH   1  16
BRANCH  11  20
ATOM     20  C   UNL     1      28.180  22.673  25.696  0.00  0.00    +0.000 C 
ATOM     21 CL   UNL     1      29.760  22.213  26.421  0.00  0.00    +0.000 Cl
ENDBRANCH  11  20
TORSDOF 2
ENDMDL
MODEL 9
REMARK VINA RESULT:      -5.8     21.263     23.072
REMARK  Name = 
REMARK  2 active torsions:
REMARK  status: ('A' for Active; 'I' for Inactive)
REMARK    1  A    between atoms: C_5  and  C_6
REMARK    2  A    between atoms: N_16  and  C_17
REMARK                            x       y       z     vdW  Elec       q    Type
REMARK                         _______ _______ _______ _____ _____    ______ ____
ROOT
ATOM      1  C   UNL     1      18.596  -9.016  27.683  0.00  0.00    +0.000 A 
ATOM      2  C   UNL     1      18.604  -9.126  29.045  0.00  0.00    +0.000 A 
ATOM      3  C   UNL     1      17.529  -9.918  29.424  0.00  0.00    +0.000 A 
ATOM      4  C   UNL     1      17.069 -10.348  30.653  0.00  0.00    +0.000 A 
ATOM      5  C   UNL     1      15.944 -11.150  30.736  0.00  0.00    +0.000 A 
ATOM      6 CL   UNL     1      15.333 -11.713  32.285  0.00  0.00    +0.000 Cl
ATOM      7  C   UNL     1      15.314 -11.495  29.558  0.00  0.00    +0.000 A 
ATOM      8  O   UNL     1      14.176 -12.306  29.632  0.00  0.00    +0.000 OA
ATOM      9  C   UNL     1      15.786 -11.057  28.332  0.00  0.00    +0.000 A 
ATOM     10  C   UNL     1      16.907 -10.257  28.242  0.00  0.00    +0.000 A 
ATOM     11  N   UNL     1      17.550  -9.714  27.202  0.00  0.00    +0.000 N 
ENDROOT
BRANCH   1  16
ATOM     12  O   UNL     1      22.198  -6.235  24.330  0.00  0.00    +0.000 OA
ATOM     13  C   UNL     1      21.293  -6.898  25.159  0.00  0.00    +0.000 A 
ATOM     14  C   UNL     1      21.549  -8.208  25.485  0.00  0.00    +0.000 A 
ATOM     15  C   UNL     1      20.665  -8.873  26.301  0.00  0.00    +0.000 A 
ATOM     16  C   UNL     1      19.528  -8.283  26.811  0.00  0.00    +0.000 A 
ATOM     17  C   UNL     1      19.298  -6.966  26.467  0.00  0.00    +0.000 A 
ATOM     18 CL   UNL     1      17.869  -6.123  27.069  0.00  0.00    +0.000 Cl
ATOM     19  C   UNL     1      20.166  -6.275  25.650  0.00  0.00    +0.000 A 
ENDBRANCH   1  16
BRANCH  11  20
ATOM     20  C   UNL     1      17.186  -9.851  25.782  0.00  0.00    +0.000 C 
ATOM     21 CL   UNL     1      16.012  -8.566  25.332  0.00  0.00    +0.000 Cl
ENDBRANCH  11  20
TORSDOF 2
ENDMDL
MODEL 10
REMARK VINA RESULT:      -5.8     17.443     18.870
REMARK  Name = 
REMARK  2 active torsions:
REMARK  status: ('A' for Active; 'I' for Inactive)
REMARK    1  A    between atoms: C_5  and  C_6
REMARK    2  A    between atoms: N_16  and  C_17
REMARK                            x       y       z     vdW  Elec       q    Type
REMARK                         _______ _______ _______ _____ _____    ______ ____
ROOT
ATOM      1  C   UNL     1      29.677  22.800  28.295  0.00  0.00    +0.000 A 
ATOM      2  C   UNL     1      30.959  22.342  28.184  0.00  0.00    +0.000 A 
ATOM      3  C   UNL     1      31.422  22.029  29.454  0.00  0.00    +0.000 A 
ATOM      4  C   UNL     1      32.625  21.535  29.918  0.00  0.00    +0.000 A 
ATOM      5  C   UNL     1      32.814  21.314  31.271  0.00  0.00    +0.000 A 
ATOM      6 CL   UNL     1      34.334  20.687  31.893  0.00  0.00    +0.000 Cl
ATOM      7  C   UNL     1      31.766  21.603  32.121  0.00  0.00    +0.000 A 
ATOM      8  O   UNL     1      31.948  21.382  33.491  0.00  0.00    +0.000 OA
ATOM      9  C   UNL     1      30.565  22.098  31.642  0.00  0.00    +0.000 A 
ATOM     10  C   UNL     1      30.369  22.321  30.294  0.00  0.00    +0.000 A 
ATOM     11  N   UNL     1      29.326  22.783  29.596  0.00  0.00    +0.000 N 
ENDROOT
BRANCH   1  16
ATOM     12  O   UNL     1      26.152  24.508  24.219  0.00  0.00    +0.000 OA
ATOM     13  C   UNL     1      27.032  24.113  25.227  0.00  0.00    +0.000 A 
ATOM     14  C   UNL     1      27.027  22.795  25.615  0.00  0.00    +0.000 A 
ATOM     15  C   UNL     1      27.888  22.392  26.607  0.00  0.00    +0.000 A 
ATOM     16  C   UNL     1      28.762  23.255  27.234  0.00  0.00    +0.000 A 
ATOM     17  C   UNL     1      28.745  24.572  26.824  0.00  0.00    +0.000 A 
ATOM     18 CL   UNL     1      29.827  25.753  27.566  0.00  0.00    +0.000 Cl
ATOM     19  C   UNL     1      27.892  25.004  25.832  0.00  0.00    +0.000 A 
ENDBRANCH   1  16
BRANCH  11  20
ATOM     20  C   UNL     1      28.024  23.199  30.142  0.00  0.00    +0.000 C 
ATOM     21 CL   UNL     1      26.898  21.796  30.155  0.00  0.00    +0.000 Cl
ENDBRANCH  11  20
TORSDOF 2
ENDMDL
