MODEL 1
REMARK VINA RESULT:      -5.9      0.000      0.000
REMARK  Name = 
REMARK  4 active torsions:
REMARK  status: ('A' for Active; 'I' for Inactive)
REMARK    1  A    between atoms: C_2  and  C_4
REMARK    2  A    between atoms: C_4  and  C_5
REMARK    3  A    between atoms: N_7  and  C_8
REMARK    4  A    between atoms: C_13  and  C_14
REMARK                            x       y       z     vdW  Elec       q    Type
REMARK                         _______ _______ _______ _____ _____    ______ ____
ROOT
ATOM      1  C   UNL     1      18.093  10.153  37.398  0.00  0.00    +0.000 A 
ATOM      2  N   UNL     1      19.268  10.399  36.812  0.00  0.00    +0.000 NA
ATOM      3  N   UNL     1      20.298  10.071  37.575  0.00  0.00    +0.000 N 
ATOM      4  C   UNL     1      19.767   9.588  38.714  0.00  0.00    +0.000 A 
ATOM      5  C   UNL     1      18.377   9.627  38.633  0.00  0.00    +0.000 A 
ATOM      6  C   UNL     1      17.774   9.097  39.883  0.00  0.00    +0.000 C 
ATOM      7  C   UNL     1      18.931   9.060  40.852  0.00  0.00    +0.000 C 
ATOM      8  N   UNL     1      20.131   9.040  40.001  0.00  0.00    +0.000 NA
ENDROOT
BRANCH   3   9
ATOM      9  C   UNL     1      21.697  10.207  37.245  0.00  0.00    +0.000 A 
ATOM     10  C   UNL     1      22.378   9.258  36.526  0.00  0.00    +0.000 A 
ATOM     11  C   UNL     1      23.734   9.434  36.232  0.00  0.00    +0.000 A 
ATOM     12  C   UNL     1      24.422  10.554  36.651  0.00  0.00    +0.000 A 
ATOM     13  C   UNL     1      23.747  11.521  37.377  0.00  0.00    +0.000 A 
ATOM     14  C   UNL     1      22.395  11.322  37.656  0.00  0.00    +0.000 A 
BRANCH  14  15
ATOM     15  C   UNL     1      21.703  12.328  38.408  0.00  0.00    +0.000 C 
ATOM     16  N   UNL     1      21.169  13.142  39.003  0.00  0.00    +0.000 NA
ENDBRANCH  14  15
ENDBRANCH   3   9
BRANCH   1  17
ATOM     17  C   UNL     1      16.717  10.392  36.841  0.00  0.00    +0.000 C 
BRANCH  17  19
ATOM     18  C   UNL     1      16.042  12.730  36.409  0.00  0.00    +0.000 C 
ATOM     19  C   UNL     1      16.068  11.611  37.399  0.00  0.00    +0.000 C 
ATOM     20  C   UNL     1      14.704  11.237  37.936  0.00  0.00    +0.000 C 
ENDBRANCH  17  19
ENDBRANCH   1  17
TORSDOF 4
ENDMDL
MODEL 2
REMARK VINA RESULT:      -5.8     18.611     21.606
REMARK  Name = 
REMARK  4 active torsions:
REMARK  status: ('A' for Active; 'I' for Inactive)
REMARK    1  A    between atoms: C_2  and  C_4
REMARK    2  A    between atoms: C_4  and  C_5
REMARK    3  A    between atoms: N_7  and  C_8
REMARK    4  A    between atoms: C_13  and  C_14
REMARK                            x       y       z     vdW  Elec       q    Type
REMARK                         _______ _______ _______ _____ _____    ______ ____
ROOT
ATOM      1  C   UNL     1      33.434  -3.575  33.661  0.00  0.00    +0.000 A 
ATOM      2  N   UNL     1      33.886  -3.922  32.453  0.00  0.00    +0.000 NA
ATOM      3  N   UNL     1      33.363  -5.056  32.018  0.00  0.00    +0.000 N 
ATOM      4  C   UNL     1      32.530  -5.469  32.992  0.00  0.00    +0.000 A 
ATOM      5  C   UNL     1      32.553  -4.555  34.043  0.00  0.00    +0.000 A 
ATOM      6  C   UNL     1      31.638  -4.995  35.127  0.00  0.00    +0.000 C 
ATOM      7  C   UNL     1      31.329  -6.431  34.776  0.00  0.00    +0.000 C 
ATOM      8  N   UNL     1      31.614  -6.533  33.336  0.00  0.00    +0.000 NA
ENDROOT
BRANCH   3   9
ATOM      9  C   UNL     1      33.637  -5.709  30.759  0.00  0.00    +0.000 A 
ATOM     10  C   UNL     1      32.910  -5.450  29.625  0.00  0.00    +0.000 A 
ATOM     11  C   UNL     1      33.212  -6.109  28.429  0.00  0.00    +0.000 A 
ATOM     12  C   UNL     1      34.237  -7.028  28.351  0.00  0.00    +0.000 A 
ATOM     13  C   UNL     1      34.980  -7.298  29.489  0.00  0.00    +0.000 A 
ATOM     14  C   UNL     1      34.660  -6.628  30.669  0.00  0.00    +0.000 A 
BRANCH  14  15
ATOM     15  C   UNL     1      35.433  -6.913  31.842  0.00  0.00    +0.000 C 
ATOM     16  N   UNL     1      36.040  -7.161  32.776  0.00  0.00    +0.000 NA
ENDBRANCH  14  15
ENDBRANCH   3   9
BRANCH   1  17
ATOM     17  C   UNL     1      33.797  -2.359  34.468  0.00  0.00    +0.000 C 
BRANCH  17  19
ATOM     18  C   UNL     1      32.472  -0.351  35.039  0.00  0.00    +0.000 C 
ATOM     19  C   UNL     1      33.163  -1.112  33.954  0.00  0.00    +0.000 C 
ATOM     20  C   UNL     1      34.203  -0.306  33.209  0.00  0.00    +0.000 C 
ENDBRANCH  17  19
ENDBRANCH   1  17
TORSDOF 4
ENDMDL
MODEL 3
REMARK VINA RESULT:      -5.6      5.270      7.947
REMARK  Name = 
REMARK  4 active torsions:
REMARK  status: ('A' for Active; 'I' for Inactive)
REMARK    1  A    between atoms: C_2  and  C_4
REMARK    2  A    between atoms: C_4  and  C_5
REMARK    3  A    between atoms: N_7  and  C_8
REMARK    4  A    between atoms: C_13  and  C_14
REMARK                            x       y       z     vdW  Elec       q    Type
REMARK                         _______ _______ _______ _____ _____    ______ ____
ROOT
ATOM      1  C   UNL     1      15.038  12.125  33.506  0.00  0.00    +0.000 A 
ATOM      2  N   UNL     1      15.344  11.414  34.595  0.00  0.00    +0.000 NA
ATOM      3  N   UNL     1      14.783  11.895  35.693  0.00  0.00    +0.000 N 
ATOM      4  C   UNL     1      14.078  12.971  35.300  0.00  0.00    +0.000 A 
ATOM      5  C   UNL     1      14.218  13.143  33.924  0.00  0.00    +0.000 A 
ATOM      6  C   UNL     1      13.446  14.328  33.472  0.00  0.00    +0.000 C 
ATOM      7  C   UNL     1      13.111  15.050  34.756  0.00  0.00    +0.000 C 
ATOM      8  N   UNL     1      13.221  14.021  35.802  0.00  0.00    +0.000 NA
ENDROOT
BRANCH   3   9
ATOM      9  C   UNL     1      14.910  11.366  37.032  0.00  0.00    +0.000 A 
ATOM     10  C   UNL     1      16.128  11.183  37.636  0.00  0.00    +0.000 A 
ATOM     11  C   UNL     1      16.199  10.666  38.933  0.00  0.00    +0.000 A 
ATOM     12  C   UNL     1      15.063  10.328  39.639  0.00  0.00    +0.000 A 
ATOM     13  C   UNL     1      13.827  10.509  39.041  0.00  0.00    +0.000 A 
ATOM     14  C   UNL     1      13.782  11.027  37.747  0.00  0.00    +0.000 A 
BRANCH  14  15
ATOM     15  C   UNL     1      12.499  11.211  37.134  0.00  0.00    +0.000 C 
ATOM     16  N   UNL     1      11.479  11.337  36.638  0.00  0.00    +0.000 NA
ENDBRANCH  14  15
ENDBRANCH   3   9
BRANCH   1  17
ATOM     17  C   UNL     1      15.483  11.881  32.091  0.00  0.00    +0.000 C 
BRANCH  17  19
ATOM     18  C   UNL     1      16.603  13.402  30.496  0.00  0.00    +0.000 C 
ATOM     19  C   UNL     1      15.337  13.083  31.222  0.00  0.00    +0.000 C 
ATOM     20  C   UNL     1      14.142  12.887  30.314  0.00  0.00    +0.000 C 
ENDBRANCH  17  19
ENDBRANCH   1  17
TORSDOF 4
ENDMDL
MODEL 4
REMARK VINA RESULT:      -5.6      2.186      5.735
REMARK  Name = 
REMARK  4 active torsions:
REMARK  status: ('A' for Active; 'I' for Inactive)
REMARK    1  A    between atoms: C_2  and  C_4
REMARK    2  A    between atoms: C_4  and  C_5
REMARK    3  A    between atoms: N_7  and  C_8
REMARK    4  A    between atoms: C_13  and  C_14
REMARK                            x       y       z     vdW  Elec       q    Type
REMARK                         _______ _______ _______ _____ _____    ______ ____
ROOT
ATOM      1  C   UNL     1      17.699   9.674  39.869  0.00  0.00    +0.000 A 
ATOM      2  N   UNL     1      16.760  10.059  39.002  0.00  0.00    +0.000 NA
ATOM      3  N   UNL     1      17.260  10.707  37.962  0.00  0.00    +0.000 N 
ATOM      4  C   UNL     1      18.590  10.746  38.164  0.00  0.00    +0.000 A 
ATOM      5  C   UNL     1      18.899  10.102  39.360  0.00  0.00    +0.000 A 
ATOM      6  C   UNL     1      20.365  10.136  39.598  0.00  0.00    +0.000 C 
ATOM      7  C   UNL     1      20.866  11.160  38.608  0.00  0.00    +0.000 C 
ATOM      8  N   UNL     1      19.820  11.224  37.575  0.00  0.00    +0.000 NA
ENDROOT
BRANCH   3   9
ATOM      9  C   UNL     1      16.521  11.256  36.848  0.00  0.00    +0.000 A 
ATOM     10  C   UNL     1      15.755  12.388  36.962  0.00  0.00    +0.000 A 
ATOM     11  C   UNL     1      15.057  12.880  35.855  0.00  0.00    +0.000 A 
ATOM     12  C   UNL     1      15.114  12.251  34.628  0.00  0.00    +0.000 A 
ATOM     13  C   UNL     1      15.884  11.107  34.499  0.00  0.00    +0.000 A 
ATOM     14  C   UNL     1      16.572  10.637  35.618  0.00  0.00    +0.000 A 
BRANCH  14  15
ATOM     15  C   UNL     1      17.367   9.452  35.477  0.00  0.00    +0.000 C 
ATOM     16  N   UNL     1      18.006   8.511  35.385  0.00  0.00    +0.000 NA
ENDBRANCH  14  15
ENDBRANCH   3   9
BRANCH   1  17
ATOM     17  C   UNL     1      17.513   8.917  41.156  0.00  0.00    +0.000 C 
BRANCH  17  19
ATOM     18  C   UNL     1      17.498   6.453  40.968  0.00  0.00    +0.000 C 
ATOM     19  C   UNL     1      16.672   7.698  40.994  0.00  0.00    +0.000 C 
ATOM     20  C   UNL     1      15.600   7.698  42.062  0.00  0.00    +0.000 C 
ENDBRANCH  17  19
ENDBRANCH   1  17
TORSDOF 4
ENDMDL
MODEL 5
REMARK VINA RESULT:      -5.6      1.375      6.158
REMARK  Name = 
REMARK  4 active torsions:
REMARK  status: ('A' for Active; 'I' for Inactive)
REMARK    1  A    between atoms: C_2  and  C_4
REMARK    2  A    between atoms: C_4  and  C_5
REMARK    3  A    between atoms: N_7  and  C_8
REMARK    4  A    between atoms: C_13  and  C_14
REMARK                            x       y       z     vdW  Elec       q    Type
REMARK                         _______ _______ _______ _____ _____    ______ ____
ROOT
ATOM      1  C   UNL     1      21.104  10.973  37.878  0.00  0.00    +0.000 A 
ATOM      2  N   UNL     1      19.854  10.713  37.484  0.00  0.00    +0.000 NA
ATOM      3  N   UNL     1      19.036  11.734  37.676  0.00  0.00    +0.000 N 
ATOM      4  C   UNL     1      19.789  12.706  38.223  0.00  0.00    +0.000 A 
ATOM      5  C   UNL     1      21.100  12.256  38.364  0.00  0.00    +0.000 A 
ATOM      6  C   UNL     1      21.946  13.317  38.967  0.00  0.00    +0.000 C 
ATOM      7  C   UNL     1      20.946  14.320  39.491  0.00  0.00    +0.000 C 
ATOM      8  N   UNL     1      19.719  14.061  38.722  0.00  0.00    +0.000 NA
ENDROOT
BRANCH   3   9
ATOM      9  C   UNL     1      17.626  11.784  37.362  0.00  0.00    +0.000 A 
ATOM     10  C   UNL     1      17.112  12.653  36.433  0.00  0.00    +0.000 A 
ATOM     11  C   UNL     1      15.739  12.665  36.165  0.00  0.00    +0.000 A 
ATOM     12  C   UNL     1      14.870  11.816  36.816  0.00  0.00    +0.000 A 
ATOM     13  C   UNL     1      15.376  10.933  37.756  0.00  0.00    +0.000 A 
ATOM     14  C   UNL     1      16.748  10.940  38.006  0.00  0.00    +0.000 A 
BRANCH  14  15
ATOM     15  C   UNL     1      17.264  10.024  38.980  0.00  0.00    +0.000 C 
ATOM     16  N   UNL     1      17.658   9.282  39.754  0.00  0.00    +0.000 NA
ENDBRANCH  14  15
ENDBRANCH   3   9
BRANCH   1  17
ATOM     17  C   UNL     1      22.300  10.063  37.814  0.00  0.00    +0.000 C 
BRANCH  17  19
ATOM     18  C   UNL     1      24.200  11.241  36.761  0.00  0.00    +0.000 C 
ATOM     19  C   UNL     1      23.102  10.247  36.572  0.00  0.00    +0.000 C 
ATOM     20  C   UNL     1      23.578   8.893  36.093  0.00  0.00    +0.000 C 
ENDBRANCH  17  19
ENDBRANCH   1  17
TORSDOF 4
ENDMDL
MODEL 6
REMARK VINA RESULT:      -5.5     20.956     22.571
REMARK  Name = 
REMARK  4 active torsions:
REMARK  status: ('A' for Active; 'I' for Inactive)
REMARK    1  A    between atoms: C_2  and  C_4
REMARK    2  A    between atoms: C_4  and  C_5
REMARK    3  A    between atoms: N_7  and  C_8
REMARK    4  A    between atoms: C_13  and  C_14
REMARK                            x       y       z     vdW  Elec       q    Type
REMARK                         _______ _______ _______ _____ _____    ______ ____
ROOT
ATOM      1  C   UNL     1      19.421  -8.722  26.909  0.00  0.00    +0.000 A 
ATOM      2  N   UNL     1      20.447  -8.972  26.091  0.00  0.00    +0.000 NA
ATOM      3  N   UNL     1      20.872  -7.890  25.460  0.00  0.00    +0.000 N 
ATOM      4  C   UNL     1      20.083  -6.886  25.887  0.00  0.00    +0.000 A 
ATOM      5  C   UNL     1      19.157  -7.380  26.803  0.00  0.00    +0.000 A 
ATOM      6  C   UNL     1      18.277  -6.285  27.286  0.00  0.00    +0.000 C 
ATOM      7  C   UNL     1      18.540  -5.159  26.315  0.00  0.00    +0.000 C 
ATOM      8  N   UNL     1      19.854  -5.468  25.731  0.00  0.00    +0.000 NA
ENDROOT
BRANCH   3   9
ATOM      9  C   UNL     1      21.957  -7.813  24.510  0.00  0.00    +0.000 A 
ATOM     10  C   UNL     1      23.096  -7.087  24.753  0.00  0.00    +0.000 A 
ATOM     11  C   UNL     1      24.119  -7.041  23.800  0.00  0.00    +0.000 A 
ATOM     12  C   UNL     1      24.018  -7.715  22.601  0.00  0.00    +0.000 A 
ATOM     13  C   UNL     1      22.875  -8.453  22.343  0.00  0.00    +0.000 A 
ATOM     14  C   UNL     1      21.869  -8.483  23.309  0.00  0.00    +0.000 A 
BRANCH  14  15
ATOM     15  C   UNL     1      20.688  -9.248  23.034  0.00  0.00    +0.000 C 
ATOM     16  N   UNL     1      19.735  -9.841  22.825  0.00  0.00    +0.000 NA
ENDBRANCH  14  15
ENDBRANCH   3   9
BRANCH   1  17
ATOM     17  C   UNL     1      18.683  -9.696  27.787  0.00  0.00    +0.000 C 
BRANCH  17  19
ATOM     18  C   UNL     1      17.614  -9.839  30.011  0.00  0.00    +0.000 C 
ATOM     19  C   UNL     1      18.806  -9.377  29.237  0.00  0.00    +0.000 C 
ATOM     20  C   UNL     1      20.119  -9.927  29.748  0.00  0.00    +0.000 C 
ENDBRANCH  17  19
ENDBRANCH   1  17
TORSDOF 4
ENDMDL
MODEL 7
REMARK VINA RESULT:      -5.5     21.001     22.842
REMARK  Name = 
REMARK  4 active torsions:
REMARK  status: ('A' for Active; 'I' for Inactive)
REMARK    1  A    between atoms: C_2  and  C_4
REMARK    2  A    between atoms: C_4  and  C_5
REMARK    3  A    between atoms: N_7  and  C_8
REMARK    4  A    between atoms: C_13  and  C_14
REMARK                            x       y       z     vdW  Elec       q    Type
REMARK                         _______ _______ _______ _____ _____    ______ ____
ROOT
ATOM      1  C   UNL     1      20.426  -7.963  25.737  0.00  0.00    +0.000 A 
ATOM      2  N   UNL     1      19.595  -8.971  26.018  0.00  0.00    +0.000 NA
ATOM      3  N   UNL     1      18.402  -8.556  26.408  0.00  0.00    +0.000 N 
ATOM      4  C   UNL     1      18.458  -7.211  26.382  0.00  0.00    +0.000 A 
ATOM      5  C   UNL     1      19.723  -6.806  25.962  0.00  0.00    +0.000 A 
ATOM      6  C   UNL     1      19.802  -5.323  25.927  0.00  0.00    +0.000 C 
ATOM      7  C   UNL     1      18.580  -4.879  26.695  0.00  0.00    +0.000 C 
ATOM      8  N   UNL     1      17.665  -6.030  26.638  0.00  0.00    +0.000 NA
ENDROOT
BRANCH   3   9
ATOM      9  C   UNL     1      17.279  -9.383  26.785  0.00  0.00    +0.000 A 
ATOM     10  C   UNL     1      16.234  -9.635  25.932  0.00  0.00    +0.000 A 
ATOM     11  C   UNL     1      15.168 -10.440  26.343  0.00  0.00    +0.000 A 
ATOM     12  C   UNL     1      15.132 -11.001  27.603  0.00  0.00    +0.000 A 
ATOM     13  C   UNL     1      16.180 -10.756  28.474  0.00  0.00    +0.000 A 
ATOM     14  C   UNL     1      17.232  -9.950  28.040  0.00  0.00    +0.000 A 
BRANCH  14  15
ATOM     15  C   UNL     1      18.314  -9.700  28.948  0.00  0.00    +0.000 C 
ATOM     16  N   UNL     1      19.162  -9.487  29.682  0.00  0.00    +0.000 NA
ENDBRANCH  14  15
ENDBRANCH   3   9
BRANCH   1  17
ATOM     17  C   UNL     1      21.851  -8.045  25.264  0.00  0.00    +0.000 C 
BRANCH  17  19
ATOM     18  C   UNL     1      23.133  -6.266  24.125  0.00  0.00    +0.000 C 
ATOM     19  C   UNL     1      22.080  -7.316  23.985  0.00  0.00    +0.000 C 
ATOM     20  C   UNL     1      22.363  -8.324  22.893  0.00  0.00    +0.000 C 
ENDBRANCH  17  19
ENDBRANCH   1  17
TORSDOF 4
ENDMDL
MODEL 8
REMARK VINA RESULT:      -5.5     21.605     23.762
REMARK  Name = 
REMARK  4 active torsions:
REMARK  status: ('A' for Active; 'I' for Inactive)
REMARK    1  A    between atoms: C_2  and  C_4
REMARK    2  A    between atoms: C_4  and  C_5
REMARK    3  A    between atoms: N_7  and  C_8
REMARK    4  A    between atoms: C_13  and  C_14
REMARK                            x       y       z     vdW  Elec       q    Type
REMARK                         _______ _______ _______ _____ _____    ______ ____
ROOT
ATOM      1  C   UNL     1      22.991  -8.745  24.390  0.00  0.00    +0.000 A 
ATOM      2  N   UNL     1      22.331  -7.955  25.242  0.00  0.00    +0.000 NA
ATOM      3  N   UNL     1      21.019  -8.015  25.083  0.00  0.00    +0.000 N 
ATOM      4  C   UNL     1      20.814  -8.886  24.078  0.00  0.00    +0.000 A 
ATOM      5  C   UNL     1      22.040  -9.365  23.619  0.00  0.00    +0.000 A 
ATOM      6  C   UNL     1      21.832 -10.329  22.509  0.00  0.00    +0.000 C 
ATOM      7  C   UNL     1      20.389 -10.120  22.117  0.00  0.00    +0.000 C 
ATOM      8  N   UNL     1      19.766  -9.505  23.299  0.00  0.00    +0.000 NA
ENDROOT
BRANCH   3   9
ATOM      9  C   UNL     1      20.023  -7.290  25.837  0.00  0.00    +0.000 A 
ATOM     10  C   UNL     1      19.856  -5.933  25.718  0.00  0.00    +0.000 A 
ATOM     11  C   UNL     1      18.879  -5.275  26.471  0.00  0.00    +0.000 A 
ATOM     12  C   UNL     1      18.060  -5.960  27.345  0.00  0.00    +0.000 A 
ATOM     13  C   UNL     1      18.217  -7.330  27.474  0.00  0.00    +0.000 A 
ATOM     14  C   UNL     1      19.198  -7.963  26.713  0.00  0.00    +0.000 A 
BRANCH  14  15
ATOM     15  C   UNL     1      19.355  -9.381  26.852  0.00  0.00    +0.000 C 
ATOM     16  N   UNL     1      19.460 -10.513  26.953  0.00  0.00    +0.000 NA
ENDBRANCH  14  15
ENDBRANCH   3   9
BRANCH   1  17
ATOM     17  C   UNL     1      24.477  -8.941  24.276  0.00  0.00    +0.000 C 
BRANCH  17  19
ATOM     18  C   UNL     1      25.939  -7.246  23.228  0.00  0.00    +0.000 C 
ATOM     19  C   UNL     1      25.035  -8.413  22.999  0.00  0.00    +0.000 C 
ATOM     20  C   UNL     1      25.684  -9.551  22.242  0.00  0.00    +0.000 C 
ENDBRANCH  17  19
ENDBRANCH   1  17
TORSDOF 4
ENDMDL
MODEL 9
REMARK VINA RESULT:      -5.5     18.439     20.570
REMARK  Name = 
REMARK  4 active torsions:
REMARK  status: ('A' for Active; 'I' for Inactive)
REMARK    1  A    between atoms: C_2  and  C_4
REMARK    2  A    between atoms: C_4  and  C_5
REMARK    3  A    between atoms: N_7  and  C_8
REMARK    4  A    between atoms: C_13  and  C_14
REMARK                            x       y       z     vdW  Elec       q    Type
REMARK                         _______ _______ _______ _____ _____    ______ ____
ROOT
ATOM      1  C   UNL     1      26.810  23.918  26.827  0.00  0.00    +0.000 A 
ATOM      2  N   UNL     1      26.828  24.736  25.771  0.00  0.00    +0.000 NA
ATOM      3  N   UNL     1      27.883  24.545  24.995  0.00  0.00    +0.000 N 
ATOM      4  C   UNL     1      28.586  23.555  25.575  0.00  0.00    +0.000 A 
ATOM      5  C   UNL     1      27.935  23.137  26.733  0.00  0.00    +0.000 A 
ATOM      6  C   UNL     1      28.698  22.043  27.386  0.00  0.00    +0.000 C 
ATOM      7  C   UNL     1      30.042  22.082  26.698  0.00  0.00    +0.000 C 
ATOM      8  N   UNL     1      29.787  22.766  25.421  0.00  0.00    +0.000 NA
ENDROOT
BRANCH   3   9
ATOM      9  C   UNL     1      28.204  25.259  23.781  0.00  0.00    +0.000 A 
ATOM     10  C   UNL     1      29.114  26.285  23.751  0.00  0.00    +0.000 A 
ATOM     11  C   UNL     1      29.390  26.947  22.551  0.00  0.00    +0.000 A 
ATOM     12  C   UNL     1      28.764  26.596  21.373  0.00  0.00    +0.000 A 
ATOM     13  C   UNL     1      27.843  25.562  21.389  0.00  0.00    +0.000 A 
ATOM     14  C   UNL     1      27.585  24.917  22.598  0.00  0.00    +0.000 A 
BRANCH  14  15
ATOM     15  C   UNL     1      26.630  23.847  22.606  0.00  0.00    +0.000 C 
ATOM     16  N   UNL     1      25.881  22.986  22.629  0.00  0.00    +0.000 NA
ENDBRANCH  14  15
ENDBRANCH   3   9
BRANCH   1  17
ATOM     17  C   UNL     1      25.777  23.840  27.916  0.00  0.00    +0.000 C 
BRANCH  17  19
ATOM     18  C   UNL     1      25.590  25.319  29.888  0.00  0.00    +0.000 C 
ATOM     19  C   UNL     1      26.324  24.179  29.260  0.00  0.00    +0.000 C 
ATOM     20  C   UNL     1      26.349  22.926  30.108  0.00  0.00    +0.000 C 
ENDBRANCH  17  19
ENDBRANCH   1  17
TORSDOF 4
ENDMDL
MODEL 10
REMARK VINA RESULT:      -5.4      1.424      3.105
REMARK  Name = 
REMARK  4 active torsions:
REMARK  status: ('A' for Active; 'I' for Inactive)
REMARK    1  A    between atoms: C_2  and  C_4
REMARK    2  A    between atoms: C_4  and  C_5
REMARK    3  A    between atoms: N_7  and  C_8
REMARK    4  A    between atoms: C_13  and  C_14
REMARK                            x       y       z     vdW  Elec       q    Type
REMARK                         _______ _______ _______ _____ _____    ______ ____
ROOT
ATOM      1  C   UNL     1      18.167   9.260  39.562  0.00  0.00    +0.000 A 
ATOM      2  N   UNL     1      19.475   9.313  39.296  0.00  0.00    +0.000 NA
ATOM      3  N   UNL     1      19.755  10.089  38.262  0.00  0.00    +0.000 N 
ATOM      4  C   UNL     1      18.571  10.564  37.833  0.00  0.00    +0.000 A 
ATOM      5  C   UNL     1      17.549  10.058  38.633  0.00  0.00    +0.000 A 
ATOM      6  C   UNL     1      16.233  10.573  38.174  0.00  0.00    +0.000 C 
ATOM      7  C   UNL     1      16.531  11.157  36.813  0.00  0.00    +0.000 C 
ATOM      8  N   UNL     1      17.979  11.418  36.828  0.00  0.00    +0.000 NA
ENDROOT
BRANCH   3   9
ATOM      9  C   UNL     1      21.063  10.362  37.715  0.00  0.00    +0.000 A 
ATOM     10  C   UNL     1      21.511   9.779  36.556  0.00  0.00    +0.000 A 
ATOM     11  C   UNL     1      22.787  10.074  36.067  0.00  0.00    +0.000 A 
ATOM     12  C   UNL     1      23.627  10.949  36.723  0.00  0.00    +0.000 A 
ATOM     13  C   UNL     1      23.188  11.546  37.894  0.00  0.00    +0.000 A 
ATOM     14  C   UNL     1      21.911  11.236  38.361  0.00  0.00    +0.000 A 
BRANCH  14  15
ATOM     15  C   UNL     1      21.464  11.857  39.573  0.00  0.00    +0.000 C 
ATOM     16  N   UNL     1      21.127  12.347  40.548  0.00  0.00    +0.000 NA
ENDBRANCH  14  15
ENDBRANCH   3   9
BRANCH   1  17
ATOM     17  C   UNL     1      17.478   8.490  40.655  0.00  0.00    +0.000 C 
BRANCH  17  19
ATOM     18  C   UNL     1      15.083   8.457  41.266  0.00  0.00    +0.000 C 
ATOM     19  C   UNL     1      16.353   9.245  41.275  0.00  0.00    +0.000 C 
ATOM     20  C   UNL     1      16.776   9.708  42.652  0.00  0.00    +0.000 C 
ENDBRANCH  17  19
ENDBRANCH   1  17
TORSDOF 4
ENDMDL
