MODEL 1
REMARK VINA RESULT:      -6.2      0.000      0.000
REMARK  Name = 
REMARK  4 active torsions:
REMARK  status: ('A' for Active; 'I' for Inactive)
REMARK    1  A    between atoms: C_4  and  O_5
REMARK    2  A    between atoms: O_5  and  C_6
REMARK    3  A    between atoms: C_6  and  N_7
REMARK    4  A    between atoms: C_16  and  C_17
REMARK                            x       y       z     vdW  Elec       q    Type
REMARK                         _______ _______ _______ _____ _____    ______ ____
ROOT
ATOM      1  C   UNL     1      32.941  24.692  27.482  0.00  0.00    +0.000 C 
ATOM      2  C   UNL     1      31.949  23.855  26.766  0.00  0.00    +0.000 A 
ATOM      3  C   UNL     1      31.704  24.086  25.419  0.00  0.00    +0.000 A 
ATOM      4  C   UNL     1      30.796  23.332  24.730  0.00  0.00    +0.000 A 
ATOM      5  C   UNL     1      30.115  22.320  25.414  0.00  0.00    +0.000 A 
ATOM      6  C   UNL     1      30.373  22.099  26.771  0.00  0.00    +0.000 A 
ATOM      7  C   UNL     1      31.292  22.867  27.455  0.00  0.00    +0.000 A 
ENDROOT
BRANCH   7   8
ATOM      8  C   UNL     1      31.619  22.693  28.891  0.00  0.00    +0.000 C 
ATOM      9  C   UNL     1      30.407  22.819  29.792  0.00  0.00    +0.000 C 
ATOM     10  C   UNL     1      32.381  21.410  29.143  0.00  0.00    +0.000 C 
ENDBRANCH   7   8
BRANCH   4  11
ATOM     11  O   UNL     1      30.521  23.531  23.390  0.00  0.00    +0.000 OA
BRANCH  11  12
ATOM     12  C   UNL     1      29.813  24.626  22.865  0.00  0.00    +0.000 C 
BRANCH  12  13
ATOM     13  N   UNL     1      28.415  24.371  23.077  0.00  0.00    +0.000 N 
ATOM     14  C   UNL     1      27.638  25.003  23.986  0.00  0.00    +0.000 A 
ATOM     15  C   UNL     1      26.347  24.482  23.892  0.00  0.00    +0.000 A 
ATOM     16 CL   UNL     1      25.023  25.025  24.899  0.00  0.00    +0.000 Cl
ATOM     17  C   UNL     1      26.387  23.542  22.919  0.00  0.00    +0.000 A 
ATOM     18  N   UNL     1      25.301  22.748  22.479  0.00  0.00    +0.000 NA
ATOM     19  N   UNL     1      27.646  23.488  22.437  0.00  0.00    +0.000 NA
ENDBRANCH  12  13
ENDBRANCH  11  12
ENDBRANCH   4  11
TORSDOF 4
ENDMDL
MODEL 2
REMARK VINA RESULT:      -5.7      4.452      6.157
REMARK  Name = 
REMARK  4 active torsions:
REMARK  status: ('A' for Active; 'I' for Inactive)
REMARK    1  A    between atoms: C_4  and  O_5
REMARK    2  A    between atoms: O_5  and  C_6
REMARK    3  A    between atoms: C_6  and  N_7
REMARK    4  A    between atoms: C_16  and  C_17
REMARK                            x       y       z     vdW  Elec       q    Type
REMARK                         _______ _______ _______ _____ _____    ______ ____
ROOT
ATOM      1  C   UNL     1      25.849  24.930  30.675  0.00  0.00    +0.000 C 
ATOM      2  C   UNL     1      25.502  24.937  29.234  0.00  0.00    +0.000 A 
ATOM      3  C   UNL     1      26.046  23.975  28.394  0.00  0.00    +0.000 A 
ATOM      4  C   UNL     1      25.745  23.954  27.061  0.00  0.00    +0.000 A 
ATOM      5  C   UNL     1      24.875  24.927  26.560  0.00  0.00    +0.000 A 
ATOM      6  C   UNL     1      24.335  25.890  27.418  0.00  0.00    +0.000 A 
ATOM      7  C   UNL     1      24.645  25.900  28.762  0.00  0.00    +0.000 A 
ENDROOT
BRANCH   7   8
ATOM      8  C   UNL     1      24.113  26.885  29.733  0.00  0.00    +0.000 C 
ATOM      9  C   UNL     1      24.589  28.298  29.460  0.00  0.00    +0.000 C 
ATOM     10  C   UNL     1      22.605  26.808  29.845  0.00  0.00    +0.000 C 
ENDBRANCH   7   8
BRANCH   4  11
ATOM     11  O   UNL     1      26.267  23.015  26.190  0.00  0.00    +0.000 OA
BRANCH  11  12
ATOM     12  C   UNL     1      26.030  22.978  24.806  0.00  0.00    +0.000 C 
BRANCH  12  13
ATOM     13  N   UNL     1      27.285  23.226  24.152  0.00  0.00    +0.000 N 
ATOM     14  C   UNL     1      28.498  23.154  24.746  0.00  0.00    +0.000 A 
ATOM     15  C   UNL     1      29.469  23.462  23.791  0.00  0.00    +0.000 A 
ATOM     16 CL   UNL     1      31.182  23.486  24.146  0.00  0.00    +0.000 Cl
ATOM     17  C   UNL     1      28.803  23.711  22.640  0.00  0.00    +0.000 A 
ATOM     18  N   UNL     1      29.383  24.067  21.399  0.00  0.00    +0.000 NA
ATOM     19  N   UNL     1      27.482  23.564  22.876  0.00  0.00    +0.000 NA
ENDBRANCH  12  13
ENDBRANCH  11  12
ENDBRANCH   4  11
TORSDOF 4
ENDMDL
MODEL 3
REMARK VINA RESULT:      -5.6      2.123      3.062
REMARK  Name = 
REMARK  4 active torsions:
REMARK  status: ('A' for Active; 'I' for Inactive)
REMARK    1  A    between atoms: C_4  and  O_5
REMARK    2  A    between atoms: O_5  and  C_6
REMARK    3  A    between atoms: C_6  and  N_7
REMARK    4  A    between atoms: C_16  and  C_17
REMARK                            x       y       z     vdW  Elec       q    Type
REMARK                         _______ _______ _______ _____ _____    ______ ____
ROOT
ATOM      1  C   UNL     1      29.470  23.106  30.266  0.00  0.00    +0.000 C 
ATOM      2  C   UNL     1      29.606  22.795  28.822  0.00  0.00    +0.000 A 
ATOM      3  C   UNL     1      28.468  22.692  28.034  0.00  0.00    +0.000 A 
ATOM      4  C   UNL     1      28.560  22.408  26.700  0.00  0.00    +0.000 A 
ATOM      5  C   UNL     1      29.830  22.221  26.145  0.00  0.00    +0.000 A 
ATOM      6  C   UNL     1      30.968  22.328  26.952  0.00  0.00    +0.000 A 
ATOM      7  C   UNL     1      30.862  22.617  28.297  0.00  0.00    +0.000 A 
ENDROOT
BRANCH   7   8
ATOM      8  C   UNL     1      32.018  22.747  29.215  0.00  0.00    +0.000 C 
ATOM      9  C   UNL     1      32.795  21.455  29.373  0.00  0.00    +0.000 C 
ATOM     10  C   UNL     1      32.916  23.903  28.829  0.00  0.00    +0.000 C 
ENDBRANCH   7   8
BRANCH   4  11
ATOM     11  O   UNL     1      27.453  22.293  25.881  0.00  0.00    +0.000 OA
BRANCH  11  12
ATOM     12  C   UNL     1      26.713  23.373  25.368  0.00  0.00    +0.000 C 
BRANCH  12  13
ATOM     13  N   UNL     1      27.526  24.008  24.368  0.00  0.00    +0.000 N 
ATOM     14  C   UNL     1      27.937  25.297  24.404  0.00  0.00    +0.000 A 
ATOM     15  C   UNL     1      28.701  25.541  23.262  0.00  0.00    +0.000 A 
ATOM     16 CL   UNL     1      29.427  27.094  22.914  0.00  0.00    +0.000 Cl
ATOM     17  C   UNL     1      28.727  24.380  22.567  0.00  0.00    +0.000 A 
ATOM     18  N   UNL     1      29.388  24.158  21.335  0.00  0.00    +0.000 NA
ATOM     19  N   UNL     1      28.011  23.463  23.251  0.00  0.00    +0.000 NA
ENDBRANCH  12  13
ENDBRANCH  11  12
ENDBRANCH   4  11
TORSDOF 4
ENDMDL
MODEL 4
REMARK VINA RESULT:      -5.6     18.266     19.888
REMARK  Name = 
REMARK  4 active torsions:
REMARK  status: ('A' for Active; 'I' for Inactive)
REMARK    1  A    between atoms: C_4  and  O_5
REMARK    2  A    between atoms: O_5  and  C_6
REMARK    3  A    between atoms: C_6  and  N_7
REMARK    4  A    between atoms: C_16  and  C_17
REMARK                            x       y       z     vdW  Elec       q    Type
REMARK                         _______ _______ _______ _____ _____    ______ ____
ROOT
ATOM      1  C   UNL     1      21.997  11.836  39.772  0.00  0.00    +0.000 C 
ATOM      2  C   UNL     1      21.524  11.086  38.585  0.00  0.00    +0.000 A 
ATOM      3  C   UNL     1      20.161  10.930  38.372  0.00  0.00    +0.000 A 
ATOM      4  C   UNL     1      19.692  10.243  37.287  0.00  0.00    +0.000 A 
ATOM      5  C   UNL     1      20.619   9.699  36.393  0.00  0.00    +0.000 A 
ATOM      6  C   UNL     1      21.989   9.864  36.620  0.00  0.00    +0.000 A 
ATOM      7  C   UNL     1      22.449  10.560  37.719  0.00  0.00    +0.000 A 
ENDROOT
BRANCH   7   8
ATOM      8  C   UNL     1      23.883  10.777  38.026  0.00  0.00    +0.000 C 
ATOM      9  C   UNL     1      24.643   9.484  38.244  0.00  0.00    +0.000 C 
ATOM     10  C   UNL     1      24.553  11.660  36.995  0.00  0.00    +0.000 C 
ENDBRANCH   7   8
BRANCH   4  11
ATOM     11  O   UNL     1      18.344  10.063  37.041  0.00  0.00    +0.000 OA
BRANCH  11  12
ATOM     12  C   UNL     1      17.809   9.397  35.924  0.00  0.00    +0.000 C 
BRANCH  12  13
ATOM     13  N   UNL     1      16.881  10.297  35.297  0.00  0.00    +0.000 N 
ATOM     14  C   UNL     1      16.646  10.369  33.966  0.00  0.00    +0.000 A 
ATOM     15  C   UNL     1      15.687  11.359  33.747  0.00  0.00    +0.000 A 
ATOM     16 CL   UNL     1      15.095  11.778  32.155  0.00  0.00    +0.000 Cl
ATOM     17  C   UNL     1      15.370  11.857  34.965  0.00  0.00    +0.000 A 
ATOM     18  N   UNL     1      14.435  12.886  35.230  0.00  0.00    +0.000 NA
ATOM     19  N   UNL     1      16.102  11.203  35.891  0.00  0.00    +0.000 NA
ENDBRANCH  12  13
ENDBRANCH  11  12
ENDBRANCH   4  11
TORSDOF 4
ENDMDL
MODEL 5
REMARK VINA RESULT:      -5.5     12.572     14.473
REMARK  Name = 
REMARK  4 active torsions:
REMARK  status: ('A' for Active; 'I' for Inactive)
REMARK    1  A    between atoms: C_4  and  O_5
REMARK    2  A    between atoms: O_5  and  C_6
REMARK    3  A    between atoms: C_6  and  N_7
REMARK    4  A    between atoms: C_16  and  C_17
REMARK                            x       y       z     vdW  Elec       q    Type
REMARK                         _______ _______ _______ _____ _____    ______ ____
ROOT
ATOM      1  C   UNL     1      36.371  22.150   9.564  0.00  0.00    +0.000 C 
ATOM      2  C   UNL     1      35.328  21.559  10.437  0.00  0.00    +0.000 A 
ATOM      3  C   UNL     1      34.002  21.932  10.265  0.00  0.00    +0.000 A 
ATOM      4  C   UNL     1      33.016  21.406  11.053  0.00  0.00    +0.000 A 
ATOM      5  C   UNL     1      33.375  20.482  12.039  0.00  0.00    +0.000 A 
ATOM      6  C   UNL     1      34.716  20.116  12.200  0.00  0.00    +0.000 A 
ATOM      7  C   UNL     1      35.700  20.654  11.398  0.00  0.00    +0.000 A 
ENDROOT
BRANCH   7   8
ATOM      8  C   UNL     1      37.140  20.316  11.507  0.00  0.00    +0.000 C 
ATOM      9  C   UNL     1      37.766  20.809  12.796  0.00  0.00    +0.000 C 
ATOM     10  C   UNL     1      37.390  18.840  11.284  0.00  0.00    +0.000 C 
ENDBRANCH   7   8
BRANCH   4  11
ATOM     11  O   UNL     1      31.685  21.751  10.918  0.00  0.00    +0.000 OA
BRANCH  11  12
ATOM     12  C   UNL     1      30.603  21.012  11.426  0.00  0.00    +0.000 C 
BRANCH  12  13
ATOM     13  N   UNL     1      29.676  21.950  11.996  0.00  0.00    +0.000 N 
ATOM     14  C   UNL     1      28.508  22.332  11.430  0.00  0.00    +0.000 A 
ATOM     15  C   UNL     1      27.893  23.252  12.280  0.00  0.00    +0.000 A 
ATOM     16 CL   UNL     1      26.353  24.001  11.921  0.00  0.00    +0.000 Cl
ATOM     17  C   UNL     1      28.717  23.396  13.344  0.00  0.00    +0.000 A 
ATOM     18  N   UNL     1      28.499  24.234  14.463  0.00  0.00    +0.000 NA
ATOM     19  N   UNL     1      29.791  22.601  13.155  0.00  0.00    +0.000 NA
ENDBRANCH  12  13
ENDBRANCH  11  12
ENDBRANCH   4  11
TORSDOF 4
ENDMDL
MODEL 6
REMARK VINA RESULT:      -5.4     13.892     16.469
REMARK  Name = 
REMARK  4 active torsions:
REMARK  status: ('A' for Active; 'I' for Inactive)
REMARK    1  A    between atoms: C_4  and  O_5
REMARK    2  A    between atoms: O_5  and  C_6
REMARK    3  A    between atoms: C_6  and  N_7
REMARK    4  A    between atoms: C_16  and  C_17
REMARK                            x       y       z     vdW  Elec       q    Type
REMARK                         _______ _______ _______ _____ _____    ______ ____
ROOT
ATOM      1  C   UNL     1      31.042  21.846   6.368  0.00  0.00    +0.000 C 
ATOM      2  C   UNL     1      31.725  21.458   7.625  0.00  0.00    +0.000 A 
ATOM      3  C   UNL     1      31.431  22.135   8.801  0.00  0.00    +0.000 A 
ATOM      4  C   UNL     1      32.044  21.802   9.976  0.00  0.00    +0.000 A 
ATOM      5  C   UNL     1      32.978  20.762   9.968  0.00  0.00    +0.000 A 
ATOM      6  C   UNL     1      33.264  20.088   8.775  0.00  0.00    +0.000 A 
ATOM      7  C   UNL     1      32.638  20.434   7.596  0.00  0.00    +0.000 A 
ENDROOT
BRANCH   7   8
ATOM      8  C   UNL     1      32.887  19.769   6.295  0.00  0.00    +0.000 C 
ATOM      9  C   UNL     1      34.333  19.862   5.851  0.00  0.00    +0.000 C 
ATOM     10  C   UNL     1      32.383  18.341   6.287  0.00  0.00    +0.000 C 
ENDBRANCH   7   8
BRANCH   4  11
ATOM     11  O   UNL     1      31.783  22.453  11.168  0.00  0.00    +0.000 OA
BRANCH  11  12
ATOM     12  C   UNL     1      31.207  21.857  12.303  0.00  0.00    +0.000 C 
BRANCH  12  13
ATOM     13  N   UNL     1      29.836  22.284  12.359  0.00  0.00    +0.000 N 
ATOM     14  C   UNL     1      28.889  21.978  11.442  0.00  0.00    +0.000 A 
ATOM     15  C   UNL     1      27.691  22.573  11.840  0.00  0.00    +0.000 A 
ATOM     16 CL   UNL     1      26.205  22.429  10.929  0.00  0.00    +0.000 Cl
ATOM     17  C   UNL     1      27.956  23.225  12.997  0.00  0.00    +0.000 A 
ATOM     18  N   UNL     1      27.034  23.974  13.764  0.00  0.00    +0.000 NA
ATOM     19  N   UNL     1      29.259  23.039  13.295  0.00  0.00    +0.000 NA
ENDBRANCH  12  13
ENDBRANCH  11  12
ENDBRANCH   4  11
TORSDOF 4
ENDMDL
MODEL 7
REMARK VINA RESULT:      -5.2     20.296     21.875
REMARK  Name = 
REMARK  4 active torsions:
REMARK  status: ('A' for Active; 'I' for Inactive)
REMARK    1  A    between atoms: C_4  and  O_5
REMARK    2  A    between atoms: O_5  and  C_6
REMARK    3  A    between atoms: C_6  and  N_7
REMARK    4  A    between atoms: C_16  and  C_17
REMARK                            x       y       z     vdW  Elec       q    Type
REMARK                         _______ _______ _______ _____ _____    ______ ____
ROOT
ATOM      1  C   UNL     1      23.209   3.040  15.030  0.00  0.00    +0.000 C 
ATOM      2  C   UNL     1      23.806   3.253  16.370  0.00  0.00    +0.000 A 
ATOM      3  C   UNL     1      24.642   4.341  16.582  0.00  0.00    +0.000 A 
ATOM      4  C   UNL     1      25.209   4.565  17.805  0.00  0.00    +0.000 A 
ATOM      5  C   UNL     1      24.928   3.670  18.843  0.00  0.00    +0.000 A 
ATOM      6  C   UNL     1      24.084   2.578  18.614  0.00  0.00    +0.000 A 
ATOM      7  C   UNL     1      23.518   2.364  17.375  0.00  0.00    +0.000 A 
ENDROOT
BRANCH   7   8
ATOM      8  C   UNL     1      22.615   1.232  17.057  0.00  0.00    +0.000 C 
ATOM      9  C   UNL     1      23.244  -0.120  17.329  0.00  0.00    +0.000 C 
ATOM     10  C   UNL     1      21.270   1.377  17.734  0.00  0.00    +0.000 C 
ENDBRANCH   7   8
BRANCH   4  11
ATOM     11  O   UNL     1      26.048   5.634  18.057  0.00  0.00    +0.000 OA
BRANCH  11  12
ATOM     12  C   UNL     1      26.030   6.856  17.362  0.00  0.00    +0.000 C 
BRANCH  12  13
ATOM     13  N   UNL     1      27.248   6.931  16.603  0.00  0.00    +0.000 N 
ATOM     14  C   UNL     1      28.478   6.619  17.074  0.00  0.00    +0.000 A 
ATOM     15  C   UNL     1      29.400   6.820  16.046  0.00  0.00    +0.000 A 
ATOM     16 CL   UNL     1      31.116   6.534  16.235  0.00  0.00    +0.000 Cl
ATOM     17  C   UNL     1      28.690   7.252  14.978  0.00  0.00    +0.000 A 
ATOM     18  N   UNL     1      29.214   7.584  13.706  0.00  0.00    +0.000 NA
ATOM     19  N   UNL     1      27.390   7.313  15.333  0.00  0.00    +0.000 NA
ENDBRANCH  12  13
ENDBRANCH  11  12
ENDBRANCH   4  11
TORSDOF 4
ENDMDL
MODEL 8
REMARK VINA RESULT:      -5.2     31.112     32.234
REMARK  Name = 
REMARK  4 active torsions:
REMARK  status: ('A' for Active; 'I' for Inactive)
REMARK    1  A    between atoms: C_4  and  O_5
REMARK    2  A    between atoms: O_5  and  C_6
REMARK    3  A    between atoms: C_6  and  N_7
REMARK    4  A    between atoms: C_16  and  C_17
REMARK                            x       y       z     vdW  Elec       q    Type
REMARK                         _______ _______ _______ _____ _____    ______ ____
ROOT
ATOM      1  C   UNL     1      24.846  -9.687  21.337  0.00  0.00    +0.000 C 
ATOM      2  C   UNL     1      24.624  -8.585  22.304  0.00  0.00    +0.000 A 
ATOM      3  C   UNL     1      23.330  -8.258  22.684  0.00  0.00    +0.000 A 
ATOM      4  C   UNL     1      23.092  -7.248  23.573  0.00  0.00    +0.000 A 
ATOM      5  C   UNL     1      24.185  -6.548  24.093  0.00  0.00    +0.000 A 
ATOM      6  C   UNL     1      25.484  -6.889  23.701  0.00  0.00    +0.000 A 
ATOM      7  C   UNL     1      25.710  -7.911  22.803  0.00  0.00    +0.000 A 
ENDROOT
BRANCH   7   8
ATOM      8  C   UNL     1      27.055  -8.331  22.341  0.00  0.00    +0.000 C 
ATOM      9  C   UNL     1      27.934  -7.162  21.942  0.00  0.00    +0.000 C 
ATOM     10  C   UNL     1      27.738  -9.237  23.343  0.00  0.00    +0.000 C 
ENDBRANCH   7   8
BRANCH   4  11
ATOM     11  O   UNL     1      21.819  -6.888  23.976  0.00  0.00    +0.000 OA
BRANCH  11  12
ATOM     12  C   UNL     1      21.509  -6.225  25.176  0.00  0.00    +0.000 C 
BRANCH  12  13
ATOM     13  N   UNL     1      20.218  -6.695  25.599  0.00  0.00    +0.000 N 
ATOM     14  C   UNL     1      19.753  -7.953  25.423  0.00  0.00    +0.000 A 
ATOM     15  C   UNL     1      18.468  -8.021  25.964  0.00  0.00    +0.000 A 
ATOM     16 CL   UNL     1      17.500  -9.478  25.945  0.00  0.00    +0.000 Cl
ATOM     17  C   UNL     1      18.197  -6.788  26.455  0.00  0.00    +0.000 A 
ATOM     18  N   UNL     1      17.001  -6.389  27.097  0.00  0.00    +0.000 NA
ATOM     19  N   UNL     1      19.268  -5.999  26.225  0.00  0.00    +0.000 NA
ENDBRANCH  12  13
ENDBRANCH  11  12
ENDBRANCH   4  11
TORSDOF 4
ENDMDL
MODEL 9
REMARK VINA RESULT:      -5.2      5.013      7.523
REMARK  Name = 
REMARK  4 active torsions:
REMARK  status: ('A' for Active; 'I' for Inactive)
REMARK    1  A    between atoms: C_4  and  O_5
REMARK    2  A    between atoms: O_5  and  C_6
REMARK    3  A    between atoms: C_6  and  N_7
REMARK    4  A    between atoms: C_16  and  C_17
REMARK                            x       y       z     vdW  Elec       q    Type
REMARK                         _______ _______ _______ _____ _____    ______ ____
ROOT
ATOM      1  C   UNL     1      29.455  23.422  23.414  0.00  0.00    +0.000 C 
ATOM      2  C   UNL     1      29.185  23.034  24.819  0.00  0.00    +0.000 A 
ATOM      3  C   UNL     1      30.215  22.522  25.597  0.00  0.00    +0.000 A 
ATOM      4  C   UNL     1      29.999  22.155  26.896  0.00  0.00    +0.000 A 
ATOM      5  C   UNL     1      28.714  22.307  27.426  0.00  0.00    +0.000 A 
ATOM      6  C   UNL     1      27.686  22.825  26.630  0.00  0.00    +0.000 A 
ATOM      7  C   UNL     1      27.918  23.192  25.320  0.00  0.00    +0.000 A 
ENDROOT
BRANCH   7   8
ATOM      8  C   UNL     1      26.883  23.748  24.416  0.00  0.00    +0.000 C 
ATOM      9  C   UNL     1      25.641  22.881  24.337  0.00  0.00    +0.000 C 
ATOM     10  C   UNL     1      26.549  25.184  24.757  0.00  0.00    +0.000 C 
ENDBRANCH   7   8
BRANCH   4  11
ATOM     11  O   UNL     1      30.995  21.638  27.704  0.00  0.00    +0.000 OA
BRANCH  11  12
ATOM     12  C   UNL     1      32.075  22.372  28.224  0.00  0.00    +0.000 C 
BRANCH  12  13
ATOM     13  N   UNL     1      32.255  21.956  29.587  0.00  0.00    +0.000 N 
ATOM     14  C   UNL     1      33.432  21.569  30.133  0.00  0.00    +0.000 A 
ATOM     15  C   UNL     1      33.203  21.240  31.469  0.00  0.00    +0.000 A 
ATOM     16 CL   UNL     1      34.467  20.685  32.544  0.00  0.00    +0.000 Cl
ATOM     17  C   UNL     1      31.883  21.440  31.689  0.00  0.00    +0.000 A 
ATOM     18  N   UNL     1      31.198  21.232  32.911  0.00  0.00    +0.000 NA
ATOM     19  N   UNL     1      31.325  21.873  30.540  0.00  0.00    +0.000 NA
ENDBRANCH  12  13
ENDBRANCH  11  12
ENDBRANCH   4  11
TORSDOF 4
ENDMDL
MODEL 10
REMARK VINA RESULT:      -5.2     21.325     23.046
REMARK  Name = 
REMARK  4 active torsions:
REMARK  status: ('A' for Active; 'I' for Inactive)
REMARK    1  A    between atoms: C_4  and  O_5
REMARK    2  A    between atoms: O_5  and  C_6
REMARK    3  A    between atoms: C_6  and  N_7
REMARK    4  A    between atoms: C_16  and  C_17
REMARK                            x       y       z     vdW  Elec       q    Type
REMARK                         _______ _______ _______ _____ _____    ______ ____
ROOT
ATOM      1  C   UNL     1      16.754   9.406  42.800  0.00  0.00    +0.000 C 
ATOM      2  C   UNL     1      17.402   8.893  41.568  0.00  0.00    +0.000 A 
ATOM      3  C   UNL     1      17.284   9.609  40.385  0.00  0.00    +0.000 A 
ATOM      4  C   UNL     1      17.869   9.164  39.233  0.00  0.00    +0.000 A 
ATOM      5  C   UNL     1      18.590   7.967  39.272  0.00  0.00    +0.000 A 
ATOM      6  C   UNL     1      18.700   7.256  40.472  0.00  0.00    +0.000 A 
ATOM      7  C   UNL     1      18.106   7.717  41.628  0.00  0.00    +0.000 A 
ENDROOT
BRANCH   7   8
ATOM      8  C   UNL     1      18.178   7.022  42.936  0.00  0.00    +0.000 C 
ATOM      9  C   UNL     1      17.437   5.701  42.944  0.00  0.00    +0.000 C 
ATOM     10  C   UNL     1      19.606   6.873  43.416  0.00  0.00    +0.000 C 
ENDBRANCH   7   8
BRANCH   4  11
ATOM     11  O   UNL     1      17.773   9.844  38.033  0.00  0.00    +0.000 OA
BRANCH  11  12
ATOM     12  C   UNL     1      18.228   9.362  36.793  0.00  0.00    +0.000 C 
BRANCH  12  13
ATOM     13  N   UNL     1      17.454  10.015  35.773  0.00  0.00    +0.000 N 
ATOM     14  C   UNL     1      16.514  10.962  35.998  0.00  0.00    +0.000 A 
ATOM     15  C   UNL     1      15.984  11.349  34.765  0.00  0.00    +0.000 A 
ATOM     16 CL   UNL     1      14.731  12.558  34.604  0.00  0.00    +0.000 Cl
ATOM     17  C   UNL     1      16.629  10.616  33.828  0.00  0.00    +0.000 A 
ATOM     18  N   UNL     1      16.417  10.674  32.430  0.00  0.00    +0.000 NA
ATOM     19  N   UNL     1      17.515   9.814  34.456  0.00  0.00    +0.000 NA
ENDBRANCH  12  13
ENDBRANCH  11  12
ENDBRANCH   4  11
TORSDOF 4
ENDMDL
