MODEL 1
REMARK VINA RESULT:      -6.2      0.000      0.000
REMARK  Name = 
REMARK  3 active torsions:
REMARK  status: ('A' for Active; 'I' for Inactive)
REMARK    1  A    between atoms: C_2  and  N_3
REMARK    2  A    between atoms: N_3  and  C_4
REMARK    3  A    between atoms: N_3  and  C_15
REMARK                            x       y       z     vdW  Elec       q    Type
REMARK                         _______ _______ _______ _____ _____    ______ ____
ROOT
ATOM      1  C   UNL     1      27.581  24.080  24.558  0.00  0.00    +0.000 C 
ATOM      2  C   UNL     1      26.459  23.458  24.144  0.00  0.00    +0.000 C 
ATOM      3  C   UNL     1      26.225  23.281  22.745  0.00  0.00    +0.000 C 
ATOM      4  O   UNL     1      25.191  22.702  22.310  0.00  0.00    +0.000 OA
ATOM      5  N   UNL     1      27.176  23.766  21.817  0.00  0.00    +0.000 NA
ATOM      6  C   UNL     1      28.691  23.688  22.295  0.00  0.00    +0.000 C 
ATOM      7  C   UNL     1      29.154  24.934  21.266  0.00  0.00    +0.000 C 
ATOM      8  C   UNL     1      28.319  26.094  21.530  0.00  0.00    +0.000 C 
ATOM      9  C   UNL     1      28.665  26.793  22.833  0.00  0.00    +0.000 C 
ATOM     10  C   UNL     1      29.254  25.690  23.726  0.00  0.00    +0.000 C 
ATOM     11  N   UNL     1      28.488  24.519  23.590  0.00  0.00    +0.000 N 
ENDROOT
BRANCH   1  12
ATOM     12  N   UNL     1      27.764  24.233  25.952  0.00  0.00    +0.000 N 
BRANCH  12  13
ATOM     13  C   UNL     1      28.887  23.737  26.640  0.00  0.00    +0.000 A 
ATOM     14  C   UNL     1      29.633  24.482  27.517  0.00  0.00    +0.000 A 
ATOM     15  C   UNL     1      30.736  23.950  28.174  0.00  0.00    +0.000 A 
ATOM     16  C   UNL     1      31.068  22.644  27.927  0.00  0.00    +0.000 A 
ATOM     17  C   UNL     1      30.330  21.859  27.041  0.00  0.00    +0.000 A 
ATOM     18  C   UNL     1      29.250  22.427  26.415  0.00  0.00    +0.000 A 
ENDBRANCH  12  13
BRANCH  12  20
ATOM     19  C   UNL     1      26.088  23.880  27.604  0.00  0.00    +0.000 C 
ATOM     20  C   UNL     1      26.774  24.922  26.731  0.00  0.00    +0.000 C 
ENDBRANCH  12  20
ENDBRANCH   1  12
TORSDOF 3
ENDMDL
MODEL 2
REMARK VINA RESULT:      -6.1      3.089      6.151
REMARK  Name = 
REMARK  3 active torsions:
REMARK  status: ('A' for Active; 'I' for Inactive)
REMARK    1  A    between atoms: C_2  and  N_3
REMARK    2  A    between atoms: N_3  and  C_4
REMARK    3  A    between atoms: N_3  and  C_15
REMARK                            x       y       z     vdW  Elec       q    Type
REMARK                         _______ _______ _______ _____ _____    ______ ____
ROOT
ATOM      1  C   UNL     1      27.429  23.000  28.315  0.00  0.00    +0.000 C 
ATOM      2  C   UNL     1      27.032  21.987  29.112  0.00  0.00    +0.000 C 
ATOM      3  C   UNL     1      26.292  22.272  30.301  0.00  0.00    +0.000 C 
ATOM      4  O   UNL     1      25.897  21.357  31.076  0.00  0.00    +0.000 OA
ATOM      5  N   UNL     1      25.991  23.616  30.624  0.00  0.00    +0.000 NA
ATOM      6  C   UNL     1      25.721  24.568  29.379  0.00  0.00    +0.000 C 
ATOM      7  C   UNL     1      26.146  25.943  30.249  0.00  0.00    +0.000 C 
ATOM      8  C   UNL     1      27.477  25.754  30.803  0.00  0.00    +0.000 C 
ATOM      9  C   UNL     1      28.576  25.848  29.758  0.00  0.00    +0.000 C 
ATOM     10  C   UNL     1      27.907  25.416  28.445  0.00  0.00    +0.000 C 
ATOM     11  N   UNL     1      27.082  24.303  28.683  0.00  0.00    +0.000 N 
ENDROOT
BRANCH   1  12
ATOM     12  N   UNL     1      28.160  22.666  27.152  0.00  0.00    +0.000 N 
BRANCH  12  13
ATOM     13  C   UNL     1      27.688  22.911  25.849  0.00  0.00    +0.000 A 
ATOM     14  C   UNL     1      26.358  22.962  25.518  0.00  0.00    +0.000 A 
ATOM     15  C   UNL     1      25.939  23.206  24.215  0.00  0.00    +0.000 A 
ATOM     16  C   UNL     1      26.894  23.399  23.253  0.00  0.00    +0.000 A 
ATOM     17  C   UNL     1      28.255  23.355  23.557  0.00  0.00    +0.000 A 
ATOM     18  C   UNL     1      28.622  23.110  24.856  0.00  0.00    +0.000 A 
ENDBRANCH  12  13
BRANCH  12  20
ATOM     19  C   UNL     1      30.362  23.040  27.975  0.00  0.00    +0.000 C 
ATOM     20  C   UNL     1      29.449  22.044  27.273  0.00  0.00    +0.000 C 
ENDBRANCH  12  20
ENDBRANCH   1  12
TORSDOF 3
ENDMDL
MODEL 3
REMARK VINA RESULT:      -6.1      1.904      4.137
REMARK  Name = 
REMARK  3 active torsions:
REMARK  status: ('A' for Active; 'I' for Inactive)
REMARK    1  A    between atoms: C_2  and  N_3
REMARK    2  A    between atoms: N_3  and  C_4
REMARK    3  A    between atoms: N_3  and  C_15
REMARK                            x       y       z     vdW  Elec       q    Type
REMARK                         _______ _______ _______ _____ _____    ______ ____
ROOT
ATOM      1  C   UNL     1      27.699  24.867  23.751  0.00  0.00    +0.000 C 
ATOM      2  C   UNL     1      27.121  24.020  22.875  0.00  0.00    +0.000 C 
ATOM      3  C   UNL     1      25.858  23.432  23.190  0.00  0.00    +0.000 C 
ATOM      4  O   UNL     1      25.277  22.636  22.401  0.00  0.00    +0.000 OA
ATOM      5  N   UNL     1      25.235  23.747  24.421  0.00  0.00    +0.000 NA
ATOM      6  C   UNL     1      25.472  25.231  24.940  0.00  0.00    +0.000 C 
ATOM      7  C   UNL     1      25.196  24.791  26.539  0.00  0.00    +0.000 C 
ATOM      8  C   UNL     1      26.091  23.699  26.885  0.00  0.00    +0.000 C 
ATOM      9  C   UNL     1      27.534  24.144  27.061  0.00  0.00    +0.000 C 
ATOM     10  C   UNL     1      27.675  25.381  26.162  0.00  0.00    +0.000 C 
ATOM     11  N   UNL     1      27.021  25.150  24.940  0.00  0.00    +0.000 N 
ENDROOT
BRANCH   1  12
ATOM     12  N   UNL     1      28.950  25.420  23.393  0.00  0.00    +0.000 N 
BRANCH  12  13
ATOM     13  C   UNL     1      30.170  24.986  23.944  0.00  0.00    +0.000 A 
ATOM     14  C   UNL     1      30.575  23.675  23.958  0.00  0.00    +0.000 A 
ATOM     15  C   UNL     1      31.790  23.292  24.515  0.00  0.00    +0.000 A 
ATOM     16  C   UNL     1      32.589  24.264  25.055  0.00  0.00    +0.000 A 
ATOM     17  C   UNL     1      32.207  25.606  25.056  0.00  0.00    +0.000 A 
ATOM     18  C   UNL     1      30.999  25.937  24.496  0.00  0.00    +0.000 A 
ENDBRANCH  12  13
BRANCH  12  20
ATOM     19  C   UNL     1      29.429  25.852  21.102  0.00  0.00    +0.000 C 
ATOM     20  C   UNL     1      29.012  26.479  22.425  0.00  0.00    +0.000 C 
ENDBRANCH  12  20
ENDBRANCH   1  12
TORSDOF 3
ENDMDL
MODEL 4
REMARK VINA RESULT:      -6.1     20.049     22.000
REMARK  Name = 
REMARK  3 active torsions:
REMARK  status: ('A' for Active; 'I' for Inactive)
REMARK    1  A    between atoms: C_2  and  N_3
REMARK    2  A    between atoms: N_3  and  C_4
REMARK    3  A    between atoms: N_3  and  C_15
REMARK                            x       y       z     vdW  Elec       q    Type
REMARK                         _______ _______ _______ _____ _____    ______ ____
ROOT
ATOM      1  C   UNL     1      18.522  11.199  37.534  0.00  0.00    +0.000 C 
ATOM      2  C   UNL     1      18.977  12.456  37.707  0.00  0.00    +0.000 C 
ATOM      3  C   UNL     1      19.970  12.717  38.702  0.00  0.00    +0.000 C 
ATOM      4  O   UNL     1      20.428  13.877  38.899  0.00  0.00    +0.000 OA
ATOM      5  N   UNL     1      20.457  11.649  39.491  0.00  0.00    +0.000 NA
ATOM      6  C   UNL     1      20.553  10.246  38.748  0.00  0.00    +0.000 C 
ATOM      7  C   UNL     1      20.449   9.394  40.193  0.00  0.00    +0.000 C 
ATOM      8  C   UNL     1      19.249   9.814  40.899  0.00  0.00    +0.000 C 
ATOM      9  C   UNL     1      17.972   9.277  40.276  0.00  0.00    +0.000 C 
ATOM     10  C   UNL     1      18.311   9.087  38.789  0.00  0.00    +0.000 C 
ATOM     11  N   UNL     1      19.058  10.187  38.334  0.00  0.00    +0.000 N 
ENDROOT
BRANCH   1  12
ATOM     12  N   UNL     1      17.538  10.994  36.540  0.00  0.00    +0.000 N 
BRANCH  12  13
ATOM     13  C   UNL     1      16.190  11.367  36.701  0.00  0.00    +0.000 A 
ATOM     14  C   UNL     1      15.431  11.023  37.790  0.00  0.00    +0.000 A 
ATOM     15  C   UNL     1      14.101  11.413  37.907  0.00  0.00    +0.000 A 
ATOM     16  C   UNL     1      13.556  12.161  36.898  0.00  0.00    +0.000 A 
ATOM     17  C   UNL     1      14.302  12.529  35.777  0.00  0.00    +0.000 A 
ATOM     18  C   UNL     1      15.609  12.120  35.705  0.00  0.00    +0.000 A 
ENDBRANCH  12  13
BRANCH  12  20
ATOM     19  C   UNL     1      17.466   8.919  35.375  0.00  0.00    +0.000 C 
ATOM     20  C   UNL     1      17.898  10.377  35.294  0.00  0.00    +0.000 C 
ENDBRANCH  12  20
ENDBRANCH   1  12
TORSDOF 3
ENDMDL
MODEL 5
REMARK VINA RESULT:      -5.9      3.602      6.125
REMARK  Name = 
REMARK  3 active torsions:
REMARK  status: ('A' for Active; 'I' for Inactive)
REMARK    1  A    between atoms: C_2  and  N_3
REMARK    2  A    between atoms: N_3  and  C_4
REMARK    3  A    between atoms: N_3  and  C_15
REMARK                            x       y       z     vdW  Elec       q    Type
REMARK                         _______ _______ _______ _____ _____    ______ ____
ROOT
ATOM      1  C   UNL     1      28.106  22.972  29.063  0.00  0.00    +0.000 C 
ATOM      2  C   UNL     1      27.548  21.931  29.713  0.00  0.00    +0.000 C 
ATOM      3  C   UNL     1      26.342  22.126  30.456  0.00  0.00    +0.000 C 
ATOM      4  O   UNL     1      25.781  21.181  31.077  0.00  0.00    +0.000 OA
ATOM      5  N   UNL     1      25.756  23.413  30.499  0.00  0.00    +0.000 NA
ATOM      6  C   UNL     1      25.916  24.276  29.172  0.00  0.00    +0.000 C 
ATOM      7  C   UNL     1      25.744  25.723  30.009  0.00  0.00    +0.000 C 
ATOM      8  C   UNL     1      26.726  25.765  31.081  0.00  0.00    +0.000 C 
ATOM      9  C   UNL     1      28.141  26.005  30.583  0.00  0.00    +0.000 C 
ATOM     10  C   UNL     1      28.157  25.436  29.156  0.00  0.00    +0.000 C 
ATOM     11  N   UNL     1      27.466  24.212  29.132  0.00  0.00    +0.000 N 
ENDROOT
BRANCH   1  12
ATOM     12  N   UNL     1      29.299  22.728  28.346  0.00  0.00    +0.000 N 
BRANCH  12  13
ATOM     13  C   UNL     1      29.370  22.745  26.940  0.00  0.00    +0.000 A 
ATOM     14  C   UNL     1      30.514  22.479  26.232  0.00  0.00    +0.000 A 
ATOM     15  C   UNL     1      30.537  22.508  24.842  0.00  0.00    +0.000 A 
ATOM     16  C   UNL     1      29.376  22.810  24.183  0.00  0.00    +0.000 A 
ATOM     17  C   UNL     1      28.194  23.085  24.873  0.00  0.00    +0.000 A 
ATOM     18  C   UNL     1      28.219  23.045  26.244  0.00  0.00    +0.000 A 
ENDBRANCH  12  13
BRANCH  12  20
ATOM     19  C   UNL     1      31.095  23.779  29.502  0.00  0.00    +0.000 C 
ATOM     20  C   UNL     1      30.515  22.444  29.056  0.00  0.00    +0.000 C 
ENDBRANCH  12  20
ENDBRANCH   1  12
TORSDOF 3
ENDMDL
MODEL 6
REMARK VINA RESULT:      -5.9      0.902      2.769
REMARK  Name = 
REMARK  3 active torsions:
REMARK  status: ('A' for Active; 'I' for Inactive)
REMARK    1  A    between atoms: C_2  and  N_3
REMARK    2  A    between atoms: N_3  and  C_4
REMARK    3  A    between atoms: N_3  and  C_15
REMARK                            x       y       z     vdW  Elec       q    Type
REMARK                         _______ _______ _______ _____ _____    ______ ____
ROOT
ATOM      1  C   UNL     1      27.763  24.047  24.537  0.00  0.00    +0.000 C 
ATOM      2  C   UNL     1      26.627  23.418  24.175  0.00  0.00    +0.000 C 
ATOM      3  C   UNL     1      26.299  23.294  22.790  0.00  0.00    +0.000 C 
ATOM      4  O   UNL     1      25.248  22.711  22.403  0.00  0.00    +0.000 OA
ATOM      5  N   UNL     1      27.173  23.839  21.820  0.00  0.00    +0.000 NA
ATOM      6  C   UNL     1      28.719  23.774  22.188  0.00  0.00    +0.000 C 
ATOM      7  C   UNL     1      29.084  25.071  21.183  0.00  0.00    +0.000 C 
ATOM      8  C   UNL     1      28.248  26.201  21.554  0.00  0.00    +0.000 C 
ATOM      9  C   UNL     1      28.671  26.853  22.859  0.00  0.00    +0.000 C 
ATOM     10  C   UNL     1      29.342  25.727  23.660  0.00  0.00    +0.000 C 
ATOM     11  N   UNL     1      28.591  24.546  23.527  0.00  0.00    +0.000 N 
ENDROOT
BRANCH   1  12
ATOM     12  N   UNL     1      28.041  24.146  25.919  0.00  0.00    +0.000 N 
BRANCH  12  13
ATOM     13  C   UNL     1      27.101  24.599  26.864  0.00  0.00    +0.000 A 
ATOM     14  C   UNL     1      26.536  25.848  26.836  0.00  0.00    +0.000 A 
ATOM     15  C   UNL     1      25.611  26.253  27.792  0.00  0.00    +0.000 A 
ATOM     16  C   UNL     1      25.267  25.365  28.776  0.00  0.00    +0.000 A 
ATOM     17  C   UNL     1      25.823  24.087  28.832  0.00  0.00    +0.000 A 
ATOM     18  C   UNL     1      26.732  23.731  27.868  0.00  0.00    +0.000 A 
ENDBRANCH  12  13
BRANCH  12  20
ATOM     19  C   UNL     1      29.572  22.326  26.014  0.00  0.00    +0.000 C 
ATOM     20  C   UNL     1      29.337  23.775  26.416  0.00  0.00    +0.000 C 
ENDBRANCH  12  20
ENDBRANCH   1  12
TORSDOF 3
ENDMDL
MODEL 7
REMARK VINA RESULT:      -5.7     21.855     24.573
REMARK  Name = 
REMARK  3 active torsions:
REMARK  status: ('A' for Active; 'I' for Inactive)
REMARK    1  A    between atoms: C_2  and  N_3
REMARK    2  A    between atoms: N_3  and  C_4
REMARK    3  A    between atoms: N_3  and  C_15
REMARK                            x       y       z     vdW  Elec       q    Type
REMARK                         _______ _______ _______ _____ _____    ______ ____
ROOT
ATOM      1  C   UNL     1      18.321   8.114  39.983  0.00  0.00    +0.000 C 
ATOM      2  C   UNL     1      18.835   6.869  39.922  0.00  0.00    +0.000 C 
ATOM      3  C   UNL     1      18.345   5.858  40.805  0.00  0.00    +0.000 C 
ATOM      4  O   UNL     1      18.793   4.677  40.783  0.00  0.00    +0.000 OA
ATOM      5  N   UNL     1      17.327   6.182  41.733  0.00  0.00    +0.000 NA
ATOM      6  C   UNL     1      16.267   7.254  41.227  0.00  0.00    +0.000 C 
ATOM      7  C   UNL     1      15.878   7.714  42.797  0.00  0.00    +0.000 C 
ATOM      8  C   UNL     1      17.098   8.100  43.487  0.00  0.00    +0.000 C 
ATOM      9  C   UNL     1      17.642   9.443  43.030  0.00  0.00    +0.000 C 
ATOM     10  C   UNL     1      17.157   9.589  41.580  0.00  0.00    +0.000 C 
ATOM     11  N   UNL     1      17.305   8.362  40.910  0.00  0.00    +0.000 N 
ENDROOT
BRANCH   1  12
ATOM     12  N   UNL     1      18.843   9.078  39.091  0.00  0.00    +0.000 N 
BRANCH  12  13
ATOM     13  C   UNL     1      18.118   9.587  37.998  0.00  0.00    +0.000 A 
ATOM     14  C   UNL     1      16.981  10.345  38.124  0.00  0.00    +0.000 A 
ATOM     15  C   UNL     1      16.297  10.827  37.014  0.00  0.00    +0.000 A 
ATOM     16  C   UNL     1      16.788  10.527  35.771  0.00  0.00    +0.000 A 
ATOM     17  C   UNL     1      17.942   9.760  35.608  0.00  0.00    +0.000 A 
ATOM     18  C   UNL     1      18.583   9.306  36.732  0.00  0.00    +0.000 A 
ENDBRANCH  12  13
BRANCH  12  20
ATOM     19  C   UNL     1      20.044  11.025  39.749  0.00  0.00    +0.000 C 
ATOM     20  C   UNL     1      20.174   9.582  39.282  0.00  0.00    +0.000 C 
ENDBRANCH  12  20
ENDBRANCH   1  12
TORSDOF 3
ENDMDL
MODEL 8
REMARK VINA RESULT:      -5.6     28.829     31.051
REMARK  Name = 
REMARK  3 active torsions:
REMARK  status: ('A' for Active; 'I' for Inactive)
REMARK    1  A    between atoms: C_2  and  N_3
REMARK    2  A    between atoms: N_3  and  C_4
REMARK    3  A    between atoms: N_3  and  C_15
REMARK                            x       y       z     vdW  Elec       q    Type
REMARK                         _______ _______ _______ _____ _____    ______ ____
ROOT
ATOM      1  C   UNL     1      32.452  -6.344  32.347  0.00  0.00    +0.000 C 
ATOM      2  C   UNL     1      31.112  -6.451  32.253  0.00  0.00    +0.000 C 
ATOM      3  C   UNL     1      30.528  -6.999  31.069  0.00  0.00    +0.000 C 
ATOM      4  O   UNL     1      29.278  -7.121  30.936  0.00  0.00    +0.000 OA
ATOM      5  N   UNL     1      31.370  -7.417  30.012  0.00  0.00    +0.000 NA
ATOM      6  C   UNL     1      32.766  -8.032  30.460  0.00  0.00    +0.000 C 
ATOM      7  C   UNL     1      33.487  -7.649  28.990  0.00  0.00    +0.000 C 
ATOM      8  C   UNL     1      33.312  -6.228  28.739  0.00  0.00    +0.000 C 
ATOM      9  C   UNL     1      34.199  -5.356  29.611  0.00  0.00    +0.000 C 
ATOM     10  C   UNL     1      34.432  -6.183  30.885  0.00  0.00    +0.000 C 
ATOM     11  N   UNL     1      33.227  -6.793  31.274  0.00  0.00    +0.000 N 
ENDROOT
BRANCH   1  12
ATOM     12  N   UNL     1      32.980  -5.794  33.537  0.00  0.00    +0.000 N 
BRANCH  12  13
ATOM     13  C   UNL     1      32.938  -4.419  33.835  0.00  0.00    +0.000 A 
ATOM     14  C   UNL     1      33.634  -3.467  33.134  0.00  0.00    +0.000 A 
ATOM     15  C   UNL     1      33.563  -2.118  33.465  0.00  0.00    +0.000 A 
ATOM     16  C   UNL     1      32.770  -1.752  34.520  0.00  0.00    +0.000 A 
ATOM     17  C   UNL     1      32.048  -2.695  35.252  0.00  0.00    +0.000 A 
ATOM     18  C   UNL     1      32.150  -4.014  34.890  0.00  0.00    +0.000 A 
ENDBRANCH  12  13
BRANCH  12  20
ATOM     19  C   UNL     1      35.089  -6.359  34.484  0.00  0.00    +0.000 C 
ATOM     20  C   UNL     1      33.596  -6.652  34.510  0.00  0.00    +0.000 C 
ENDBRANCH  12  20
ENDBRANCH   1  12
TORSDOF 3
ENDMDL
MODEL 9
REMARK VINA RESULT:      -5.5      2.423      4.247
REMARK  Name = 
REMARK  3 active torsions:
REMARK  status: ('A' for Active; 'I' for Inactive)
REMARK    1  A    between atoms: C_2  and  N_3
REMARK    2  A    between atoms: N_3  and  C_4
REMARK    3  A    between atoms: N_3  and  C_15
REMARK                            x       y       z     vdW  Elec       q    Type
REMARK                         _______ _______ _______ _____ _____    ______ ____
ROOT
ATOM      1  C   UNL     1      28.172  24.219  25.487  0.00  0.00    +0.000 C 
ATOM      2  C   UNL     1      28.220  25.546  25.251  0.00  0.00    +0.000 C 
ATOM      3  C   UNL     1      29.412  26.125  24.715  0.00  0.00    +0.000 C 
ATOM      4  O   UNL     1      29.503  27.362  24.476  0.00  0.00    +0.000 OA
ATOM      5  N   UNL     1      30.524  25.295  24.443  0.00  0.00    +0.000 NA
ATOM      6  C   UNL     1      30.168  23.826  23.947  0.00  0.00    +0.000 C 
ATOM      7  C   UNL     1      31.639  23.213  24.481  0.00  0.00    +0.000 C 
ATOM      8  C   UNL     1      31.798  23.536  25.890  0.00  0.00    +0.000 C 
ATOM      9  C   UNL     1      30.909  22.701  26.796  0.00  0.00    +0.000 C 
ATOM     10  C   UNL     1      29.698  22.332  25.926  0.00  0.00    +0.000 C 
ATOM     11  N   UNL     1      29.300  23.453  25.178  0.00  0.00    +0.000 N 
ENDROOT
BRANCH   1  12
ATOM     12  N   UNL     1      26.973  23.695  26.020  0.00  0.00    +0.000 N 
BRANCH  12  13
ATOM     13  C   UNL     1      26.527  23.968  27.326  0.00  0.00    +0.000 A 
ATOM     14  C   UNL     1      25.639  24.967  27.635  0.00  0.00    +0.000 A 
ATOM     15  C   UNL     1      25.226  25.201  28.942  0.00  0.00    +0.000 A 
ATOM     16  C   UNL     1      25.731  24.401  29.932  0.00  0.00    +0.000 A 
ATOM     17  C   UNL     1      26.634  23.376  29.652  0.00  0.00    +0.000 A 
ATOM     18  C   UNL     1      27.013  23.182  28.348  0.00  0.00    +0.000 A 
ENDBRANCH  12  13
BRANCH  12  20
ATOM     19  C   UNL     1      25.581  23.692  24.088  0.00  0.00    +0.000 C 
ATOM     20  C   UNL     1      26.147  22.839  25.215  0.00  0.00    +0.000 C 
ENDBRANCH  12  20
ENDBRANCH   1  12
TORSDOF 3
ENDMDL
MODEL 10
REMARK VINA RESULT:      -5.4     19.394     21.134
REMARK  Name = 
REMARK  3 active torsions:
REMARK  status: ('A' for Active; 'I' for Inactive)
REMARK    1  A    between atoms: C_2  and  N_3
REMARK    2  A    between atoms: N_3  and  C_4
REMARK    3  A    between atoms: N_3  and  C_15
REMARK                            x       y       z     vdW  Elec       q    Type
REMARK                         _______ _______ _______ _____ _____    ______ ____
ROOT
ATOM      1  C   UNL     1      21.566  10.097  38.818  0.00  0.00    +0.000 C 
ATOM      2  C   UNL     1      21.465   8.997  39.591  0.00  0.00    +0.000 C 
ATOM      3  C   UNL     1      22.625   8.202  39.844  0.00  0.00    +0.000 C 
ATOM      4  O   UNL     1      22.581   7.165  40.563  0.00  0.00    +0.000 OA
ATOM      5  N   UNL     1      23.863   8.584  39.275  0.00  0.00    +0.000 NA
ATOM      6  C   UNL     1      24.095  10.152  39.146  0.00  0.00    +0.000 C 
ATOM      7  C   UNL     1      25.193   9.958  37.888  0.00  0.00    +0.000 C 
ATOM      8  C   UNL     1      24.564   9.180  36.833  0.00  0.00    +0.000 C 
ATOM      9  C   UNL     1      23.525   9.966  36.052  0.00  0.00    +0.000 C 
ATOM     10  C   UNL     1      23.005  11.020  37.041  0.00  0.00    +0.000 C 
ATOM     11  N   UNL     1      22.822  10.428  38.303  0.00  0.00    +0.000 N 
ENDROOT
BRANCH   1  12
ATOM     12  N   UNL     1      20.388  10.847  38.596  0.00  0.00    +0.000 N 
BRANCH  12  13
ATOM     13  C   UNL     1      19.367  10.435  37.720  0.00  0.00    +0.000 A 
ATOM     14  C   UNL     1      19.598   9.816  36.518  0.00  0.00    +0.000 A 
ATOM     15  C   UNL     1      18.556   9.426  35.684  0.00  0.00    +0.000 A 
ATOM     16  C   UNL     1      17.272   9.675  36.093  0.00  0.00    +0.000 A 
ATOM     17  C   UNL     1      17.003  10.302  37.310  0.00  0.00    +0.000 A 
ATOM     18  C   UNL     1      18.063  10.669  38.100  0.00  0.00    +0.000 A 
ENDBRANCH  12  13
BRANCH  12  20
ATOM     19  C   UNL     1      20.403  13.203  38.257  0.00  0.00    +0.000 C 
ATOM     20  C   UNL     1      20.196  12.094  39.280  0.00  0.00    +0.000 C 
ENDBRANCH  12  20
ENDBRANCH   1  12
TORSDOF 3
ENDMDL
