MODEL 1
REMARK VINA RESULT:      -6.4      0.000      0.000
REMARK  Name = 
REMARK  3 active torsions:
REMARK  status: ('A' for Active; 'I' for Inactive)
REMARK    1  A    between atoms: O_2  and  C_3
REMARK    2  A    between atoms: C_8  and  O_9
REMARK    3  A    between atoms: C_11  and  C_12
REMARK                            x       y       z     vdW  Elec       q    Type
REMARK                         _______ _______ _______ _____ _____    ______ ____
ROOT
ATOM      1  C   UNL     1      22.053  -7.824  25.131  0.00  0.00    +0.000 A 
ATOM      2  C   UNL     1      21.482  -6.583  25.219  0.00  0.00    +0.000 A 
ATOM      3  C   UNL     1      20.237  -6.402  25.858  0.00  0.00    +0.000 A 
ATOM      4  C   UNL     1      19.610  -7.494  26.389  0.00  0.00    +0.000 A 
ATOM      5  C   UNL     1      20.201  -8.745  26.291  0.00  0.00    +0.000 A 
ATOM      6  C   UNL     1      21.417  -8.929  25.668  0.00  0.00    +0.000 A 
ATOM      7  C   UNL     1      18.302  -7.358  27.069  0.00  0.00    +0.000 C 
ATOM      8  N   UNL     1      17.780  -6.191  27.145  0.00  0.00    +0.000 NA
ATOM      9  C   UNL     1      18.359  -5.005  26.625  0.00  0.00    +0.000 C 
ATOM     10  C   UNL     1      19.645  -5.069  25.942  0.00  0.00    +0.000 C 
ENDROOT
BRANCH   7  11
ATOM     11  C   UNL     1      17.706  -8.549  27.600  0.00  0.00    +0.000 A 
ATOM     12  C   UNL     1      18.013  -9.048  28.842  0.00  0.00    +0.000 A 
ATOM     13  C   UNL     1      17.414 -10.190  29.302  0.00  0.00    +0.000 A 
ATOM     14  C   UNL     1      16.500 -10.836  28.508  0.00  0.00    +0.000 A 
ATOM     15  C   UNL     1      16.166 -10.381  27.277  0.00  0.00    +0.000 A 
ATOM     16  C   UNL     1      16.781  -9.223  26.825  0.00  0.00    +0.000 A 
ATOM     17  N   UNL     1      16.442  -8.732  25.533  0.00  0.00    +0.000 NA
ENDBRANCH   7  11
BRANCH   1  19
ATOM     18  C   UNL     1      23.988  -7.023  23.840  0.00  0.00    +0.000 C 
ATOM     19  O   UNL     1      23.288  -8.035  24.503  0.00  0.00    +0.000 OA
ENDBRANCH   1  19
BRANCH   6  20
ATOM     20  O   UNL     1      22.028 -10.168  25.558  0.00  0.00    +0.000 OA
ATOM     21  C   UNL     1      22.732 -10.709  26.660  0.00  0.00    +0.000 C 
ENDBRANCH   6  20
TORSDOF 3
ENDMDL
MODEL 2
REMARK VINA RESULT:      -6.3     31.215     33.475
REMARK  Name = 
REMARK  3 active torsions:
REMARK  status: ('A' for Active; 'I' for Inactive)
REMARK    1  A    between atoms: O_2  and  C_3
REMARK    2  A    between atoms: C_8  and  O_9
REMARK    3  A    between atoms: C_11  and  C_12
REMARK                            x       y       z     vdW  Elec       q    Type
REMARK                         _______ _______ _______ _____ _____    ______ ____
ROOT
ATOM      1  C   UNL     1      27.165  22.913  28.440  0.00  0.00    +0.000 A 
ATOM      2  C   UNL     1      26.048  23.699  28.338  0.00  0.00    +0.000 A 
ATOM      3  C   UNL     1      25.783  24.431  27.161  0.00  0.00    +0.000 A 
ATOM      4  C   UNL     1      26.666  24.341  26.121  0.00  0.00    +0.000 A 
ATOM      5  C   UNL     1      27.793  23.541  26.241  0.00  0.00    +0.000 A 
ATOM      6  C   UNL     1      28.059  22.822  27.387  0.00  0.00    +0.000 A 
ATOM      7  C   UNL     1      26.434  25.089  24.866  0.00  0.00    +0.000 C 
ATOM      8  N   UNL     1      25.385  25.820  24.784  0.00  0.00    +0.000 NA
ATOM      9  C   UNL     1      24.417  25.972  25.809  0.00  0.00    +0.000 C 
ATOM     10  C   UNL     1      24.586  25.264  27.072  0.00  0.00    +0.000 C 
ENDROOT
BRANCH   7  11
ATOM     11  C   UNL     1      27.405  24.945  23.820  0.00  0.00    +0.000 A 
ATOM     12  C   UNL     1      28.517  25.743  23.719  0.00  0.00    +0.000 A 
ATOM     13  C   UNL     1      29.414  25.563  22.700  0.00  0.00    +0.000 A 
ATOM     14  C   UNL     1      29.191  24.574  21.776  0.00  0.00    +0.000 A 
ATOM     15  C   UNL     1      28.109  23.762  21.836  0.00  0.00    +0.000 A 
ATOM     16  C   UNL     1      27.209  23.957  22.874  0.00  0.00    +0.000 A 
ATOM     17  N   UNL     1      26.066  23.114  22.951  0.00  0.00    +0.000 NA
ENDBRANCH   7  11
BRANCH   1  19
ATOM     18  C   UNL     1      26.467  21.622  30.413  0.00  0.00    +0.000 C 
ATOM     19  O   UNL     1      27.455  22.174  29.594  0.00  0.00    +0.000 OA
ENDBRANCH   1  19
BRANCH   6  20
ATOM     20  O   UNL     1      29.177  22.017  27.530  0.00  0.00    +0.000 OA
ATOM     21  C   UNL     1      30.366  22.329  26.828  0.00  0.00    +0.000 C 
ENDBRANCH   6  20
TORSDOF 3
ENDMDL
MODEL 3
REMARK VINA RESULT:      -6.0     21.687     22.910
REMARK  Name = 
REMARK  3 active torsions:
REMARK  status: ('A' for Active; 'I' for Inactive)
REMARK    1  A    between atoms: O_2  and  C_3
REMARK    2  A    between atoms: C_8  and  O_9
REMARK    3  A    between atoms: C_11  and  C_12
REMARK                            x       y       z     vdW  Elec       q    Type
REMARK                         _______ _______ _______ _____ _____    ______ ____
ROOT
ATOM      1  C   UNL     1      15.496  11.115  37.419  0.00  0.00    +0.000 A 
ATOM      2  C   UNL     1      16.798  10.777  37.159  0.00  0.00    +0.000 A 
ATOM      3  C   UNL     1      17.589  10.135  38.136  0.00  0.00    +0.000 A 
ATOM      4  C   UNL     1      17.028   9.856  39.351  0.00  0.00    +0.000 A 
ATOM      5  C   UNL     1      15.709  10.205  39.599  0.00  0.00    +0.000 A 
ATOM      6  C   UNL     1      14.930  10.832  38.649  0.00  0.00    +0.000 A 
ATOM      7  C   UNL     1      17.815   9.185  40.409  0.00  0.00    +0.000 C 
ATOM      8  N   UNL     1      19.031   8.874  40.153  0.00  0.00    +0.000 NA
ATOM      9  C   UNL     1      19.692   9.124  38.923  0.00  0.00    +0.000 C 
ATOM     10  C   UNL     1      18.975   9.784  37.839  0.00  0.00    +0.000 C 
ENDROOT
BRANCH   7  11
ATOM     11  C   UNL     1      17.158   8.926  41.658  0.00  0.00    +0.000 A 
ATOM     12  C   UNL     1      16.996   9.883  42.629  0.00  0.00    +0.000 A 
ATOM     13  C   UNL     1      16.360   9.583  43.804  0.00  0.00    +0.000 A 
ATOM     14  C   UNL     1      15.886   8.312  44.006  0.00  0.00    +0.000 A 
ATOM     15  C   UNL     1      16.023   7.335  43.077  0.00  0.00    +0.000 A 
ATOM     16  C   UNL     1      16.669   7.655  41.891  0.00  0.00    +0.000 A 
ATOM     17  N   UNL     1      16.822   6.640  40.905  0.00  0.00    +0.000 NA
ENDBRANCH   7  11
BRANCH   1  19
ATOM     18  C   UNL     1      14.994  11.786  35.107  0.00  0.00    +0.000 C 
ATOM     19  O   UNL     1      14.687  11.752  36.470  0.00  0.00    +0.000 OA
ENDBRANCH   1  19
BRANCH   6  20
ATOM     20  O   UNL     1      13.610  11.190  38.873  0.00  0.00    +0.000 OA
ATOM     21  C   UNL     1      12.602  10.196  38.888  0.00  0.00    +0.000 C 
ENDBRANCH   6  20
TORSDOF 3
ENDMDL
MODEL 4
REMARK VINA RESULT:      -5.9     31.444     33.700
REMARK  Name = 
REMARK  3 active torsions:
REMARK  status: ('A' for Active; 'I' for Inactive)
REMARK    1  A    between atoms: O_2  and  C_3
REMARK    2  A    between atoms: C_8  and  O_9
REMARK    3  A    between atoms: C_11  and  C_12
REMARK                            x       y       z     vdW  Elec       q    Type
REMARK                         _______ _______ _______ _____ _____    ______ ____
ROOT
ATOM      1  C   UNL     1      27.156  22.871  28.424  0.00  0.00    +0.000 A 
ATOM      2  C   UNL     1      26.051  23.676  28.337  0.00  0.00    +0.000 A 
ATOM      3  C   UNL     1      25.784  24.414  27.164  0.00  0.00    +0.000 A 
ATOM      4  C   UNL     1      26.652  24.310  26.113  0.00  0.00    +0.000 A 
ATOM      5  C   UNL     1      27.766  23.492  26.217  0.00  0.00    +0.000 A 
ATOM      6  C   UNL     1      28.034  22.767  27.360  0.00  0.00    +0.000 A 
ATOM      7  C   UNL     1      26.417  25.065  24.862  0.00  0.00    +0.000 C 
ATOM      8  N   UNL     1      25.380  25.813  24.794  0.00  0.00    +0.000 NA
ATOM      9  C   UNL     1      24.428  25.980  25.832  0.00  0.00    +0.000 C 
ATOM     10  C   UNL     1      24.600  25.268  27.091  0.00  0.00    +0.000 C 
ENDROOT
BRANCH   7  11
ATOM     11  C   UNL     1      27.371  24.905  23.804  0.00  0.00    +0.000 A 
ATOM     12  C   UNL     1      27.290  23.900  22.871  0.00  0.00    +0.000 A 
ATOM     13  C   UNL     1      28.229  23.792  21.879  0.00  0.00    +0.000 A 
ATOM     14  C   UNL     1      29.257  24.699  21.827  0.00  0.00    +0.000 A 
ATOM     15  C   UNL     1      29.377  25.705  22.725  0.00  0.00    +0.000 A 
ATOM     16  C   UNL     1      28.419  25.802  23.723  0.00  0.00    +0.000 A 
ATOM     17  N   UNL     1      28.532  26.853  24.675  0.00  0.00    +0.000 NA
ENDBRANCH   7  11
BRANCH   1  19
ATOM     18  C   UNL     1      26.461  21.630  30.430  0.00  0.00    +0.000 C 
ATOM     19  O   UNL     1      27.448  22.126  29.573  0.00  0.00    +0.000 OA
ENDBRANCH   1  19
BRANCH   6  20
ATOM     20  O   UNL     1      29.140  21.942  27.487  0.00  0.00    +0.000 OA
ATOM     21  C   UNL     1      30.429  22.436  27.172  0.00  0.00    +0.000 C 
ENDBRANCH   6  20
TORSDOF 3
ENDMDL
MODEL 5
REMARK VINA RESULT:      -5.9      3.346      6.536
REMARK  Name = 
REMARK  3 active torsions:
REMARK  status: ('A' for Active; 'I' for Inactive)
REMARK    1  A    between atoms: O_2  and  C_3
REMARK    2  A    between atoms: C_8  and  O_9
REMARK    3  A    between atoms: C_11  and  C_12
REMARK                            x       y       z     vdW  Elec       q    Type
REMARK                         _______ _______ _______ _____ _____    ______ ____
ROOT
ATOM      1  C   UNL     1      14.160 -10.031  25.593  0.00  0.00    +0.000 A 
ATOM      2  C   UNL     1      14.606 -10.705  26.700  0.00  0.00    +0.000 A 
ATOM      3  C   UNL     1      15.770 -10.290  27.380  0.00  0.00    +0.000 A 
ATOM      4  C   UNL     1      16.448  -9.198  26.912  0.00  0.00    +0.000 A 
ATOM      5  C   UNL     1      15.984  -8.528  25.790  0.00  0.00    +0.000 A 
ATOM      6  C   UNL     1      14.847  -8.928  25.120  0.00  0.00    +0.000 A 
ATOM      7  C   UNL     1      17.674  -8.723  27.589  0.00  0.00    +0.000 C 
ATOM      8  N   UNL     1      18.080  -9.362  28.623  0.00  0.00    +0.000 NA
ATOM      9  C   UNL     1      17.441 -10.500  29.177  0.00  0.00    +0.000 C 
ATOM     10  C   UNL     1      16.229 -11.021  28.558  0.00  0.00    +0.000 C 
ENDROOT
BRANCH   7  11
ATOM     11  C   UNL     1      18.330  -7.572  27.039  0.00  0.00    +0.000 A 
ATOM     12  C   UNL     1      17.915  -6.287  27.286  0.00  0.00    +0.000 A 
ATOM     13  C   UNL     1      18.577  -5.222  26.736  0.00  0.00    +0.000 A 
ATOM     14  C   UNL     1      19.664  -5.451  25.930  0.00  0.00    +0.000 A 
ATOM     15  C   UNL     1      20.109  -6.701  25.658  0.00  0.00    +0.000 A 
ATOM     16  C   UNL     1      19.428  -7.769  26.223  0.00  0.00    +0.000 A 
ATOM     17  N   UNL     1      19.883  -9.089  25.946  0.00  0.00    +0.000 NA
ENDBRANCH   7  11
BRANCH   1  19
ATOM     18  C   UNL     1      12.934 -11.593  24.142  0.00  0.00    +0.000 C 
ATOM     19  O   UNL     1      13.009 -10.419  24.897  0.00  0.00    +0.000 OA
ENDBRANCH   1  19
BRANCH   6  20
ATOM     20  O   UNL     1      14.364  -8.274  23.998  0.00  0.00    +0.000 OA
ATOM     21  C   UNL     1      14.838  -8.634  22.713  0.00  0.00    +0.000 C 
ENDBRANCH   6  20
TORSDOF 3
ENDMDL
MODEL 6
REMARK VINA RESULT:      -5.9      2.917      5.923
REMARK  Name = 
REMARK  3 active torsions:
REMARK  status: ('A' for Active; 'I' for Inactive)
REMARK    1  A    between atoms: O_2  and  C_3
REMARK    2  A    between atoms: C_8  and  O_9
REMARK    3  A    between atoms: C_11  and  C_12
REMARK                            x       y       z     vdW  Elec       q    Type
REMARK                         _______ _______ _______ _____ _____    ______ ____
ROOT
ATOM      1  C   UNL     1      16.930 -10.913  29.657  0.00  0.00    +0.000 A 
ATOM      2  C   UNL     1      16.107 -11.185  28.597  0.00  0.00    +0.000 A 
ATOM      3  C   UNL     1      16.121 -10.374  27.442  0.00  0.00    +0.000 A 
ATOM      4  C   UNL     1      16.975  -9.307  27.402  0.00  0.00    +0.000 A 
ATOM      5  C   UNL     1      17.802  -9.044  28.485  0.00  0.00    +0.000 A 
ATOM      6  C   UNL     1      17.794  -9.833  29.616  0.00  0.00    +0.000 A 
ATOM      7  C   UNL     1      17.028  -8.425  26.215  0.00  0.00    +0.000 C 
ATOM      8  N   UNL     1      16.253  -8.691  25.231  0.00  0.00    +0.000 NA
ATOM      9  C   UNL     1      15.339  -9.774  25.185  0.00  0.00    +0.000 C 
ATOM     10  C   UNL     1      15.236 -10.680  26.322  0.00  0.00    +0.000 C 
ENDROOT
BRANCH   7  11
ATOM     11  C   UNL     1      17.948  -7.326  26.248  0.00  0.00    +0.000 A 
ATOM     12  C   UNL     1      17.672  -6.139  26.881  0.00  0.00    +0.000 A 
ATOM     13  C   UNL     1      18.587  -5.120  26.883  0.00  0.00    +0.000 A 
ATOM     14  C   UNL     1      19.787  -5.295  26.243  0.00  0.00    +0.000 A 
ATOM     15  C   UNL     1      20.104  -6.447  25.606  0.00  0.00    +0.000 A 
ATOM     16  C   UNL     1      19.167  -7.470  25.613  0.00  0.00    +0.000 A 
ATOM     17  N   UNL     1      19.483  -8.687  24.947  0.00  0.00    +0.000 NA
ENDBRANCH   7  11
BRANCH   1  19
ATOM     18  C   UNL     1      17.511 -12.974  30.867  0.00  0.00    +0.000 C 
ATOM     19  O   UNL     1      16.939 -11.699  30.816  0.00  0.00    +0.000 OA
ENDBRANCH   1  19
BRANCH   6  20
ATOM     20  O   UNL     1      18.610  -9.591  30.709  0.00  0.00    +0.000 OA
ATOM     21  C   UNL     1      20.009  -9.778  30.601  0.00  0.00    +0.000 C 
ENDBRANCH   6  20
TORSDOF 3
ENDMDL
MODEL 7
REMARK VINA RESULT:      -5.9     21.448     22.982
REMARK  Name = 
REMARK  3 active torsions:
REMARK  status: ('A' for Active; 'I' for Inactive)
REMARK    1  A    between atoms: O_2  and  C_3
REMARK    2  A    between atoms: C_8  and  O_9
REMARK    3  A    between atoms: C_11  and  C_12
REMARK                            x       y       z     vdW  Elec       q    Type
REMARK                         _______ _______ _______ _____ _____    ______ ____
ROOT
ATOM      1  C   UNL     1      13.273  11.758  36.944  0.00  0.00    +0.000 A 
ATOM      2  C   UNL     1      13.776  11.895  35.678  0.00  0.00    +0.000 A 
ATOM      3  C   UNL     1      15.133  11.621  35.403  0.00  0.00    +0.000 A 
ATOM      4  C   UNL     1      15.939  11.216  36.431  0.00  0.00    +0.000 A 
ATOM      5  C   UNL     1      15.415  11.083  37.708  0.00  0.00    +0.000 A 
ATOM      6  C   UNL     1      14.090  11.348  37.983  0.00  0.00    +0.000 A 
ATOM      7  C   UNL     1      17.369  10.918  36.196  0.00  0.00    +0.000 C 
ATOM      8  N   UNL     1      17.827  11.049  35.007  0.00  0.00    +0.000 NA
ATOM      9  C   UNL     1      17.065  11.462  33.884  0.00  0.00    +0.000 C 
ATOM     10  C   UNL     1      15.650  11.773  34.046  0.00  0.00    +0.000 C 
ENDROOT
BRANCH   7  11
ATOM     11  C   UNL     1      18.151  10.498  37.323  0.00  0.00    +0.000 A 
ATOM     12  C   UNL     1      18.238   9.188  37.725  0.00  0.00    +0.000 A 
ATOM     13  C   UNL     1      19.000   8.841  38.809  0.00  0.00    +0.000 A 
ATOM     14  C   UNL     1      19.678   9.817  39.493  0.00  0.00    +0.000 A 
ATOM     15  C   UNL     1      19.623  11.121  39.133  0.00  0.00    +0.000 A 
ATOM     16  C   UNL     1      18.847  11.457  38.033  0.00  0.00    +0.000 A 
ATOM     17  N   UNL     1      18.777  12.824  37.642  0.00  0.00    +0.000 NA
ENDBRANCH   7  11
BRANCH   1  19
ATOM     18  C   UNL     1      10.924  11.058  37.144  0.00  0.00    +0.000 C 
ATOM     19  O   UNL     1      11.932  12.021  37.247  0.00  0.00    +0.000 OA
ENDBRANCH   1  19
BRANCH   6  20
ATOM     20  O   UNL     1      13.544  11.222  39.250  0.00  0.00    +0.000 OA
ATOM     21  C   UNL     1      13.270   9.936  39.776  0.00  0.00    +0.000 C 
ENDBRANCH   6  20
TORSDOF 3
ENDMDL
MODEL 8
REMARK VINA RESULT:      -5.8     31.933     33.105
REMARK  Name = 
REMARK  3 active torsions:
REMARK  status: ('A' for Active; 'I' for Inactive)
REMARK    1  A    between atoms: O_2  and  C_3
REMARK    2  A    between atoms: C_8  and  O_9
REMARK    3  A    between atoms: C_11  and  C_12
REMARK                            x       y       z     vdW  Elec       q    Type
REMARK                         _______ _______ _______ _____ _____    ______ ____
ROOT
ATOM      1  C   UNL     1      28.588  23.073  23.784  0.00  0.00    +0.000 A 
ATOM      2  C   UNL     1      29.879  23.029  24.239  0.00  0.00    +0.000 A 
ATOM      3  C   UNL     1      30.162  23.073  25.621  0.00  0.00    +0.000 A 
ATOM      4  C   UNL     1      29.119  23.161  26.500  0.00  0.00    +0.000 A 
ATOM      5  C   UNL     1      27.817  23.206  26.023  0.00  0.00    +0.000 A 
ATOM      6  C   UNL     1      27.533  23.163  24.674  0.00  0.00    +0.000 A 
ATOM      7  C   UNL     1      29.362  23.212  27.959  0.00  0.00    +0.000 C 
ATOM      8  N   UNL     1      30.574  23.170  28.371  0.00  0.00    +0.000 NA
ATOM      9  C   UNL     1      31.715  23.077  27.533  0.00  0.00    +0.000 C 
ATOM     10  C   UNL     1      31.546  23.026  26.087  0.00  0.00    +0.000 C 
ENDROOT
BRANCH   7  11
ATOM     11  C   UNL     1      28.217  23.305  28.818  0.00  0.00    +0.000 A 
ATOM     12  C   UNL     1      27.550  22.203  29.294  0.00  0.00    +0.000 A 
ATOM     13  C   UNL     1      26.461  22.347  30.112  0.00  0.00    +0.000 A 
ATOM     14  C   UNL     1      26.039  23.607  30.452  0.00  0.00    +0.000 A 
ATOM     15  C   UNL     1      26.665  24.722  30.007  0.00  0.00    +0.000 A 
ATOM     16  C   UNL     1      27.767  24.560  29.179  0.00  0.00    +0.000 A 
ATOM     17  N   UNL     1      28.435  25.722  28.701  0.00  0.00    +0.000 NA
ENDBRANCH   7  11
BRANCH   1  19
ATOM     18  C   UNL     1      28.493  24.107  21.555  0.00  0.00    +0.000 C 
ATOM     19  O   UNL     1      28.276  23.030  22.420  0.00  0.00    +0.000 OA
ENDBRANCH   1  19
BRANCH   6  20
ATOM     20  O   UNL     1      26.242  23.205  24.174  0.00  0.00    +0.000 OA
ATOM     21  C   UNL     1      25.437  24.349  24.394  0.00  0.00    +0.000 C 
ENDBRANCH   6  20
TORSDOF 3
ENDMDL
MODEL 9
REMARK VINA RESULT:      -5.7     32.134     33.281
REMARK  Name = 
REMARK  3 active torsions:
REMARK  status: ('A' for Active; 'I' for Inactive)
REMARK    1  A    between atoms: O_2  and  C_3
REMARK    2  A    between atoms: C_8  and  O_9
REMARK    3  A    between atoms: C_11  and  C_12
REMARK                            x       y       z     vdW  Elec       q    Type
REMARK                         _______ _______ _______ _____ _____    ______ ____
ROOT
ATOM      1  C   UNL     1      28.972  22.693  25.333  0.00  0.00    +0.000 A 
ATOM      2  C   UNL     1      28.014  22.679  26.312  0.00  0.00    +0.000 A 
ATOM      3  C   UNL     1      28.372  22.648  27.677  0.00  0.00    +0.000 A 
ATOM      4  C   UNL     1      29.700  22.631  28.004  0.00  0.00    +0.000 A 
ATOM      5  C   UNL     1      30.658  22.645  27.001  0.00  0.00    +0.000 A 
ATOM      6  C   UNL     1      30.315  22.675  25.665  0.00  0.00    +0.000 A 
ATOM      7  C   UNL     1      30.128  22.598  29.419  0.00  0.00    +0.000 C 
ATOM      8  N   UNL     1      29.222  22.586  30.325  0.00  0.00    +0.000 NA
ATOM      9  C   UNL     1      27.826  22.602  30.077  0.00  0.00    +0.000 C 
ATOM     10  C   UNL     1      27.336  22.634  28.705  0.00  0.00    +0.000 C 
ENDROOT
BRANCH   7  11
ATOM     11  C   UNL     1      31.538  22.582  29.684  0.00  0.00    +0.000 A 
ATOM     12  C   UNL     1      32.276  21.425  29.725  0.00  0.00    +0.000 A 
ATOM     13  C   UNL     1      33.621  21.465  29.982  0.00  0.00    +0.000 A 
ATOM     14  C   UNL     1      34.227  22.676  30.199  0.00  0.00    +0.000 A 
ATOM     15  C   UNL     1      33.540  23.842  30.168  0.00  0.00    +0.000 A 
ATOM     16  C   UNL     1      32.178  23.786  29.907  0.00  0.00    +0.000 A 
ATOM     17  N   UNL     1      31.441  25.002  29.872  0.00  0.00    +0.000 NA
ENDBRANCH   7  11
BRANCH   1  19
ATOM     18  C   UNL     1      27.604  23.497  23.455  0.00  0.00    +0.000 C 
ATOM     19  O   UNL     1      28.647  22.723  23.972  0.00  0.00    +0.000 OA
ENDBRANCH   1  19
BRANCH   6  20
ATOM     20  O   UNL     1      31.253  22.689  24.646  0.00  0.00    +0.000 OA
ATOM     21  C   UNL     1      32.067  23.832  24.452  0.00  0.00    +0.000 C 
ENDBRANCH   6  20
TORSDOF 3
ENDMDL
MODEL 10
REMARK VINA RESULT:      -5.6     20.789     22.372
REMARK  Name = 
REMARK  3 active torsions:
REMARK  status: ('A' for Active; 'I' for Inactive)
REMARK    1  A    between atoms: O_2  and  C_3
REMARK    2  A    between atoms: C_8  and  O_9
REMARK    3  A    between atoms: C_11  and  C_12
REMARK                            x       y       z     vdW  Elec       q    Type
REMARK                         _______ _______ _______ _____ _____    ______ ____
ROOT
ATOM      1  C   UNL     1      18.232   7.981  41.009  0.00  0.00    +0.000 A 
ATOM      2  C   UNL     1      17.274   8.697  40.342  0.00  0.00    +0.000 A 
ATOM      3  C   UNL     1      17.622   9.553  39.275  0.00  0.00    +0.000 A 
ATOM      4  C   UNL     1      18.938   9.654  38.920  0.00  0.00    +0.000 A 
ATOM      5  C   UNL     1      19.896   8.923  39.606  0.00  0.00    +0.000 A 
ATOM      6  C   UNL     1      19.564   8.085  40.649  0.00  0.00    +0.000 A 
ATOM      7  C   UNL     1      19.355  10.538  37.809  0.00  0.00    +0.000 C 
ATOM      8  N   UNL     1      18.449  11.202  37.192  0.00  0.00    +0.000 NA
ATOM      9  C   UNL     1      17.063  11.158  37.492  0.00  0.00    +0.000 C 
ATOM     10  C   UNL     1      16.586  10.309  38.575  0.00  0.00    +0.000 C 
ENDROOT
BRANCH   7  11
ATOM     11  C   UNL     1      20.754  10.592  37.495  0.00  0.00    +0.000 A 
ATOM     12  C   UNL     1      21.353   9.731  36.609  0.00  0.00    +0.000 A 
ATOM     13  C   UNL     1      22.694   9.825  36.344  0.00  0.00    +0.000 A 
ATOM     14  C   UNL     1      23.436  10.791  36.975  0.00  0.00    +0.000 A 
ATOM     15  C   UNL     1      22.888  11.661  37.856  0.00  0.00    +0.000 A 
ATOM     16  C   UNL     1      21.529  11.553  38.114  0.00  0.00    +0.000 A 
ATOM     17  N   UNL     1      20.938  12.460  39.038  0.00  0.00    +0.000 NA
ENDBRANCH   7  11
BRANCH   1  19
ATOM     18  C   UNL     1      17.389   5.844  41.886  0.00  0.00    +0.000 C 
ATOM     19  O   UNL     1      17.918   7.124  42.071  0.00  0.00    +0.000 OA
ENDBRANCH   1  19
BRANCH   6  20
ATOM     20  O   UNL     1      20.502   7.344  41.350  0.00  0.00    +0.000 OA
ATOM     21  C   UNL     1      21.062   6.181  40.767  0.00  0.00    +0.000 C 
ENDBRANCH   6  20
TORSDOF 3
ENDMDL
