MODEL 1
REMARK VINA RESULT:      -7.4      0.000      0.000
REMARK  Name = 
REMARK  7 active torsions:
REMARK  status: ('A' for Active; 'I' for Inactive)
REMARK    1  A    between atoms: C_2  and  O_3
REMARK    2  A    between atoms: O_3  and  C_4
REMARK    3  A    between atoms: N_6  and  N_7
REMARK    4  A    between atoms: N_6  and  C_26
REMARK    5  A    between atoms: C_8  and  C_10
REMARK    6  A    between atoms: C_10  and  C_12
REMARK    7  A    between atoms: C_10  and  C_19
REMARK                            x       y       z     vdW  Elec       q    Type
REMARK                         _______ _______ _______ _____ _____    ______ ____
ROOT
ATOM      1  C   UNL     1      38.257   3.729  14.031  0.00  0.00    +0.000 C 
ATOM      2  O   UNL     1      39.409   3.712  13.225  0.00  0.00    +0.000 OA
ENDROOT
BRANCH   1   3
ATOM      3  C   UNL     1      37.198   4.580  13.422  0.00  0.00    +0.000 A 
ATOM      4  C   UNL     1      37.220   4.890  12.078  0.00  0.00    +0.000 A 
ATOM      5  C   UNL     1      36.215   5.686  11.516  0.00  0.00    +0.000 A 
ATOM      6  C   UNL     1      35.180   6.185  12.272  0.00  0.00    +0.000 A 
ATOM      7  C   UNL     1      34.111   7.036  11.651  0.00  0.00    +0.000 C 
ATOM      8  C   UNL     1      35.162   5.874  13.616  0.00  0.00    +0.000 A 
ATOM      9  C   UNL     1      36.169   5.078  14.173  0.00  0.00    +0.000 A 
ENDBRANCH   1   3
BRANCH   1  10
ATOM     10  C   UNL     1      38.612   4.301  15.373  0.00  0.00    +0.000 A 
ATOM     11  C   UNL     1      39.660   5.187  15.480  0.00  0.00    +0.000 A 
ATOM     12  C   UNL     1      39.999   5.725  16.730  0.00  0.00    +0.000 A 
ATOM     13  C   UNL     1      39.307   5.389  17.872  0.00  0.00    +0.000 A 
ATOM     14  C   UNL     1      39.647   5.945  19.210  0.00  0.00    +0.000 C 
ATOM     15  C   UNL     1      38.262   4.505  17.759  0.00  0.00    +0.000 A 
ATOM     16  C   UNL     1      37.925   3.972  16.520  0.00  0.00    +0.000 A 
ENDBRANCH   1  10
BRANCH   1  18
ATOM     17  N   UNL     1      38.589   1.462  15.007  0.00  0.00    +0.000 NA
ATOM     18  C   UNL     1      37.809   2.346  14.230  0.00  0.00    +0.000 C 
ATOM     19  O   UNL     1      36.742   1.955  13.712  0.00  0.00    +0.000 OA
BRANCH  17  22
ATOM     20  C   UNL     1      37.286  -0.267  16.212  0.00  0.00    +0.000 C 
ATOM     21  O   UNL     1      37.065  -1.502  16.350  0.00  0.00    +0.000 OA
ATOM     22  N   UNL     1      38.253   0.139  15.253  0.00  0.00    +0.000 N 
BRANCH  22  23
ATOM     23  C   UNL     1      38.954  -0.841  14.464  0.00  0.00    +0.000 A 
ATOM     24  C   UNL     1      38.460  -1.260  13.257  0.00  0.00    +0.000 A 
ATOM     25  C   UNL     1      39.127  -2.192  12.506  0.00  0.00    +0.000 A 
ATOM     26  C   UNL     1      40.308  -2.730  12.945  0.00  0.00    +0.000 A 
ATOM     27  C   UNL     1      40.802  -2.302  14.166  0.00  0.00    +0.000 A 
ATOM     28  C   UNL     1      40.140  -1.371  14.921  0.00  0.00    +0.000 A 
ENDBRANCH  22  23
BRANCH  20  29
ATOM     29  O   UNL     1      36.584   0.628  16.994  0.00  0.00    +0.000 OA
BRANCH  29  31
ATOM     30  C   UNL     1      34.778   2.079  16.458  0.00  0.00    +0.000 C 
ATOM     31  C   UNL     1      35.160   0.667  16.856  0.00  0.00    +0.000 C 
ENDBRANCH  29  31
ENDBRANCH  20  29
ENDBRANCH  17  22
ENDBRANCH   1  18
TORSDOF 7
ENDMDL
MODEL 2
REMARK VINA RESULT:      -7.3      1.852      5.055
REMARK  Name = 
REMARK  7 active torsions:
REMARK  status: ('A' for Active; 'I' for Inactive)
REMARK    1  A    between atoms: C_2  and  O_3
REMARK    2  A    between atoms: O_3  and  C_4
REMARK    3  A    between atoms: N_6  and  N_7
REMARK    4  A    between atoms: N_6  and  C_26
REMARK    5  A    between atoms: C_8  and  C_10
REMARK    6  A    between atoms: C_10  and  C_12
REMARK    7  A    between atoms: C_10  and  C_19
REMARK                            x       y       z     vdW  Elec       q    Type
REMARK                         _______ _______ _______ _____ _____    ______ ____
ROOT
ATOM      1  C   UNL     1      37.129   3.379  15.550  0.00  0.00    +0.000 C 
ATOM      2  O   UNL     1      35.959   3.207  16.308  0.00  0.00    +0.000 OA
ENDROOT
BRANCH   1   3
ATOM      3  C   UNL     1      38.123   4.205  16.290  0.00  0.00    +0.000 A 
ATOM      4  C   UNL     1      39.095   4.916  15.619  0.00  0.00    +0.000 A 
ATOM      5  C   UNL     1      40.020   5.695  16.325  0.00  0.00    +0.000 A 
ATOM      6  C   UNL     1      39.995   5.779  17.699  0.00  0.00    +0.000 A 
ATOM      7  C   UNL     1      40.995   6.619  18.438  0.00  0.00    +0.000 C 
ATOM      8  C   UNL     1      39.022   5.065  18.366  0.00  0.00    +0.000 A 
ATOM      9  C   UNL     1      38.100   4.288  17.655  0.00  0.00    +0.000 A 
ENDBRANCH   1   3
BRANCH   1  10
ATOM     10  C   UNL     1      36.781   4.086  14.272  0.00  0.00    +0.000 A 
ATOM     11  C   UNL     1      35.821   5.072  14.280  0.00  0.00    +0.000 A 
ATOM     12  C   UNL     1      35.489   5.738  13.091  0.00  0.00    +0.000 A 
ATOM     13  C   UNL     1      36.101   5.429  11.897  0.00  0.00    +0.000 A 
ATOM     14  C   UNL     1      35.765   6.119  10.621  0.00  0.00    +0.000 C 
ATOM     15  C   UNL     1      37.057   4.444  11.895  0.00  0.00    +0.000 A 
ATOM     16  C   UNL     1      37.388   3.785  13.074  0.00  0.00    +0.000 A 
ENDBRANCH   1  10
BRANCH   1  18
ATOM     17  N   UNL     1      36.768   0.991  14.939  0.00  0.00    +0.000 NA
ATOM     18  C   UNL     1      37.658   2.053  15.207  0.00  0.00    +0.000 C 
ATOM     19  O   UNL     1      38.892   1.869  15.153  0.00  0.00    +0.000 OA
BRANCH  17  22
ATOM     20  C   UNL     1      37.463  -0.715  13.283  0.00  0.00    +0.000 C 
ATOM     21  O   UNL     1      37.816  -1.913  13.101  0.00  0.00    +0.000 OA
ATOM     22  N   UNL     1      37.167  -0.295  14.608  0.00  0.00    +0.000 N 
BRANCH  22  23
ATOM     23  C   UNL     1      37.273  -1.220  15.706  0.00  0.00    +0.000 A 
ATOM     24  C   UNL     1      38.482  -1.488  16.290  0.00  0.00    +0.000 A 
ATOM     25  C   UNL     1      38.583  -2.368  17.335  0.00  0.00    +0.000 A 
ATOM     26  C   UNL     1      37.472  -3.003  17.825  0.00  0.00    +0.000 A 
ATOM     27  C   UNL     1      36.252  -2.728  17.231  0.00  0.00    +0.000 A 
ATOM     28  C   UNL     1      36.145  -1.850  16.186  0.00  0.00    +0.000 A 
ENDBRANCH  22  23
BRANCH  20  29
ATOM     29  O   UNL     1      37.381   0.129  12.193  0.00  0.00    +0.000 OA
BRANCH  29  31
ATOM     30  C   UNL     1      38.225   1.253  10.276  0.00  0.00    +0.000 C 
ATOM     31  C   UNL     1      38.597   0.496  11.535  0.00  0.00    +0.000 C 
ENDBRANCH  29  31
ENDBRANCH  20  29
ENDBRANCH  17  22
ENDBRANCH   1  18
TORSDOF 7
ENDMDL
MODEL 3
REMARK VINA RESULT:      -7.3      2.546      6.816
REMARK  Name = 
REMARK  7 active torsions:
REMARK  status: ('A' for Active; 'I' for Inactive)
REMARK    1  A    between atoms: C_2  and  O_3
REMARK    2  A    between atoms: O_3  and  C_4
REMARK    3  A    between atoms: N_6  and  N_7
REMARK    4  A    between atoms: N_6  and  C_26
REMARK    5  A    between atoms: C_8  and  C_10
REMARK    6  A    between atoms: C_10  and  C_12
REMARK    7  A    between atoms: C_10  and  C_19
REMARK                            x       y       z     vdW  Elec       q    Type
REMARK                         _______ _______ _______ _____ _____    ______ ____
ROOT
ATOM      1  C   UNL     1      37.823  -1.075  15.512  0.00  0.00    +0.000 C 
ATOM      2  O   UNL     1      38.167  -0.862  16.858  0.00  0.00    +0.000 OA
ENDROOT
BRANCH   1   3
ATOM      3  C   UNL     1      36.704  -2.051  15.400  0.00  0.00    +0.000 A 
ATOM      4  C   UNL     1      36.740  -3.068  14.469  0.00  0.00    +0.000 A 
ATOM      5  C   UNL     1      35.684  -3.983  14.377  0.00  0.00    +0.000 A 
ATOM      6  C   UNL     1      34.585  -3.905  15.200  0.00  0.00    +0.000 A 
ATOM      7  C   UNL     1      33.464  -4.896  15.087  0.00  0.00    +0.000 C 
ATOM      8  C   UNL     1      34.553  -2.886  16.129  0.00  0.00    +0.000 A 
ATOM      9  C   UNL     1      35.610  -1.973  16.217  0.00  0.00    +0.000 A 
ENDBRANCH   1   3
BRANCH   1  10
ATOM     10  C   UNL     1      39.014  -1.633  14.789  0.00  0.00    +0.000 A 
ATOM     11  C   UNL     1      39.142  -1.433  13.433  0.00  0.00    +0.000 A 
ATOM     12  C   UNL     1      40.251  -1.952  12.749  0.00  0.00    +0.000 A 
ATOM     13  C   UNL     1      41.230  -2.669  13.400  0.00  0.00    +0.000 A 
ATOM     14  C   UNL     1      42.415  -3.231  12.697  0.00  0.00    +0.000 C 
ATOM     15  C   UNL     1      41.096  -2.865  14.753  0.00  0.00    +0.000 A 
ATOM     16  C   UNL     1      39.998  -2.349  15.432  0.00  0.00    +0.000 A 
ENDBRANCH   1  10
BRANCH   1  18
ATOM     17  N   UNL     1      38.220   1.372  15.271  0.00  0.00    +0.000 NA
ATOM     18  C   UNL     1      37.489   0.221  14.907  0.00  0.00    +0.000 C 
ATOM     19  O   UNL     1      36.562   0.300  14.075  0.00  0.00    +0.000 OA
BRANCH  17  22
ATOM     20  C   UNL     1      37.018   3.538  15.287  0.00  0.00    +0.000 C 
ATOM     21  O   UNL     1      36.888   4.667  14.736  0.00  0.00    +0.000 OA
ATOM     22  N   UNL     1      37.983   2.639  14.758  0.00  0.00    +0.000 N 
BRANCH  22  23
ATOM     23  C   UNL     1      38.788   3.017  13.626  0.00  0.00    +0.000 A 
ATOM     24  C   UNL     1      38.362   2.779  12.346  0.00  0.00    +0.000 A 
ATOM     25  C   UNL     1      39.127   3.138  11.268  0.00  0.00    +0.000 A 
ATOM     26  C   UNL     1      40.342   3.748  11.445  0.00  0.00    +0.000 A 
ATOM     27  C   UNL     1      40.767   3.986  12.741  0.00  0.00    +0.000 A 
ATOM     28  C   UNL     1      40.006   3.629  13.822  0.00  0.00    +0.000 A 
ENDBRANCH  22  23
BRANCH  20  29
ATOM     29  O   UNL     1      36.220   3.230  16.371  0.00  0.00    +0.000 OA
BRANCH  29  31
ATOM     30  C   UNL     1      34.780   1.419  16.918  0.00  0.00    +0.000 C 
ATOM     31  C   UNL     1      34.917   2.697  16.115  0.00  0.00    +0.000 C 
ENDBRANCH  29  31
ENDBRANCH  20  29
ENDBRANCH  17  22
ENDBRANCH   1  18
TORSDOF 7
ENDMDL
MODEL 4
REMARK VINA RESULT:      -7.2      3.463      6.392
REMARK  Name = 
REMARK  7 active torsions:
REMARK  status: ('A' for Active; 'I' for Inactive)
REMARK    1  A    between atoms: C_2  and  O_3
REMARK    2  A    between atoms: O_3  and  C_4
REMARK    3  A    between atoms: N_6  and  N_7
REMARK    4  A    between atoms: N_6  and  C_26
REMARK    5  A    between atoms: C_8  and  C_10
REMARK    6  A    between atoms: C_10  and  C_12
REMARK    7  A    between atoms: C_10  and  C_19
REMARK                            x       y       z     vdW  Elec       q    Type
REMARK                         _______ _______ _______ _____ _____    ______ ____
ROOT
ATOM      1  C   UNL     1      37.823  -1.166  15.640  0.00  0.00    +0.000 C 
ATOM      2  O   UNL     1      38.590  -1.147  16.817  0.00  0.00    +0.000 OA
ENDROOT
BRANCH   1   3
ATOM      3  C   UNL     1      36.874  -0.019  15.607  0.00  0.00    +0.000 A 
ATOM      4  C   UNL     1      36.608   0.650  14.431  0.00  0.00    +0.000 A 
ATOM      5  C   UNL     1      35.710   1.724  14.412  0.00  0.00    +0.000 A 
ATOM      6  C   UNL     1      35.066   2.148  15.551  0.00  0.00    +0.000 A 
ATOM      7  C   UNL     1      34.106   3.301  15.510  0.00  0.00    +0.000 C 
ATOM      8  C   UNL     1      35.336   1.478  16.726  0.00  0.00    +0.000 A 
ATOM      9  C   UNL     1      36.235   0.405  16.740  0.00  0.00    +0.000 A 
ENDBRANCH   1   3
BRANCH   1  10
ATOM     10  C   UNL     1      37.028  -2.440  15.599  0.00  0.00    +0.000 A 
ATOM     11  C   UNL     1      37.521  -3.569  16.212  0.00  0.00    +0.000 A 
ATOM     12  C   UNL     1      36.786  -4.763  16.178  0.00  0.00    +0.000 A 
ATOM     13  C   UNL     1      35.569  -4.843  15.538  0.00  0.00    +0.000 A 
ATOM     14  C   UNL     1      34.771  -6.098  15.486  0.00  0.00    +0.000 C 
ATOM     15  C   UNL     1      35.083  -3.713  14.928  0.00  0.00    +0.000 A 
ATOM     16  C   UNL     1      35.811  -2.529  14.963  0.00  0.00    +0.000 A 
ENDBRANCH   1  10
BRANCH   1  18
ATOM     17  N   UNL     1      39.782  -0.217  14.430  0.00  0.00    +0.000 NA
ATOM     18  C   UNL     1      38.736  -1.162  14.490  0.00  0.00    +0.000 C 
ATOM     19  O   UNL     1      38.583  -1.993  13.571  0.00  0.00    +0.000 OA
BRANCH  17  22
ATOM     20  C   UNL     1      40.449   0.572  12.178  0.00  0.00    +0.000 C 
ATOM     21  O   UNL     1      41.355   0.580  11.299  0.00  0.00    +0.000 OA
ATOM     22  N   UNL     1      40.694  -0.131  13.389  0.00  0.00    +0.000 N 
BRANCH  22  23
ATOM     23  C   UNL     1      41.947  -0.809  13.597  0.00  0.00    +0.000 A 
ATOM     24  C   UNL     1      42.157  -2.071  13.107  0.00  0.00    +0.000 A 
ATOM     25  C   UNL     1      43.349  -2.716  13.305  0.00  0.00    +0.000 A 
ATOM     26  C   UNL     1      44.365  -2.113  14.000  0.00  0.00    +0.000 A 
ATOM     27  C   UNL     1      44.147  -0.837  14.492  0.00  0.00    +0.000 A 
ATOM     28  C   UNL     1      42.957  -0.187  14.297  0.00  0.00    +0.000 A 
ENDBRANCH  22  23
BRANCH  20  29
ATOM     29  O   UNL     1      39.268   1.240  11.925  0.00  0.00    +0.000 OA
BRANCH  29  31
ATOM     30  C   UNL     1      37.354   1.665  10.579  0.00  0.00    +0.000 C 
ATOM     31  C   UNL     1      38.295   0.595  11.096  0.00  0.00    +0.000 C 
ENDBRANCH  29  31
ENDBRANCH  20  29
ENDBRANCH  17  22
ENDBRANCH   1  18
TORSDOF 7
ENDMDL
MODEL 5
REMARK VINA RESULT:      -7.1      2.509      6.924
REMARK  Name = 
REMARK  7 active torsions:
REMARK  status: ('A' for Active; 'I' for Inactive)
REMARK    1  A    between atoms: C_2  and  O_3
REMARK    2  A    between atoms: O_3  and  C_4
REMARK    3  A    between atoms: N_6  and  N_7
REMARK    4  A    between atoms: N_6  and  C_26
REMARK    5  A    between atoms: C_8  and  C_10
REMARK    6  A    between atoms: C_10  and  C_12
REMARK    7  A    between atoms: C_10  and  C_19
REMARK                            x       y       z     vdW  Elec       q    Type
REMARK                         _______ _______ _______ _____ _____    ______ ____
ROOT
ATOM      1  C   UNL     1      38.531  -1.687  14.786  0.00  0.00    +0.000 C 
ATOM      2  O   UNL     1      38.145  -2.605  13.795  0.00  0.00    +0.000 OA
ENDROOT
BRANCH   1   3
ATOM      3  C   UNL     1      39.892  -1.149  14.508  0.00  0.00    +0.000 A 
ATOM      4  C   UNL     1      40.074   0.168  14.144  0.00  0.00    +0.000 A 
ATOM      5  C   UNL     1      41.359   0.663  13.891  0.00  0.00    +0.000 A 
ATOM      6  C   UNL     1      42.475  -0.135  13.995  0.00  0.00    +0.000 A 
ATOM      7  C   UNL     1      43.845   0.415  13.721  0.00  0.00    +0.000 C 
ATOM      8  C   UNL     1      42.288  -1.452  14.359  0.00  0.00    +0.000 A 
ATOM      9  C   UNL     1      41.002  -1.942  14.610  0.00  0.00    +0.000 A 
ENDBRANCH   1   3
BRANCH   1  10
ATOM     10  C   UNL     1      38.559  -2.388  16.113  0.00  0.00    +0.000 A 
ATOM     11  C   UNL     1      38.450  -3.759  16.161  0.00  0.00    +0.000 A 
ATOM     12  C   UNL     1      38.474  -4.422  17.397  0.00  0.00    +0.000 A 
ATOM     13  C   UNL     1      38.604  -3.734  18.582  0.00  0.00    +0.000 A 
ATOM     14  C   UNL     1      38.632  -4.414  19.906  0.00  0.00    +0.000 C 
ATOM     15  C   UNL     1      38.713  -2.366  18.528  0.00  0.00    +0.000 A 
ATOM     16  C   UNL     1      38.690  -1.708  17.303  0.00  0.00    +0.000 A 
ENDBRANCH   1  10
BRANCH   1  18
ATOM     17  N   UNL     1      37.497   0.251  15.961  0.00  0.00    +0.000 NA
ATOM     18  C   UNL     1      37.520  -0.625  14.854  0.00  0.00    +0.000 C 
ATOM     19  O   UNL     1      36.684  -0.500  13.935  0.00  0.00    +0.000 OA
BRANCH  17  22
ATOM     20  C   UNL     1      35.212   1.084  16.429  0.00  0.00    +0.000 C 
ATOM     21  O   UNL     1      34.474   2.101  16.548  0.00  0.00    +0.000 OA
ATOM     22  N   UNL     1      36.584   1.283  16.119  0.00  0.00    +0.000 N 
BRANCH  22  23
ATOM     23  C   UNL     1      37.108   2.613  15.949  0.00  0.00    +0.000 A 
ATOM     24  C   UNL     1      37.410   3.397  17.032  0.00  0.00    +0.000 A 
ATOM     25  C   UNL     1      37.908   4.662  16.871  0.00  0.00    +0.000 A 
ATOM     26  C   UNL     1      38.120   5.177  15.618  0.00  0.00    +0.000 A 
ATOM     27  C   UNL     1      37.814   4.381  14.528  0.00  0.00    +0.000 A 
ATOM     28  C   UNL     1      37.314   3.115  14.683  0.00  0.00    +0.000 A 
ENDBRANCH  22  23
BRANCH  20  29
ATOM     29  O   UNL     1      34.657  -0.168  16.604  0.00  0.00    +0.000 OA
BRANCH  29  31
ATOM     30  C   UNL     1      35.127  -2.370  17.367  0.00  0.00    +0.000 C 
ATOM     31  C   UNL     1      35.032  -0.912  17.768  0.00  0.00    +0.000 C 
ENDBRANCH  29  31
ENDBRANCH  20  29
ENDBRANCH  17  22
ENDBRANCH   1  18
TORSDOF 7
ENDMDL
MODEL 6
REMARK VINA RESULT:      -7.0      2.233      7.332
REMARK  Name = 
REMARK  7 active torsions:
REMARK  status: ('A' for Active; 'I' for Inactive)
REMARK    1  A    between atoms: C_2  and  O_3
REMARK    2  A    between atoms: O_3  and  C_4
REMARK    3  A    between atoms: N_6  and  N_7
REMARK    4  A    between atoms: N_6  and  C_26
REMARK    5  A    between atoms: C_8  and  C_10
REMARK    6  A    between atoms: C_10  and  C_12
REMARK    7  A    between atoms: C_10  and  C_19
REMARK                            x       y       z     vdW  Elec       q    Type
REMARK                         _______ _______ _______ _____ _____    ______ ____
ROOT
ATOM      1  C   UNL     1      37.490  -0.979  15.884  0.00  0.00    +0.000 C 
ATOM      2  O   UNL     1      37.886  -0.858  17.227  0.00  0.00    +0.000 OA
ENDROOT
BRANCH   1   3
ATOM      3  C   UNL     1      36.328  -1.901  15.756  0.00  0.00    +0.000 A 
ATOM      4  C   UNL     1      36.273  -2.839  14.746  0.00  0.00    +0.000 A 
ATOM      5  C   UNL     1      35.178  -3.704  14.640  0.00  0.00    +0.000 A 
ATOM      6  C   UNL     1      34.127  -3.653  15.526  0.00  0.00    +0.000 A 
ATOM      7  C   UNL     1      32.962  -4.590  15.396  0.00  0.00    +0.000 C 
ATOM      8  C   UNL     1      34.185  -2.713  16.533  0.00  0.00    +0.000 A 
ATOM      9  C   UNL     1      35.282  -1.850  16.636  0.00  0.00    +0.000 A 
ENDBRANCH   1   3
BRANCH   1  10
ATOM     10  C   UNL     1      38.632  -1.542  15.089  0.00  0.00    +0.000 A 
ATOM     11  C   UNL     1      39.651  -2.204  15.736  0.00  0.00    +0.000 A 
ATOM     12  C   UNL     1      40.723  -2.732  15.001  0.00  0.00    +0.000 A 
ATOM     13  C   UNL     1      40.790  -2.605  13.632  0.00  0.00    +0.000 A 
ATOM     14  C   UNL     1      41.917  -3.156  12.830  0.00  0.00    +0.000 C 
ATOM     15  C   UNL     1      39.771  -1.944  12.992  0.00  0.00    +0.000 A 
ATOM     16  C   UNL     1      38.708  -1.421  13.720  0.00  0.00    +0.000 A 
ENDBRANCH   1  10
BRANCH   1  18
ATOM     17  N   UNL     1      38.250   1.242  15.051  0.00  0.00    +0.000 NA
ATOM     18  C   UNL     1      37.192   0.362  15.366  0.00  0.00    +0.000 C 
ATOM     19  O   UNL     1      36.007   0.720  15.206  0.00  0.00    +0.000 OA
BRANCH  17  22
ATOM     20  C   UNL     1      37.537   2.815  13.274  0.00  0.00    +0.000 C 
ATOM     21  O   UNL     1      37.425   4.024  12.932  0.00  0.00    +0.000 OA
ATOM     22  N   UNL     1      38.074   2.527  14.558  0.00  0.00    +0.000 N 
BRANCH  22  23
ATOM     23  C   UNL     1      38.473   3.594  15.437  0.00  0.00    +0.000 A 
ATOM     24  C   UNL     1      39.534   4.404  15.129  0.00  0.00    +0.000 A 
ATOM     25  C   UNL     1      39.914   5.420  15.965  0.00  0.00    +0.000 A 
ATOM     26  C   UNL     1      39.240   5.654  17.135  0.00  0.00    +0.000 A 
ATOM     27  C   UNL     1      38.168   4.833  17.441  0.00  0.00    +0.000 A 
ATOM     28  C   UNL     1      37.784   3.815  16.609  0.00  0.00    +0.000 A 
ENDBRANCH  22  23
BRANCH  20  29
ATOM     29  O   UNL     1      37.137   1.831  12.392  0.00  0.00    +0.000 OA
BRANCH  29  31
ATOM     30  C   UNL     1      39.230   1.420  11.342  0.00  0.00    +0.000 C 
ATOM     31  C   UNL     1      37.775   1.777  11.112  0.00  0.00    +0.000 C 
ENDBRANCH  29  31
ENDBRANCH  20  29
ENDBRANCH  17  22
ENDBRANCH   1  18
TORSDOF 7
ENDMDL
MODEL 7
REMARK VINA RESULT:      -6.9      2.447      7.508
REMARK  Name = 
REMARK  7 active torsions:
REMARK  status: ('A' for Active; 'I' for Inactive)
REMARK    1  A    between atoms: C_2  and  O_3
REMARK    2  A    between atoms: O_3  and  C_4
REMARK    3  A    between atoms: N_6  and  N_7
REMARK    4  A    between atoms: N_6  and  C_26
REMARK    5  A    between atoms: C_8  and  C_10
REMARK    6  A    between atoms: C_10  and  C_12
REMARK    7  A    between atoms: C_10  and  C_19
REMARK                            x       y       z     vdW  Elec       q    Type
REMARK                         _______ _______ _______ _____ _____    ______ ____
ROOT
ATOM      1  C   UNL     1      38.340  -1.513  14.075  0.00  0.00    +0.000 C 
ATOM      2  O   UNL     1      37.756  -1.383  12.804  0.00  0.00    +0.000 OA
ENDROOT
BRANCH   1   3
ATOM      3  C   UNL     1      39.815  -1.686  13.964  0.00  0.00    +0.000 A 
ATOM      4  C   UNL     1      40.356  -2.818  13.391  0.00  0.00    +0.000 A 
ATOM      5  C   UNL     1      41.744  -2.967  13.287  0.00  0.00    +0.000 A 
ATOM      6  C   UNL     1      42.611  -2.003  13.747  0.00  0.00    +0.000 A 
ATOM      7  C   UNL     1      44.097  -2.181  13.626  0.00  0.00    +0.000 C 
ATOM      8  C   UNL     1      42.066  -0.874  14.321  0.00  0.00    +0.000 A 
ATOM      9  C   UNL     1      40.678  -0.729  14.422  0.00  0.00    +0.000 A 
ENDBRANCH   1   3
BRANCH   1  10
ATOM     10  C   UNL     1      37.769  -2.726  14.751  0.00  0.00    +0.000 A 
ATOM     11  C   UNL     1      38.361  -3.209  15.895  0.00  0.00    +0.000 A 
ATOM     12  C   UNL     1      37.836  -4.343  16.533  0.00  0.00    +0.000 A 
ATOM     13  C   UNL     1      36.730  -4.999  16.041  0.00  0.00    +0.000 A 
ATOM     14  C   UNL     1      36.154  -6.204  16.698  0.00  0.00    +0.000 C 
ATOM     15  C   UNL     1      36.144  -4.513  14.898  0.00  0.00    +0.000 A 
ATOM     16  C   UNL     1      36.664  -3.388  14.267  0.00  0.00    +0.000 A 
ENDBRANCH   1  10
BRANCH   1  18
ATOM     17  N   UNL     1      37.180   0.679  14.305  0.00  0.00    +0.000 NA
ATOM     18  C   UNL     1      37.980  -0.335  14.874  0.00  0.00    +0.000 C 
ATOM     19  O   UNL     1      38.382  -0.235  16.052  0.00  0.00    +0.000 OA
BRANCH  17  22
ATOM     20  C   UNL     1      35.712   1.875  15.903  0.00  0.00    +0.000 C 
ATOM     21  O   UNL     1      35.444   2.980  16.451  0.00  0.00    +0.000 OA
ATOM     22  N   UNL     1      36.787   1.829  14.975  0.00  0.00    +0.000 N 
BRANCH  22  23
ATOM     23  C   UNL     1      37.546   3.016  14.679  0.00  0.00    +0.000 A 
ATOM     24  C   UNL     1      38.675   3.329  15.390  0.00  0.00    +0.000 A 
ATOM     25  C   UNL     1      39.397   4.458  15.108  0.00  0.00    +0.000 A 
ATOM     26  C   UNL     1      39.008   5.305  14.103  0.00  0.00    +0.000 A 
ATOM     27  C   UNL     1      37.867   4.983  13.387  0.00  0.00    +0.000 A 
ATOM     28  C   UNL     1      37.141   3.856  13.665  0.00  0.00    +0.000 A 
ENDBRANCH  22  23
BRANCH  20  29
ATOM     29  O   UNL     1      34.952   0.768  16.225  0.00  0.00    +0.000 OA
BRANCH  29  31
ATOM     30  C   UNL     1      35.151  -1.400  17.182  0.00  0.00    +0.000 C 
ATOM     31  C   UNL     1      35.243   0.089  17.451  0.00  0.00    +0.000 C 
ENDBRANCH  29  31
ENDBRANCH  20  29
ENDBRANCH  17  22
ENDBRANCH   1  18
TORSDOF 7
ENDMDL
MODEL 8
REMARK VINA RESULT:      -6.8      1.486      4.298
REMARK  Name = 
REMARK  7 active torsions:
REMARK  status: ('A' for Active; 'I' for Inactive)
REMARK    1  A    between atoms: C_2  and  O_3
REMARK    2  A    between atoms: O_3  and  C_4
REMARK    3  A    between atoms: N_6  and  N_7
REMARK    4  A    between atoms: N_6  and  C_26
REMARK    5  A    between atoms: C_8  and  C_10
REMARK    6  A    between atoms: C_10  and  C_12
REMARK    7  A    between atoms: C_10  and  C_19
REMARK                            x       y       z     vdW  Elec       q    Type
REMARK                         _______ _______ _______ _____ _____    ______ ____
ROOT
ATOM      1  C   UNL     1      36.613   3.373  15.059  0.00  0.00    +0.000 C 
ATOM      2  O   UNL     1      35.360   3.444  15.690  0.00  0.00    +0.000 OA
ENDROOT
BRANCH   1   3
ATOM      3  C   UNL     1      37.654   4.064  15.870  0.00  0.00    +0.000 A 
ATOM      4  C   UNL     1      38.683   4.754  15.264  0.00  0.00    +0.000 A 
ATOM      5  C   UNL     1      39.653   5.405  16.037  0.00  0.00    +0.000 A 
ATOM      6  C   UNL     1      39.616   5.382  17.412  0.00  0.00    +0.000 A 
ATOM      7  C   UNL     1      40.664   6.087  18.223  0.00  0.00    +0.000 C 
ATOM      8  C   UNL     1      38.586   4.690  18.013  0.00  0.00    +0.000 A 
ATOM      9  C   UNL     1      37.620   4.041  17.237  0.00  0.00    +0.000 A 
ENDBRANCH   1   3
BRANCH   1  10
ATOM     10  C   UNL     1      36.525   4.051  13.723  0.00  0.00    +0.000 A 
ATOM     11  C   UNL     1      35.678   5.124  13.559  0.00  0.00    +0.000 A 
ATOM     12  C   UNL     1      35.588   5.762  12.313  0.00  0.00    +0.000 A 
ATOM     13  C   UNL     1      36.329   5.342  11.232  0.00  0.00    +0.000 A 
ATOM     14  C   UNL     1      36.251   6.002   9.900  0.00  0.00    +0.000 C 
ATOM     15  C   UNL     1      37.172   4.271  11.402  0.00  0.00    +0.000 A 
ATOM     16  C   UNL     1      37.263   3.638  12.636  0.00  0.00    +0.000 A 
ENDBRANCH   1  10
BRANCH   1  18
ATOM     17  N   UNL     1      38.199   1.459  15.222  0.00  0.00    +0.000 NA
ATOM     18  C   UNL     1      36.938   1.959  14.832  0.00  0.00    +0.000 C 
ATOM     19  O   UNL     1      36.101   1.205  14.294  0.00  0.00    +0.000 OA
BRANCH  17  22
ATOM     20  C   UNL     1      38.254  -0.914  15.934  0.00  0.00    +0.000 C 
ATOM     21  O   UNL     1      38.680  -2.073  15.676  0.00  0.00    +0.000 OA
ATOM     22  N   UNL     1      38.602   0.143  15.050  0.00  0.00    +0.000 N 
BRANCH  22  23
ATOM     23  C   UNL     1      39.419  -0.115  13.892  0.00  0.00    +0.000 A 
ATOM     24  C   UNL     1      38.853  -0.422  12.683  0.00  0.00    +0.000 A 
ATOM     25  C   UNL     1      39.630  -0.667  11.582  0.00  0.00    +0.000 A 
ATOM     26  C   UNL     1      40.997  -0.610  11.662  0.00  0.00    +0.000 A 
ATOM     27  C   UNL     1      41.563  -0.299  12.887  0.00  0.00    +0.000 A 
ATOM     28  C   UNL     1      40.791  -0.054  13.992  0.00  0.00    +0.000 A 
ENDBRANCH  22  23
BRANCH  20  29
ATOM     29  O   UNL     1      37.473  -0.724  17.057  0.00  0.00    +0.000 OA
BRANCH  29  31
ATOM     30  C   UNL     1      35.233  -0.047  17.480  0.00  0.00    +0.000 C 
ATOM     31  C   UNL     1      36.119  -1.187  17.019  0.00  0.00    +0.000 C 
ENDBRANCH  29  31
ENDBRANCH  20  29
ENDBRANCH  17  22
ENDBRANCH   1  18
TORSDOF 7
ENDMDL
MODEL 9
REMARK VINA RESULT:      -6.8      2.904      7.506
REMARK  Name = 
REMARK  7 active torsions:
REMARK  status: ('A' for Active; 'I' for Inactive)
REMARK    1  A    between atoms: C_2  and  O_3
REMARK    2  A    between atoms: O_3  and  C_4
REMARK    3  A    between atoms: N_6  and  N_7
REMARK    4  A    between atoms: N_6  and  C_26
REMARK    5  A    between atoms: C_8  and  C_10
REMARK    6  A    between atoms: C_10  and  C_12
REMARK    7  A    between atoms: C_10  and  C_19
REMARK                            x       y       z     vdW  Elec       q    Type
REMARK                         _______ _______ _______ _____ _____    ______ ____
ROOT
ATOM      1  C   UNL     1      38.990  -2.134  14.071  0.00  0.00    +0.000 C 
ATOM      2  O   UNL     1      38.347  -3.180  13.387  0.00  0.00    +0.000 OA
ENDROOT
BRANCH   1   3
ATOM      3  C   UNL     1      40.464  -2.196  13.869  0.00  0.00    +0.000 A 
ATOM      4  C   UNL     1      41.019  -3.063  12.951  0.00  0.00    +0.000 A 
ATOM      5  C   UNL     1      42.406  -3.108  12.766  0.00  0.00    +0.000 A 
ATOM      6  C   UNL     1      43.258  -2.300  13.484  0.00  0.00    +0.000 A 
ATOM      7  C   UNL     1      44.742  -2.362  13.270  0.00  0.00    +0.000 C 
ATOM      8  C   UNL     1      42.699  -1.436  14.402  0.00  0.00    +0.000 A 
ATOM      9  C   UNL     1      41.312  -1.395  14.583  0.00  0.00    +0.000 A 
ENDBRANCH   1   3
BRANCH   1  10
ATOM     10  C   UNL     1      38.706  -2.268  15.540  0.00  0.00    +0.000 A 
ATOM     11  C   UNL     1      39.234  -3.329  16.241  0.00  0.00    +0.000 A 
ATOM     12  C   UNL     1      38.973  -3.463  17.612  0.00  0.00    +0.000 A 
ATOM     13  C   UNL     1      38.192  -2.554  18.290  0.00  0.00    +0.000 A 
ATOM     14  C   UNL     1      37.900  -2.674  19.744  0.00  0.00    +0.000 C 
ATOM     15  C   UNL     1      37.668  -1.498  17.585  0.00  0.00    +0.000 A 
ATOM     16  C   UNL     1      37.927  -1.364  16.226  0.00  0.00    +0.000 A 
ENDBRANCH   1  10
BRANCH   1  18
ATOM     17  N   UNL     1      38.873   0.351  14.178  0.00  0.00    +0.000 NA
ATOM     18  C   UNL     1      38.421  -0.861  13.613  0.00  0.00    +0.000 C 
ATOM     19  O   UNL     1      37.541  -0.853  12.727  0.00  0.00    +0.000 OA
BRANCH  17  22
ATOM     20  C   UNL     1      38.980   2.403  12.794  0.00  0.00    +0.000 C 
ATOM     21  O   UNL     1      38.463   3.529  12.552  0.00  0.00    +0.000 OA
ATOM     22  N   UNL     1      38.400   1.604  13.815  0.00  0.00    +0.000 N 
BRANCH  22  23
ATOM     23  C   UNL     1      37.252   2.075  14.546  0.00  0.00    +0.000 A 
ATOM     24  C   UNL     1      35.987   1.939  14.039  0.00  0.00    +0.000 A 
ATOM     25  C   UNL     1      34.895   2.386  14.734  0.00  0.00    +0.000 A 
ATOM     26  C   UNL     1      35.041   2.982  15.959  0.00  0.00    +0.000 A 
ATOM     27  C   UNL     1      36.322   3.117  16.467  0.00  0.00    +0.000 A 
ATOM     28  C   UNL     1      37.418   2.671  15.776  0.00  0.00    +0.000 A 
ENDBRANCH  22  23
BRANCH  20  29
ATOM     29  O   UNL     1      40.079   2.001  12.061  0.00  0.00    +0.000 OA
BRANCH  29  31
ATOM     30  C   UNL     1      40.663   0.042  10.847  0.00  0.00    +0.000 C 
ATOM     31  C   UNL     1      39.848   1.319  10.824  0.00  0.00    +0.000 C 
ENDBRANCH  29  31
ENDBRANCH  20  29
ENDBRANCH  17  22
ENDBRANCH   1  18
TORSDOF 7
ENDMDL
MODEL 10
REMARK VINA RESULT:      -6.8      1.686      2.094
REMARK  Name = 
REMARK  7 active torsions:
REMARK  status: ('A' for Active; 'I' for Inactive)
REMARK    1  A    between atoms: C_2  and  O_3
REMARK    2  A    between atoms: O_3  and  C_4
REMARK    3  A    between atoms: N_6  and  N_7
REMARK    4  A    between atoms: N_6  and  C_26
REMARK    5  A    between atoms: C_8  and  C_10
REMARK    6  A    between atoms: C_10  and  C_12
REMARK    7  A    between atoms: C_10  and  C_19
REMARK                            x       y       z     vdW  Elec       q    Type
REMARK                         _______ _______ _______ _____ _____    ______ ____
ROOT
ATOM      1  C   UNL     1      38.651   4.580  14.619  0.00  0.00    +0.000 C 
ATOM      2  O   UNL     1      39.596   4.967  13.654  0.00  0.00    +0.000 OA
ENDROOT
BRANCH   1   3
ATOM      3  C   UNL     1      37.330   5.213  14.350  0.00  0.00    +0.000 A 
ATOM      4  C   UNL     1      36.163   4.485  14.441  0.00  0.00    +0.000 A 
ATOM      5  C   UNL     1      34.926   5.092  14.191  0.00  0.00    +0.000 A 
ATOM      6  C   UNL     1      34.829   6.422  13.850  0.00  0.00    +0.000 A 
ATOM      7  C   UNL     1      33.495   7.055  13.587  0.00  0.00    +0.000 C 
ATOM      8  C   UNL     1      36.000   7.146  13.758  0.00  0.00    +0.000 A 
ATOM      9  C   UNL     1      37.233   6.534  14.009  0.00  0.00    +0.000 A 
ENDBRANCH   1   3
BRANCH   1  10
ATOM     10  C   UNL     1      39.126   5.029  15.971  0.00  0.00    +0.000 A 
ATOM     11  C   UNL     1      40.298   5.742  16.078  0.00  0.00    +0.000 A 
ATOM     12  C   UNL     1      40.749   6.164  17.338  0.00  0.00    +0.000 A 
ATOM     13  C   UNL     1      40.047   5.881  18.487  0.00  0.00    +0.000 A 
ATOM     14  C   UNL     1      40.505   6.317  19.835  0.00  0.00    +0.000 C 
ATOM     15  C   UNL     1      38.878   5.170  18.374  0.00  0.00    +0.000 A 
ATOM     16  C   UNL     1      38.430   4.752  17.126  0.00  0.00    +0.000 A 
ENDBRANCH   1  10
BRANCH   1  18
ATOM     17  N   UNL     1      38.227   2.424  13.446  0.00  0.00    +0.000 NA
ATOM     18  C   UNL     1      38.571   3.114  14.628  0.00  0.00    +0.000 C 
ATOM     19  O   UNL     1      38.806   2.484  15.680  0.00  0.00    +0.000 OA
BRANCH  17  22
ATOM     20  C   UNL     1      37.023   0.297  13.852  0.00  0.00    +0.000 C 
ATOM     21  O   UNL     1      37.039  -0.957  13.711  0.00  0.00    +0.000 OA
ATOM     22  N   UNL     1      38.123   1.044  13.352  0.00  0.00    +0.000 N 
BRANCH  22  23
ATOM     23  C   UNL     1      39.221   0.377  12.702  0.00  0.00    +0.000 A 
ATOM     24  C   UNL     1      40.335  -0.000  13.404  0.00  0.00    +0.000 A 
ATOM     25  C   UNL     1      41.379  -0.635  12.786  0.00  0.00    +0.000 A 
ATOM     26  C   UNL     1      41.336  -0.909  11.444  0.00  0.00    +0.000 A 
ATOM     27  C   UNL     1      40.207  -0.526  10.738  0.00  0.00    +0.000 A 
ATOM     28  C   UNL     1      39.160   0.109  11.352  0.00  0.00    +0.000 A 
ENDBRANCH  22  23
BRANCH  20  29
ATOM     29  O   UNL     1      35.943   0.884  14.483  0.00  0.00    +0.000 OA
BRANCH  29  31
ATOM     30  C   UNL     1      35.516   1.654  16.692  0.00  0.00    +0.000 C 
ATOM     31  C   UNL     1      35.608   0.432  15.799  0.00  0.00    +0.000 C 
ENDBRANCH  29  31
ENDBRANCH  20  29
ENDBRANCH  17  22
ENDBRANCH   1  18
TORSDOF 7
ENDMDL
