MODEL 1
REMARK VINA RESULT:      -6.9      0.000      0.000
REMARK  Name = 
REMARK  3 active torsions:
REMARK  status: ('A' for Active; 'I' for Inactive)
REMARK    1  A    between atoms: C_4  and  N_5
REMARK    2  A    between atoms: N_5  and  N_6
REMARK    3  A    between atoms: C_7  and  C_9
REMARK                            x       y       z     vdW  Elec       q    Type
REMARK                         _______ _______ _______ _____ _____    ______ ____
ROOT
ATOM      1  N   UNL     1      18.093   9.465  37.235  0.00  0.00    +0.000 NA
ENDROOT
BRANCH   1   5
ATOM      2  C   UNL     1      21.014  11.894  40.261  0.00  0.00    +0.000 C 
ATOM      3  C   UNL     1      20.143  11.889  38.864  0.00  0.00    +0.000 C 
ATOM      4  C   UNL     1      19.729  10.305  39.007  0.00  0.00    +0.000 C 
ATOM      5  C   UNL     1      19.392   9.853  37.647  0.00  0.00    +0.000 C 
ATOM      6  C   UNL     1      20.447   9.848  36.843  0.00  0.00    +0.000 C 
ATOM      7  C   UNL     1      21.678  10.308  37.558  0.00  0.00    +0.000 C 
ATOM      8  C   UNL     1      22.785  10.291  36.536  0.00  0.00    +0.000 C 
ATOM      9  C   UNL     1      22.065   9.384  38.670  0.00  0.00    +0.000 C 
ATOM     10  C   UNL     1      21.452  11.703  37.910  0.00  0.00    +0.000 C 
ENDBRANCH   1   5
BRANCH   1  11
ATOM     11  N   UNL     1      17.599   9.682  35.946  0.00  0.00    +0.000 NA
ATOM     12  C   UNL     1      16.837  10.806  35.582  0.00  0.00    +0.000 C 
ATOM     13  O   UNL     1      16.587  11.667  36.474  0.00  0.00    +0.000 OA
BRANCH  12  14
ATOM     14  C   UNL     1      16.311  11.051  34.247  0.00  0.00    +0.000 A 
ATOM     15  C   UNL     1      15.291  11.984  34.029  0.00  0.00    +0.000 A 
ATOM     16  C   UNL     1      14.785  12.221  32.770  0.00  0.00    +0.000 A 
ATOM     17  C   UNL     1      15.259  11.553  31.660  0.00  0.00    +0.000 A 
ATOM     18  F   UNL     1      14.741  11.802  30.418  0.00  0.00    +0.000 F 
ATOM     19  C   UNL     1      16.265  10.633  31.861  0.00  0.00    +0.000 A 
ATOM     20  C   UNL     1      16.770  10.396  33.125  0.00  0.00    +0.000 A 
ENDBRANCH  12  14
ENDBRANCH   1  11
TORSDOF 3
ENDMDL
MODEL 2
REMARK VINA RESULT:      -6.8     18.974     21.670
REMARK  Name = 
REMARK  3 active torsions:
REMARK  status: ('A' for Active; 'I' for Inactive)
REMARK    1  A    between atoms: C_4  and  N_5
REMARK    2  A    between atoms: N_5  and  N_6
REMARK    3  A    between atoms: C_7  and  C_9
REMARK                            x       y       z     vdW  Elec       q    Type
REMARK                         _______ _______ _______ _____ _____    ______ ____
ROOT
ATOM      1  N   UNL     1      33.571  -3.945  33.770  0.00  0.00    +0.000 NA
ENDROOT
BRANCH   1   5
ATOM      2  C   UNL     1      35.466  -8.192  32.370  0.00  0.00    +0.000 C 
ATOM      3  C   UNL     1      35.630  -6.558  32.479  0.00  0.00    +0.000 C 
ATOM      4  C   UNL     1      34.114  -6.342  33.077  0.00  0.00    +0.000 C 
ATOM      5  C   UNL     1      33.762  -4.944  32.783  0.00  0.00    +0.000 C 
ATOM      6  C   UNL     1      33.640  -4.718  31.481  0.00  0.00    +0.000 C 
ATOM      7  C   UNL     1      33.900  -5.960  30.688  0.00  0.00    +0.000 C 
ATOM      8  C   UNL     1      33.768  -5.566  29.240  0.00  0.00    +0.000 C 
ATOM      9  C   UNL     1      32.893  -7.032  30.966  0.00  0.00    +0.000 C 
ATOM     10  C   UNL     1      35.300  -6.300  30.905  0.00  0.00    +0.000 C 
ENDBRANCH   1   5
BRANCH   1  11
ATOM     11  N   UNL     1      33.459  -2.585  33.475  0.00  0.00    +0.000 NA
ATOM     12  C   UNL     1      34.022  -1.566  34.264  0.00  0.00    +0.000 C 
ATOM     13  O   UNL     1      34.666  -1.905  35.298  0.00  0.00    +0.000 OA
BRANCH  12  14
ATOM     14  C   UNL     1      33.916  -0.143  33.976  0.00  0.00    +0.000 A 
ATOM     15  C   UNL     1      34.124   0.353  32.685  0.00  0.00    +0.000 A 
ATOM     16  C   UNL     1      34.029   1.699  32.403  0.00  0.00    +0.000 A 
ATOM     17  C   UNL     1      33.721   2.623  33.379  0.00  0.00    +0.000 A 
ATOM     18  F   UNL     1      33.632   3.956  33.077  0.00  0.00    +0.000 F 
ATOM     19  C   UNL     1      33.511   2.148  34.655  0.00  0.00    +0.000 A 
ATOM     20  C   UNL     1      33.609   0.799  34.935  0.00  0.00    +0.000 A 
ENDBRANCH  12  14
ENDBRANCH   1  11
TORSDOF 3
ENDMDL
MODEL 3
REMARK VINA RESULT:      -6.7      3.012      4.371
REMARK  Name = 
REMARK  3 active torsions:
REMARK  status: ('A' for Active; 'I' for Inactive)
REMARK    1  A    between atoms: C_4  and  N_5
REMARK    2  A    between atoms: N_5  and  N_6
REMARK    3  A    between atoms: C_7  and  C_9
REMARK                            x       y       z     vdW  Elec       q    Type
REMARK                         _______ _______ _______ _____ _____    ______ ____
ROOT
ATOM      1  N   UNL     1      18.574   9.039  38.336  0.00  0.00    +0.000 NA
ENDROOT
BRANCH   1   5
ATOM      2  C   UNL     1      18.086   5.766  41.891  0.00  0.00    +0.000 C 
ATOM      3  C   UNL     1      17.398   6.576  40.634  0.00  0.00    +0.000 C 
ATOM      4  C   UNL     1      18.720   7.520  40.383  0.00  0.00    +0.000 C 
ATOM      5  C   UNL     1      18.232   8.713  39.672  0.00  0.00    +0.000 C 
ATOM      6  C   UNL     1      17.432   9.457  40.425  0.00  0.00    +0.000 C 
ATOM      7  C   UNL     1      17.257   8.859  41.785  0.00  0.00    +0.000 C 
ATOM      8  C   UNL     1      16.308   9.769  42.521  0.00  0.00    +0.000 C 
ATOM      9  C   UNL     1      18.540   8.815  42.554  0.00  0.00    +0.000 C 
ATOM     10  C   UNL     1      16.561   7.594  41.592  0.00  0.00    +0.000 C 
ENDBRANCH   1   5
BRANCH   1  11
ATOM     11  N   UNL     1      17.693   9.658  37.447  0.00  0.00    +0.000 NA
ATOM     12  C   UNL     1      17.995   9.912  36.098  0.00  0.00    +0.000 C 
ATOM     13  O   UNL     1      19.130   9.556  35.667  0.00  0.00    +0.000 OA
BRANCH  12  14
ATOM     14  C   UNL     1      17.093  10.557  35.155  0.00  0.00    +0.000 A 
ATOM     15  C   UNL     1      17.191  10.321  33.779  0.00  0.00    +0.000 A 
ATOM     16  C   UNL     1      16.343  10.930  32.879  0.00  0.00    +0.000 A 
ATOM     17  C   UNL     1      15.354  11.799  33.288  0.00  0.00    +0.000 A 
ATOM     18  F   UNL     1      14.524  12.394  32.377  0.00  0.00    +0.000 F 
ATOM     19  C   UNL     1      15.246  12.039  34.641  0.00  0.00    +0.000 A 
ATOM     20  C   UNL     1      16.097  11.429  35.541  0.00  0.00    +0.000 A 
ENDBRANCH  12  14
ENDBRANCH   1  11
TORSDOF 3
ENDMDL
MODEL 4
REMARK VINA RESULT:      -6.6     16.762     18.829
REMARK  Name = 
REMARK  3 active torsions:
REMARK  status: ('A' for Active; 'I' for Inactive)
REMARK    1  A    between atoms: C_4  and  N_5
REMARK    2  A    between atoms: N_5  and  N_6
REMARK    3  A    between atoms: C_7  and  C_9
REMARK                            x       y       z     vdW  Elec       q    Type
REMARK                         _______ _______ _______ _____ _____    ______ ____
ROOT
ATOM      1  N   UNL     1      33.377   1.670  33.784  0.00  0.00    +0.000 NA
ENDROOT
BRANCH   1   5
ATOM      2  C   UNL     1      33.994  -1.429  37.473  0.00  0.00    +0.000 C 
ATOM      3  C   UNL     1      34.649  -0.648  36.180  0.00  0.00    +0.000 C 
ATOM      4  C   UNL     1      33.217   0.022  35.728  0.00  0.00    +0.000 C 
ATOM      5  C   UNL     1      33.360   0.350  34.301  0.00  0.00    +0.000 C 
ATOM      6  C   UNL     1      33.472  -0.734  33.543  0.00  0.00    +0.000 C 
ATOM      7  C   UNL     1      33.422  -1.980  34.369  0.00  0.00    +0.000 C 
ATOM      8  C   UNL     1      33.594  -3.126  33.405  0.00  0.00    +0.000 C 
ATOM      9  C   UNL     1      32.103  -2.152  35.056  0.00  0.00    +0.000 C 
ATOM     10  C   UNL     1      34.607  -1.961  35.215  0.00  0.00    +0.000 C 
ENDBRANCH   1   5
BRANCH   1  11
ATOM     11  N   UNL     1      34.004   2.739  34.428  0.00  0.00    +0.000 NA
ATOM     12  C   UNL     1      33.743   4.088  34.134  0.00  0.00    +0.000 C 
ATOM     13  O   UNL     1      32.889   4.345  33.237  0.00  0.00    +0.000 OA
BRANCH  12  14
ATOM     14  C   UNL     1      34.386   5.217  34.791  0.00  0.00    +0.000 A 
ATOM     15  C   UNL     1      35.779   5.292  34.904  0.00  0.00    +0.000 A 
ATOM     16  C   UNL     1      36.397   6.355  35.526  0.00  0.00    +0.000 A 
ATOM     17  C   UNL     1      35.675   7.399  36.065  0.00  0.00    +0.000 A 
ATOM     18  F   UNL     1      36.310   8.445  36.680  0.00  0.00    +0.000 F 
ATOM     19  C   UNL     1      34.303   7.338  35.959  0.00  0.00    +0.000 A 
ATOM     20  C   UNL     1      33.685   6.271  35.336  0.00  0.00    +0.000 A 
ENDBRANCH  12  14
ENDBRANCH   1  11
TORSDOF 3
ENDMDL
MODEL 5
REMARK VINA RESULT:      -6.5      2.900      3.886
REMARK  Name = 
REMARK  3 active torsions:
REMARK  status: ('A' for Active; 'I' for Inactive)
REMARK    1  A    between atoms: C_4  and  N_5
REMARK    2  A    between atoms: N_5  and  N_6
REMARK    3  A    between atoms: C_7  and  C_9
REMARK                            x       y       z     vdW  Elec       q    Type
REMARK                         _______ _______ _______ _____ _____    ______ ____
ROOT
ATOM      1  N   UNL     1      18.806   9.163  38.388  0.00  0.00    +0.000 NA
ENDROOT
BRANCH   1   5
ATOM      2  C   UNL     1      16.708   9.753  42.729  0.00  0.00    +0.000 C 
ATOM      3  C   UNL     1      18.097   9.605  41.857  0.00  0.00    +0.000 C 
ATOM      4  C   UNL     1      17.303   9.318  40.446  0.00  0.00    +0.000 C 
ATOM      5  C   UNL     1      18.265   8.618  39.579  0.00  0.00    +0.000 C 
ATOM      6  C   UNL     1      18.572   7.412  40.038  0.00  0.00    +0.000 C 
ATOM      7  C   UNL     1      17.847   7.115  41.312  0.00  0.00    +0.000 C 
ATOM      8  C   UNL     1      18.305   5.746  41.743  0.00  0.00    +0.000 C 
ATOM      9  C   UNL     1      16.363   7.063  41.122  0.00  0.00    +0.000 C 
ATOM     10  C   UNL     1      18.351   8.057  42.301  0.00  0.00    +0.000 C 
ENDBRANCH   1   5
BRANCH   1  11
ATOM     11  N   UNL     1      18.049   9.399  37.238  0.00  0.00    +0.000 NA
ATOM     12  C   UNL     1      17.788  10.682  36.726  0.00  0.00    +0.000 C 
ATOM     13  O   UNL     1      18.270  11.676  37.343  0.00  0.00    +0.000 OA
BRANCH  12  14
ATOM     14  C   UNL     1      17.000  10.952  35.532  0.00  0.00    +0.000 A 
ATOM     15  C   UNL     1      15.867  11.771  35.580  0.00  0.00    +0.000 A 
ATOM     16  C   UNL     1      15.114  12.030  34.456  0.00  0.00    +0.000 A 
ATOM     17  C   UNL     1      15.439  11.497  33.227  0.00  0.00    +0.000 A 
ATOM     18  F   UNL     1      14.676  11.766  32.123  0.00  0.00    +0.000 F 
ATOM     19  C   UNL     1      16.554  10.689  33.165  0.00  0.00    +0.000 A 
ATOM     20  C   UNL     1      17.307  10.430  34.293  0.00  0.00    +0.000 A 
ENDBRANCH  12  14
ENDBRANCH   1  11
TORSDOF 3
ENDMDL
MODEL 6
REMARK VINA RESULT:      -6.5     21.982     23.393
REMARK  Name = 
REMARK  3 active torsions:
REMARK  status: ('A' for Active; 'I' for Inactive)
REMARK    1  A    between atoms: C_4  and  N_5
REMARK    2  A    between atoms: N_5  and  N_6
REMARK    3  A    between atoms: C_7  and  C_9
REMARK                            x       y       z     vdW  Elec       q    Type
REMARK                         _______ _______ _______ _____ _____    ______ ____
ROOT
ATOM      1  N   UNL     1      29.678  24.977  20.705  0.00  0.00    +0.000 NA
ENDROOT
BRANCH   1   5
ATOM      2  C   UNL     1      27.296  29.170  21.284  0.00  0.00    +0.000 C 
ATOM      3  C   UNL     1      27.413  27.727  20.500  0.00  0.00    +0.000 C 
ATOM      4  C   UNL     1      28.829  27.327  21.233  0.00  0.00    +0.000 C 
ATOM      5  C   UNL     1      29.469  26.335  20.355  0.00  0.00    +0.000 C 
ATOM      6  C   UNL     1      29.834  26.854  19.190  0.00  0.00    +0.000 C 
ATOM      7  C   UNL     1      29.484  28.306  19.109  0.00  0.00    +0.000 C 
ATOM      8  C   UNL     1      29.913  28.763  17.739  0.00  0.00    +0.000 C 
ATOM      9  C   UNL     1      30.225  29.125  20.119  0.00  0.00    +0.000 C 
ATOM     10  C   UNL     1      28.030  28.381  19.141  0.00  0.00    +0.000 C 
ENDBRANCH   1   5
BRANCH   1  11
ATOM     11  N   UNL     1      29.687  24.517  22.023  0.00  0.00    +0.000 NA
ATOM     12  C   UNL     1      28.678  23.708  22.575  0.00  0.00    +0.000 C 
ATOM     13  O   UNL     1      27.709  23.379  21.831  0.00  0.00    +0.000 OA
BRANCH  12  14
ATOM     14  C   UNL     1      28.667  23.219  23.946  0.00  0.00    +0.000 A 
ATOM     15  C   UNL     1      27.484  23.175  24.691  0.00  0.00    +0.000 A 
ATOM     16  C   UNL     1      27.464  22.716  25.990  0.00  0.00    +0.000 A 
ATOM     17  C   UNL     1      28.608  22.276  26.621  0.00  0.00    +0.000 A 
ATOM     18  F   UNL     1      28.566  21.826  27.913  0.00  0.00    +0.000 F 
ATOM     19  C   UNL     1      29.780  22.313  25.898  0.00  0.00    +0.000 A 
ATOM     20  C   UNL     1      29.799  22.774  24.596  0.00  0.00    +0.000 A 
ENDBRANCH  12  14
ENDBRANCH   1  11
TORSDOF 3
ENDMDL
MODEL 7
REMARK VINA RESULT:      -6.4     22.130     23.535
REMARK  Name = 
REMARK  3 active torsions:
REMARK  status: ('A' for Active; 'I' for Inactive)
REMARK    1  A    between atoms: C_4  and  N_5
REMARK    2  A    between atoms: N_5  and  N_6
REMARK    3  A    between atoms: C_7  and  C_9
REMARK                            x       y       z     vdW  Elec       q    Type
REMARK                         _______ _______ _______ _____ _____    ______ ____
ROOT
ATOM      1  N   UNL     1      29.723  24.880  20.674  0.00  0.00    +0.000 NA
ENDROOT
BRANCH   1   5
ATOM      2  C   UNL     1      30.248  28.487  17.464  0.00  0.00    +0.000 C 
ATOM      3  C   UNL     1      30.829  27.701  18.788  0.00  0.00    +0.000 C 
ATOM      4  C   UNL     1      29.532  26.694  18.887  0.00  0.00    +0.000 C 
ATOM      5  C   UNL     1      29.496  26.223  20.280  0.00  0.00    +0.000 C 
ATOM      6  C   UNL     1      29.223  27.200  21.136  0.00  0.00    +0.000 C 
ATOM      7  C   UNL     1      29.033  28.504  20.428  0.00  0.00    +0.000 C 
ATOM      8  C   UNL     1      28.768  29.527  21.502  0.00  0.00    +0.000 C 
ATOM      9  C   UNL     1      27.851  28.484  19.511  0.00  0.00    +0.000 C 
ATOM     10  C   UNL     1      30.320  28.841  19.835  0.00  0.00    +0.000 C 
ENDBRANCH   1   5
BRANCH   1  11
ATOM     11  N   UNL     1      29.645  24.444  21.998  0.00  0.00    +0.000 NA
ATOM     12  C   UNL     1      28.558  23.719  22.517  0.00  0.00    +0.000 C 
ATOM     13  O   UNL     1      27.600  23.447  21.738  0.00  0.00    +0.000 OA
BRANCH  12  14
ATOM     14  C   UNL     1      28.454  23.257  23.894  0.00  0.00    +0.000 A 
ATOM     15  C   UNL     1      29.584  22.843  24.607  0.00  0.00    +0.000 A 
ATOM     16  C   UNL     1      29.496  22.401  25.910  0.00  0.00    +0.000 A 
ATOM     17  C   UNL     1      28.290  22.347  26.576  0.00  0.00    +0.000 A 
ATOM     18  F   UNL     1      28.224  21.904  27.870  0.00  0.00    +0.000 F 
ATOM     19  C   UNL     1      27.169  22.754  25.886  0.00  0.00    +0.000 A 
ATOM     20  C   UNL     1      27.260  23.195  24.580  0.00  0.00    +0.000 A 
ENDBRANCH  12  14
ENDBRANCH   1  11
TORSDOF 3
ENDMDL
MODEL 8
REMARK VINA RESULT:      -6.2     24.299     25.678
REMARK  Name = 
REMARK  3 active torsions:
REMARK  status: ('A' for Active; 'I' for Inactive)
REMARK    1  A    between atoms: C_4  and  N_5
REMARK    2  A    between atoms: N_5  and  N_6
REMARK    3  A    between atoms: C_7  and  C_9
REMARK                            x       y       z     vdW  Elec       q    Type
REMARK                         _______ _______ _______ _____ _____    ______ ____
ROOT
ATOM      1  N   UNL     1      30.195  26.537  19.373  0.00  0.00    +0.000 NA
ENDROOT
BRANCH   1   5
ATOM      2  C   UNL     1      30.070  28.474  14.920  0.00  0.00    +0.000 C 
ATOM      3  C   UNL     1      30.969  27.815  16.132  0.00  0.00    +0.000 C 
ATOM      4  C   UNL     1      29.693  27.718  17.165  0.00  0.00    +0.000 C 
ATOM      5  C   UNL     1      30.274  27.663  18.516  0.00  0.00    +0.000 C 
ATOM      6  C   UNL     1      30.884  28.794  18.849  0.00  0.00    +0.000 C 
ATOM      7  C   UNL     1      30.803  29.799  17.744  0.00  0.00    +0.000 C 
ATOM      8  C   UNL     1      31.556  31.011  18.227  0.00  0.00    +0.000 C 
ATOM      9  C   UNL     1      29.395  30.217  17.459  0.00  0.00    +0.000 C 
ATOM     10  C   UNL     1      31.564  29.248  16.631  0.00  0.00    +0.000 C 
ENDBRANCH   1   5
BRANCH   1  11
ATOM     11  N   UNL     1      29.237  26.404  20.381  0.00  0.00    +0.000 NA
ATOM     12  C   UNL     1      29.033  25.220  21.111  0.00  0.00    +0.000 C 
ATOM     13  O   UNL     1      29.760  24.221  20.838  0.00  0.00    +0.000 OA
BRANCH  12  14
ATOM     14  C   UNL     1      28.039  25.058  22.163  0.00  0.00    +0.000 A 
ATOM     15  C   UNL     1      27.281  23.888  22.271  0.00  0.00    +0.000 A 
ATOM     16  C   UNL     1      26.337  23.727  23.262  0.00  0.00    +0.000 A 
ATOM     17  C   UNL     1      26.093  24.710  24.198  0.00  0.00    +0.000 A 
ATOM     18  F   UNL     1      25.150  24.530  25.173  0.00  0.00    +0.000 F 
ATOM     19  C   UNL     1      26.835  25.867  24.104  0.00  0.00    +0.000 A 
ATOM     20  C   UNL     1      27.780  26.027  23.109  0.00  0.00    +0.000 A 
ENDBRANCH  12  14
ENDBRANCH   1  11
TORSDOF 3
ENDMDL
MODEL 9
REMARK VINA RESULT:      -6.1      5.047      6.846
REMARK  Name = 
REMARK  3 active torsions:
REMARK  status: ('A' for Active; 'I' for Inactive)
REMARK    1  A    between atoms: C_4  and  N_5
REMARK    2  A    between atoms: N_5  and  N_6
REMARK    3  A    between atoms: C_7  and  C_9
REMARK                            x       y       z     vdW  Elec       q    Type
REMARK                         _______ _______ _______ _____ _____    ______ ____
ROOT
ATOM      1  N   UNL     1      18.265   9.651  38.605  0.00  0.00    +0.000 NA
ENDROOT
BRANCH   1   5
ATOM      2  C   UNL     1      16.770   9.707  43.226  0.00  0.00    +0.000 C 
ATOM      3  C   UNL     1      18.025   9.606  42.165  0.00  0.00    +0.000 C 
ATOM      4  C   UNL     1      17.043   9.586  40.846  0.00  0.00    +0.000 C 
ATOM      5  C   UNL     1      17.832   8.967  39.769  0.00  0.00    +0.000 C 
ATOM      6  C   UNL     1      18.095   7.689  40.006  0.00  0.00    +0.000 C 
ATOM      7  C   UNL     1      17.509   7.248  41.310  0.00  0.00    +0.000 C 
ATOM      8  C   UNL     1      17.905   5.803  41.477  0.00  0.00    +0.000 C 
ATOM      9  C   UNL     1      16.015   7.317  41.313  0.00  0.00    +0.000 C 
ATOM     10  C   UNL     1      18.205   7.997  42.347  0.00  0.00    +0.000 C 
ENDBRANCH   1   5
BRANCH   1  11
ATOM     11  N   UNL     1      19.564   9.559  38.099  0.00  0.00    +0.000 NA
ATOM     12  C   UNL     1      20.426  10.660  37.958  0.00  0.00    +0.000 C 
ATOM     13  O   UNL     1      20.000  11.797  38.312  0.00  0.00    +0.000 OA
BRANCH  12  14
ATOM     14  C   UNL     1      21.782  10.587  37.431  0.00  0.00    +0.000 A 
ATOM     15  C   UNL     1      22.168   9.560  36.563  0.00  0.00    +0.000 A 
ATOM     16  C   UNL     1      23.449   9.481  36.062  0.00  0.00    +0.000 A 
ATOM     17  C   UNL     1      24.414  10.410  36.388  0.00  0.00    +0.000 A 
ATOM     18  F   UNL     1      25.681  10.312  35.880  0.00  0.00    +0.000 F 
ATOM     19  C   UNL     1      24.046  11.428  37.241  0.00  0.00    +0.000 A 
ATOM     20  C   UNL     1      22.762  11.505  37.744  0.00  0.00    +0.000 A 
ENDBRANCH  12  14
ENDBRANCH   1  11
TORSDOF 3
ENDMDL
MODEL 10
REMARK VINA RESULT:      -6.1     24.068     25.446
REMARK  Name = 
REMARK  3 active torsions:
REMARK  status: ('A' for Active; 'I' for Inactive)
REMARK    1  A    between atoms: C_4  and  N_5
REMARK    2  A    between atoms: N_5  and  N_6
REMARK    3  A    between atoms: C_7  and  C_9
REMARK                            x       y       z     vdW  Elec       q    Type
REMARK                         _______ _______ _______ _____ _____    ______ ____
ROOT
ATOM      1  N   UNL     1      30.187  26.457  19.435  0.00  0.00    +0.000 NA
ENDROOT
BRANCH   1   5
ATOM      2  C   UNL     1      29.692  31.165  18.348  0.00  0.00    +0.000 C 
ATOM      3  C   UNL     1      28.990  29.682  18.485  0.00  0.00    +0.000 C 
ATOM      4  C   UNL     1      30.410  28.929  18.834  0.00  0.00    +0.000 C 
ATOM      5  C   UNL     1      30.208  27.513  18.489  0.00  0.00    +0.000 C 
ATOM      6  C   UNL     1      30.047  27.329  17.185  0.00  0.00    +0.000 C 
ATOM      7  C   UNL     1      30.117  28.626  16.442  0.00  0.00    +0.000 C 
ATOM      8  C   UNL     1      29.886  28.288  14.992  0.00  0.00    +0.000 C 
ATOM      9  C   UNL     1      31.462  29.272  16.554  0.00  0.00    +0.000 C 
ATOM     10  C   UNL     1      28.971  29.412  16.878  0.00  0.00    +0.000 C 
ENDBRANCH   1   5
BRANCH   1  11
ATOM     11  N   UNL     1      29.216  26.339  20.432  0.00  0.00    +0.000 NA
ATOM     12  C   UNL     1      29.003  25.166  21.178  0.00  0.00    +0.000 C 
ATOM     13  O   UNL     1      29.735  24.165  20.931  0.00  0.00    +0.000 OA
BRANCH  12  14
ATOM     14  C   UNL     1      27.996  25.020  22.219  0.00  0.00    +0.000 A 
ATOM     15  C   UNL     1      27.678  26.080  23.075  0.00  0.00    +0.000 A 
ATOM     16  C   UNL     1      26.728  25.951  24.065  0.00  0.00    +0.000 A 
ATOM     17  C   UNL     1      26.041  24.771  24.260  0.00  0.00    +0.000 A 
ATOM     18  F   UNL     1      25.103  24.664  25.251  0.00  0.00    +0.000 F 
ATOM     19  C   UNL     1      26.344  23.719  23.423  0.00  0.00    +0.000 A 
ATOM     20  C   UNL     1      27.297  23.851  22.432  0.00  0.00    +0.000 A 
ENDBRANCH  12  14
ENDBRANCH   1  11
TORSDOF 3
ENDMDL
