MODEL 1
REMARK VINA RESULT:      -7.0      0.000      0.000
REMARK  Name = 
REMARK  7 active torsions:
REMARK  status: ('A' for Active; 'I' for Inactive)
REMARK    1  A    between atoms: C_2  and  O_3
REMARK    2  A    between atoms: O_3  and  C_4
REMARK    3  A    between atoms: C_9  and  N_10
REMARK    4  A    between atoms: C_11  and  C_13
REMARK    5  A    between atoms: C_14  and  N_15
REMARK    6  A    between atoms: N_15  and  C_16
REMARK    7  A    between atoms: C_16  and  C_17
REMARK                            x       y       z     vdW  Elec       q    Type
REMARK                         _______ _______ _______ _____ _____    ______ ____
ROOT
ATOM      1  C   UNL     1      39.408  -0.696  14.590  0.00  0.00    +0.000 A 
ATOM      2  C   UNL     1      39.340  -1.580  15.635  0.00  0.00    +0.000 A 
ATOM      3  S   UNL     1      40.343  -2.862  15.132  0.00  0.00    +0.000 S 
ATOM      4  C   UNL     1      40.824  -2.254  13.618  0.00  0.00    +0.000 A 
ATOM      5  C   UNL     1      40.183  -1.054  13.542  0.00  0.00    +0.000 A 
ATOM      6  C   UNL     1      40.321  -0.139  12.336  0.00  0.00    +0.000 C 
ATOM      7  C   UNL     1      39.869  -0.857  11.093  0.00  0.00    +0.000 C 
ATOM      8  C   UNL     1      41.034  -1.707  10.606  0.00  0.00    +0.000 C 
ATOM      9  C   UNL     1      41.030  -3.045  11.289  0.00  0.00    +0.000 C 
ATOM     10  C   UNL     1      41.744  -2.925  12.631  0.00  0.00    +0.000 C 
ENDROOT
BRANCH   1  12
ATOM     11  N   UNL     1      37.398   0.750  13.993  0.00  0.00    +0.000 NA
ATOM     12  C   UNL     1      38.644   0.588  14.653  0.00  0.00    +0.000 C 
ATOM     13  O   UNL     1      39.067   1.575  15.288  0.00  0.00    +0.000 OA
BRANCH  11  19
ATOM     14  C   UNL     1      35.596   2.076  14.885  0.00  0.00    +0.000 A 
ATOM     15  C   UNL     1      34.871   3.265  14.969  0.00  0.00    +0.000 A 
ATOM     16  C   UNL     1      35.232   4.353  14.225  0.00  0.00    +0.000 A 
ATOM     17  C   UNL     1      36.334   4.221  13.398  0.00  0.00    +0.000 A 
ATOM     18  C   UNL     1      37.064   3.055  13.299  0.00  0.00    +0.000 A 
ATOM     19  C   UNL     1      36.689   1.958  14.057  0.00  0.00    +0.000 A 
BRANCH  14  20
ATOM     20  O   UNL     1      35.216   0.970  15.649  0.00  0.00    +0.000 OA
BRANCH  20  22
ATOM     21  C   UNL     1      36.069   0.978  17.906  0.00  0.00    +0.000 C 
ATOM     22  C   UNL     1      34.845   1.123  17.010  0.00  0.00    +0.000 C 
ENDBRANCH  20  22
ENDBRANCH  14  20
ENDBRANCH  11  19
ENDBRANCH   1  12
BRANCH   2  23
ATOM     23  N   UNL     1      38.586  -1.434  16.866  0.00  0.00    +0.000 NA
BRANCH  23  24
ATOM     24  C   UNL     1      38.112  -2.680  17.476  0.00  0.00    +0.000 C 
BRANCH  24  25
ATOM     25  C   UNL     1      36.934  -3.206  16.791  0.00  0.00    +0.000 A 
ATOM     26  C   UNL     1      36.996  -4.426  16.132  0.00  0.00    +0.000 A 
ATOM     27  C   UNL     1      35.841  -4.855  15.509  0.00  0.00    +0.000 A 
ATOM     28  N   UNL     1      34.706  -4.136  15.531  0.00  0.00    +0.000 NA
ATOM     29  C   UNL     1      34.644  -2.958  16.166  0.00  0.00    +0.000 A 
ATOM     30  C   UNL     1      35.772  -2.485  16.805  0.00  0.00    +0.000 A 
ENDBRANCH  24  25
ENDBRANCH  23  24
ENDBRANCH   2  23
TORSDOF 7
ENDMDL
MODEL 2
REMARK VINA RESULT:      -6.9      2.113      2.882
REMARK  Name = 
REMARK  7 active torsions:
REMARK  status: ('A' for Active; 'I' for Inactive)
REMARK    1  A    between atoms: C_2  and  O_3
REMARK    2  A    between atoms: O_3  and  C_4
REMARK    3  A    between atoms: C_9  and  N_10
REMARK    4  A    between atoms: C_11  and  C_13
REMARK    5  A    between atoms: C_14  and  N_15
REMARK    6  A    between atoms: N_15  and  C_16
REMARK    7  A    between atoms: C_16  and  C_17
REMARK                            x       y       z     vdW  Elec       q    Type
REMARK                         _______ _______ _______ _____ _____    ______ ____
ROOT
ATOM      1  C   UNL     1      39.591  -0.853  14.505  0.00  0.00    +0.000 A 
ATOM      2  C   UNL     1      39.228  -2.145  14.783  0.00  0.00    +0.000 A 
ATOM      3  S   UNL     1      40.720  -2.962  14.875  0.00  0.00    +0.000 S 
ATOM      4  C   UNL     1      41.764  -1.656  14.562  0.00  0.00    +0.000 A 
ATOM      5  C   UNL     1      40.914  -0.606  14.391  0.00  0.00    +0.000 A 
ATOM      6  C   UNL     1      41.413   0.797  14.084  0.00  0.00    +0.000 C 
ATOM      7  C   UNL     1      42.219   0.788  12.813  0.00  0.00    +0.000 C 
ATOM      8  C   UNL     1      43.630   0.342  13.168  0.00  0.00    +0.000 C 
ATOM      9  C   UNL     1      43.728  -1.157  13.152  0.00  0.00    +0.000 C 
ATOM     10  C   UNL     1      43.270  -1.705  14.498  0.00  0.00    +0.000 C 
ENDROOT
BRANCH   1  12
ATOM     11  N   UNL     1      37.922   0.816  15.463  0.00  0.00    +0.000 NA
ATOM     12  C   UNL     1      38.536   0.195  14.345  0.00  0.00    +0.000 C 
ATOM     13  O   UNL     1      38.149   0.571  13.219  0.00  0.00    +0.000 OA
BRANCH  11  19
ATOM     14  C   UNL     1      37.210   3.114  15.592  0.00  0.00    +0.000 A 
ATOM     15  C   UNL     1      36.246   4.111  15.442  0.00  0.00    +0.000 A 
ATOM     16  C   UNL     1      34.991   3.803  14.997  0.00  0.00    +0.000 A 
ATOM     17  C   UNL     1      34.727   2.476  14.707  0.00  0.00    +0.000 A 
ATOM     18  C   UNL     1      35.664   1.475  14.849  0.00  0.00    +0.000 A 
ATOM     19  C   UNL     1      36.933   1.798  15.301  0.00  0.00    +0.000 A 
BRANCH  14  20
ATOM     20  O   UNL     1      38.489   3.441  16.049  0.00  0.00    +0.000 OA
BRANCH  20  22
ATOM     21  C   UNL     1      38.843   4.851  17.974  0.00  0.00    +0.000 C 
ATOM     22  C   UNL     1      38.797   4.766  16.454  0.00  0.00    +0.000 C 
ENDBRANCH  20  22
ENDBRANCH  14  20
ENDBRANCH  11  19
ENDBRANCH   1  12
BRANCH   2  23
ATOM     23  N   UNL     1      37.885  -2.668  14.953  0.00  0.00    +0.000 NA
BRANCH  23  24
ATOM     24  C   UNL     1      37.573  -3.206  16.280  0.00  0.00    +0.000 C 
BRANCH  24  25
ATOM     25  C   UNL     1      36.879  -2.227  17.114  0.00  0.00    +0.000 A 
ATOM     26  C   UNL     1      35.598  -1.808  16.782  0.00  0.00    +0.000 A 
ATOM     27  C   UNL     1      35.011  -0.881  17.619  0.00  0.00    +0.000 A 
ATOM     28  N   UNL     1      35.637  -0.400  18.706  0.00  0.00    +0.000 NA
ATOM     29  C   UNL     1      36.873  -0.802  19.029  0.00  0.00    +0.000 A 
ATOM     30  C   UNL     1      37.505  -1.728  18.223  0.00  0.00    +0.000 A 
ENDBRANCH  24  25
ENDBRANCH  23  24
ENDBRANCH   2  23
TORSDOF 7
ENDMDL
MODEL 3
REMARK VINA RESULT:      -6.9      1.953      5.272
REMARK  Name = 
REMARK  7 active torsions:
REMARK  status: ('A' for Active; 'I' for Inactive)
REMARK    1  A    between atoms: C_2  and  O_3
REMARK    2  A    between atoms: O_3  and  C_4
REMARK    3  A    between atoms: C_9  and  N_10
REMARK    4  A    between atoms: C_11  and  C_13
REMARK    5  A    between atoms: C_14  and  N_15
REMARK    6  A    between atoms: N_15  and  C_16
REMARK    7  A    between atoms: C_16  and  C_17
REMARK                            x       y       z     vdW  Elec       q    Type
REMARK                         _______ _______ _______ _____ _____    ______ ____
ROOT
ATOM      1  C   UNL     1      39.048  -0.589  13.410  0.00  0.00    +0.000 A 
ATOM      2  C   UNL     1      38.505   0.037  12.318  0.00  0.00    +0.000 A 
ATOM      3  S   UNL     1      39.481  -0.502  11.030  0.00  0.00    +0.000 S 
ATOM      4  C   UNL     1      40.548  -1.503  11.897  0.00  0.00    +0.000 A 
ATOM      5  C   UNL     1      40.113  -1.390  13.182  0.00  0.00    +0.000 A 
ATOM      6  C   UNL     1      40.783  -2.126  14.332  0.00  0.00    +0.000 C 
ATOM      7  C   UNL     1      42.233  -1.733  14.417  0.00  0.00    +0.000 C 
ATOM      8  C   UNL     1      42.997  -2.575  13.405  0.00  0.00    +0.000 C 
ATOM      9  C   UNL     1      42.976  -1.920  12.054  0.00  0.00    +0.000 C 
ATOM     10  C   UNL     1      41.692  -2.304  11.329  0.00  0.00    +0.000 C 
ENDROOT
BRANCH   1  12
ATOM     11  N   UNL     1      37.501  -1.254  15.321  0.00  0.00    +0.000 NA
ATOM     12  C   UNL     1      38.456  -0.364  14.764  0.00  0.00    +0.000 C 
ATOM     13  O   UNL     1      38.774   0.618  15.466  0.00  0.00    +0.000 OA
BRANCH  11  19
ATOM     14  C   UNL     1      37.537  -1.590  17.706  0.00  0.00    +0.000 A 
ATOM     15  C   UNL     1      37.011  -1.388  18.982  0.00  0.00    +0.000 A 
ATOM     16  C   UNL     1      35.892  -0.625  19.161  0.00  0.00    +0.000 A 
ATOM     17  C   UNL     1      35.313  -0.071  18.031  0.00  0.00    +0.000 A 
ATOM     18  C   UNL     1      35.816  -0.258  16.761  0.00  0.00    +0.000 A 
ATOM     19  C   UNL     1      36.951  -1.034  16.592  0.00  0.00    +0.000 A 
BRANCH  14  20
ATOM     20  O   UNL     1      38.681  -2.373  17.537  0.00  0.00    +0.000 OA
BRANCH  20  22
ATOM     21  C   UNL     1      38.175  -4.667  16.988  0.00  0.00    +0.000 C 
ATOM     22  C   UNL     1      38.728  -3.703  18.030  0.00  0.00    +0.000 C 
ENDBRANCH  20  22
ENDBRANCH  14  20
ENDBRANCH  11  19
ENDBRANCH   1  12
BRANCH   2  23
ATOM     23  N   UNL     1      37.369   0.940  12.292  0.00  0.00    +0.000 NA
BRANCH  23  24
ATOM     24  C   UNL     1      37.667   2.349  12.558  0.00  0.00    +0.000 C 
BRANCH  24  25
ATOM     25  C   UNL     1      36.622   2.984  13.358  0.00  0.00    +0.000 A 
ATOM     26  C   UNL     1      35.853   2.226  14.230  0.00  0.00    +0.000 A 
ATOM     27  C   UNL     1      34.885   2.899  14.950  0.00  0.00    +0.000 A 
ATOM     28  N   UNL     1      34.688   4.222  14.822  0.00  0.00    +0.000 NA
ATOM     29  C   UNL     1      35.429   4.955  13.980  0.00  0.00    +0.000 A 
ATOM     30  C   UNL     1      36.409   4.330  13.237  0.00  0.00    +0.000 A 
ENDBRANCH  24  25
ENDBRANCH  23  24
ENDBRANCH   2  23
TORSDOF 7
ENDMDL
MODEL 4
REMARK VINA RESULT:      -6.9      2.248      6.038
REMARK  Name = 
REMARK  7 active torsions:
REMARK  status: ('A' for Active; 'I' for Inactive)
REMARK    1  A    between atoms: C_2  and  O_3
REMARK    2  A    between atoms: O_3  and  C_4
REMARK    3  A    between atoms: C_9  and  N_10
REMARK    4  A    between atoms: C_11  and  C_13
REMARK    5  A    between atoms: C_14  and  N_15
REMARK    6  A    between atoms: N_15  and  C_16
REMARK    7  A    between atoms: C_16  and  C_17
REMARK                            x       y       z     vdW  Elec       q    Type
REMARK                         _______ _______ _______ _____ _____    ______ ____
ROOT
ATOM      1  C   UNL     1      36.304   1.379  14.942  0.00  0.00    +0.000 A 
ATOM      2  C   UNL     1      35.406   1.223  15.966  0.00  0.00    +0.000 A 
ATOM      3  S   UNL     1      34.572   2.709  15.988  0.00  0.00    +0.000 S 
ATOM      4  C   UNL     1      35.375   3.490  14.707  0.00  0.00    +0.000 A 
ATOM      5  C   UNL     1      36.282   2.563  14.292  0.00  0.00    +0.000 A 
ATOM      6  C   UNL     1      37.242   2.830  13.142  0.00  0.00    +0.000 C 
ATOM      7  C   UNL     1      38.088   4.036  13.450  0.00  0.00    +0.000 C 
ATOM      8  C   UNL     1      37.276   5.270  13.085  0.00  0.00    +0.000 C 
ATOM      9  C   UNL     1      36.403   5.684  14.234  0.00  0.00    +0.000 C 
ATOM     10  C   UNL     1      35.107   4.882  14.194  0.00  0.00    +0.000 C 
ENDROOT
BRANCH   1  12
ATOM     11  N   UNL     1      38.607   0.292  14.989  0.00  0.00    +0.000 NA
ATOM     12  C   UNL     1      37.242   0.265  14.602  0.00  0.00    +0.000 C 
ATOM     13  O   UNL     1      36.866  -0.738  13.963  0.00  0.00    +0.000 OA
BRANCH  11  19
ATOM     14  C   UNL     1      40.146  -0.757  13.461  0.00  0.00    +0.000 A 
ATOM     15  C   UNL     1      41.018  -1.788  13.112  0.00  0.00    +0.000 A 
ATOM     16  C   UNL     1      41.236  -2.833  13.965  0.00  0.00    +0.000 A 
ATOM     17  C   UNL     1      40.560  -2.820  15.173  0.00  0.00    +0.000 A 
ATOM     18  C   UNL     1      39.693  -1.812  15.537  0.00  0.00    +0.000 A 
ATOM     19  C   UNL     1      39.479  -0.758  14.665  0.00  0.00    +0.000 A 
BRANCH  14  20
ATOM     20  O   UNL     1      39.930   0.305  12.580  0.00  0.00    +0.000 OA
BRANCH  20  22
ATOM     21  C   UNL     1      39.363   1.330  10.471  0.00  0.00    +0.000 C 
ATOM     22  C   UNL     1      39.216   0.109  11.369  0.00  0.00    +0.000 C 
ENDBRANCH  20  22
ENDBRANCH  14  20
ENDBRANCH  11  19
ENDBRANCH   1  12
BRANCH   2  23
ATOM     23  N   UNL     1      35.227   0.060  16.814  0.00  0.00    +0.000 NA
BRANCH  23  24
ATOM     24  C   UNL     1      36.154  -0.057  17.943  0.00  0.00    +0.000 C 
BRANCH  24  25
ATOM     25  C   UNL     1      36.809  -1.363  17.976  0.00  0.00    +0.000 A 
ATOM     26  C   UNL     1      36.402  -2.370  17.113  0.00  0.00    +0.000 A 
ATOM     27  C   UNL     1      37.069  -3.576  17.206  0.00  0.00    +0.000 A 
ATOM     28  N   UNL     1      38.065  -3.776  18.085  0.00  0.00    +0.000 NA
ATOM     29  C   UNL     1      38.460  -2.805  18.919  0.00  0.00    +0.000 A 
ATOM     30  C   UNL     1      37.824  -1.582  18.866  0.00  0.00    +0.000 A 
ENDBRANCH  24  25
ENDBRANCH  23  24
ENDBRANCH   2  23
TORSDOF 7
ENDMDL
MODEL 5
REMARK VINA RESULT:      -6.8      3.013      5.833
REMARK  Name = 
REMARK  7 active torsions:
REMARK  status: ('A' for Active; 'I' for Inactive)
REMARK    1  A    between atoms: C_2  and  O_3
REMARK    2  A    between atoms: O_3  and  C_4
REMARK    3  A    between atoms: C_9  and  N_10
REMARK    4  A    between atoms: C_11  and  C_13
REMARK    5  A    between atoms: C_14  and  N_15
REMARK    6  A    between atoms: N_15  and  C_16
REMARK    7  A    between atoms: C_16  and  C_17
REMARK                            x       y       z     vdW  Elec       q    Type
REMARK                         _______ _______ _______ _____ _____    ______ ____
ROOT
ATOM      1  C   UNL     1      39.436   0.857  14.092  0.00  0.00    +0.000 A 
ATOM      2  C   UNL     1      39.536   2.222  14.009  0.00  0.00    +0.000 A 
ATOM      3  S   UNL     1      41.122   2.466  13.437  0.00  0.00    +0.000 S 
ATOM      4  C   UNL     1      41.620   0.844  13.315  0.00  0.00    +0.000 A 
ATOM      5  C   UNL     1      40.526   0.147  13.729  0.00  0.00    +0.000 A 
ATOM      6  C   UNL     1      40.510  -1.373  13.788  0.00  0.00    +0.000 C 
ATOM      7  C   UNL     1      41.604  -1.862  14.699  0.00  0.00    +0.000 C 
ATOM      8  C   UNL     1      42.895  -1.886  13.894  0.00  0.00    +0.000 C 
ATOM      9  C   UNL     1      43.565  -0.543  13.935  0.00  0.00    +0.000 C 
ATOM     10  C   UNL     1      42.967   0.350  12.854  0.00  0.00    +0.000 C 
ENDROOT
BRANCH   1  12
ATOM     11  N   UNL     1      37.960  -0.111  15.928  0.00  0.00    +0.000 NA
ATOM     12  C   UNL     1      38.162   0.235  14.567  0.00  0.00    +0.000 C 
ATOM     13  O   UNL     1      37.218  -0.009  13.787  0.00  0.00    +0.000 OA
BRANCH  11  19
ATOM     14  C   UNL     1      35.721   0.097  16.790  0.00  0.00    +0.000 A 
ATOM     15  C   UNL     1      34.518  -0.457  17.229  0.00  0.00    +0.000 A 
ATOM     16  C   UNL     1      34.342  -1.812  17.247  0.00  0.00    +0.000 A 
ATOM     17  C   UNL     1      35.397  -2.596  16.815  0.00  0.00    +0.000 A 
ATOM     18  C   UNL     1      36.595  -2.070  16.378  0.00  0.00    +0.000 A 
ATOM     19  C   UNL     1      36.762  -0.696  16.364  0.00  0.00    +0.000 A 
BRANCH  14  20
ATOM     20  O   UNL     1      35.890   1.483  16.778  0.00  0.00    +0.000 OA
BRANCH  20  22
ATOM     21  C   UNL     1      35.032   2.615  14.827  0.00  0.00    +0.000 C 
ATOM     22  C   UNL     1      34.853   2.335  16.314  0.00  0.00    +0.000 C 
ENDBRANCH  20  22
ENDBRANCH  14  20
ENDBRANCH  11  19
ENDBRANCH   1  12
BRANCH   2  23
ATOM     23  N   UNL     1      38.518   3.203  14.336  0.00  0.00    +0.000 NA
BRANCH  23  24
ATOM     24  C   UNL     1      38.992   4.578  14.521  0.00  0.00    +0.000 C 
BRANCH  24  25
ATOM     25  C   UNL     1      39.160   4.909  15.934  0.00  0.00    +0.000 A 
ATOM     26  C   UNL     1      38.317   4.355  16.886  0.00  0.00    +0.000 A 
ATOM     27  C   UNL     1      38.539   4.718  18.200  0.00  0.00    +0.000 A 
ATOM     28  N   UNL     1      39.520   5.565  18.552  0.00  0.00    +0.000 NA
ATOM     29  C   UNL     1      40.335   6.102  17.634  0.00  0.00    +0.000 A 
ATOM     30  C   UNL     1      40.154   5.772  16.307  0.00  0.00    +0.000 A 
ENDBRANCH  24  25
ENDBRANCH  23  24
ENDBRANCH   2  23
TORSDOF 7
ENDMDL
MODEL 6
REMARK VINA RESULT:      -6.7      2.205      5.835
REMARK  Name = 
REMARK  7 active torsions:
REMARK  status: ('A' for Active; 'I' for Inactive)
REMARK    1  A    between atoms: C_2  and  O_3
REMARK    2  A    between atoms: O_3  and  C_4
REMARK    3  A    between atoms: C_9  and  N_10
REMARK    4  A    between atoms: C_11  and  C_13
REMARK    5  A    between atoms: C_14  and  N_15
REMARK    6  A    between atoms: N_15  and  C_16
REMARK    7  A    between atoms: C_16  and  C_17
REMARK                            x       y       z     vdW  Elec       q    Type
REMARK                         _______ _______ _______ _____ _____    ______ ____
ROOT
ATOM      1  C   UNL     1      38.069  -1.449  15.847  0.00  0.00    +0.000 A 
ATOM      2  C   UNL     1      39.122  -1.895  15.091  0.00  0.00    +0.000 A 
ATOM      3  S   UNL     1      39.761  -3.171  16.021  0.00  0.00    +0.000 S 
ATOM      4  C   UNL     1      38.687  -3.112  17.339  0.00  0.00    +0.000 A 
ATOM      5  C   UNL     1      37.850  -2.087  17.017  0.00  0.00    +0.000 A 
ATOM      6  C   UNL     1      36.705  -1.663  17.925  0.00  0.00    +0.000 C 
ATOM      7  C   UNL     1      37.241  -1.267  19.275  0.00  0.00    +0.000 C 
ATOM      8  C   UNL     1      37.436  -2.543  20.082  0.00  0.00    +0.000 C 
ATOM      9  C   UNL     1      38.785  -3.140  19.805  0.00  0.00    +0.000 C 
ATOM     10  C   UNL     1      38.704  -4.005  18.553  0.00  0.00    +0.000 C 
ENDROOT
BRANCH   1  12
ATOM     11  N   UNL     1      37.377   1.002  15.886  0.00  0.00    +0.000 NA
ATOM     12  C   UNL     1      37.236  -0.307  15.358  0.00  0.00    +0.000 C 
ATOM     13  O   UNL     1      36.379  -0.455  14.464  0.00  0.00    +0.000 OA
BRANCH  11  19
ATOM     14  C   UNL     1      37.112   2.974  14.528  0.00  0.00    +0.000 A 
ATOM     15  C   UNL     1      36.353   4.042  14.049  0.00  0.00    +0.000 A 
ATOM     16  C   UNL     1      35.061   4.215  14.458  0.00  0.00    +0.000 A 
ATOM     17  C   UNL     1      34.549   3.294  15.356  0.00  0.00    +0.000 A 
ATOM     18  C   UNL     1      35.282   2.232  15.843  0.00  0.00    +0.000 A 
ATOM     19  C   UNL     1      36.591   2.067  15.421  0.00  0.00    +0.000 A 
BRANCH  14  20
ATOM     20  O   UNL     1      38.432   2.808  14.103  0.00  0.00    +0.000 OA
BRANCH  20  22
ATOM     21  C   UNL     1      38.217   1.498  12.088  0.00  0.00    +0.000 C 
ATOM     22  C   UNL     1      38.750   2.777  12.720  0.00  0.00    +0.000 C 
ENDBRANCH  20  22
ENDBRANCH  14  20
ENDBRANCH  11  19
ENDBRANCH   1  12
BRANCH   2  23
ATOM     23  N   UNL     1      39.565  -1.385  13.807  0.00  0.00    +0.000 NA
BRANCH  23  24
ATOM     24  C   UNL     1      40.832  -1.927  13.307  0.00  0.00    +0.000 C 
BRANCH  24  25
ATOM     25  C   UNL     1      41.938  -0.993  13.507  0.00  0.00    +0.000 A 
ATOM     26  C   UNL     1      41.990   0.193  12.788  0.00  0.00    +0.000 A 
ATOM     27  C   UNL     1      43.067   1.021  13.034  0.00  0.00    +0.000 A 
ATOM     28  N   UNL     1      44.025   0.706  13.923  0.00  0.00    +0.000 NA
ATOM     29  C   UNL     1      43.976  -0.438  14.617  0.00  0.00    +0.000 A 
ATOM     30  C   UNL     1      42.920  -1.301  14.408  0.00  0.00    +0.000 A 
ENDBRANCH  24  25
ENDBRANCH  23  24
ENDBRANCH   2  23
TORSDOF 7
ENDMDL
MODEL 7
REMARK VINA RESULT:      -6.6      3.048      6.930
REMARK  Name = 
REMARK  7 active torsions:
REMARK  status: ('A' for Active; 'I' for Inactive)
REMARK    1  A    between atoms: C_2  and  O_3
REMARK    2  A    between atoms: O_3  and  C_4
REMARK    3  A    between atoms: C_9  and  N_10
REMARK    4  A    between atoms: C_11  and  C_13
REMARK    5  A    between atoms: C_14  and  N_15
REMARK    6  A    between atoms: N_15  and  C_16
REMARK    7  A    between atoms: C_16  and  C_17
REMARK                            x       y       z     vdW  Elec       q    Type
REMARK                         _______ _______ _______ _____ _____    ______ ____
ROOT
ATOM      1  C   UNL     1      36.924   0.246  15.413  0.00  0.00    +0.000 A 
ATOM      2  C   UNL     1      36.296   1.353  15.923  0.00  0.00    +0.000 A 
ATOM      3  S   UNL     1      35.039   0.692  16.865  0.00  0.00    +0.000 S 
ATOM      4  C   UNL     1      35.336  -0.961  16.593  0.00  0.00    +0.000 A 
ATOM      5  C   UNL     1      36.418  -0.955  15.766  0.00  0.00    +0.000 A 
ATOM      6  C   UNL     1      37.048  -2.240  15.250  0.00  0.00    +0.000 C 
ATOM      7  C   UNL     1      36.027  -3.040  14.486  0.00  0.00    +0.000 C 
ATOM      8  C   UNL     1      35.209  -3.826  15.502  0.00  0.00    +0.000 C 
ATOM      9  C   UNL     1      34.066  -2.996  16.011  0.00  0.00    +0.000 C 
ATOM     10  C   UNL     1      34.554  -2.119  17.159  0.00  0.00    +0.000 C 
ENDROOT
BRANCH   1  12
ATOM     11  N   UNL     1      39.403   0.684  15.023  0.00  0.00    +0.000 NA
ATOM     12  C   UNL     1      38.106   0.414  14.513  0.00  0.00    +0.000 C 
ATOM     13  O   UNL     1      38.006   0.326  13.272  0.00  0.00    +0.000 OA
BRANCH  11  19
ATOM     14  C   UNL     1      41.403  -0.189  14.003  0.00  0.00    +0.000 A 
ATOM     15  C   UNL     1      42.508  -0.060  13.162  0.00  0.00    +0.000 A 
ATOM     16  C   UNL     1      42.730   1.101  12.476  0.00  0.00    +0.000 A 
ATOM     17  C   UNL     1      41.818   2.127  12.653  0.00  0.00    +0.000 A 
ATOM     18  C   UNL     1      40.720   2.023  13.480  0.00  0.00    +0.000 A 
ATOM     19  C   UNL     1      40.505   0.841  14.170  0.00  0.00    +0.000 A 
BRANCH  14  20
ATOM     20  O   UNL     1      41.188  -1.380  14.699  0.00  0.00    +0.000 OA
BRANCH  20  22
ATOM     21  C   UNL     1      39.957  -2.706  13.104  0.00  0.00    +0.000 C 
ATOM     22  C   UNL     1      41.172  -2.625  14.018  0.00  0.00    +0.000 C 
ENDBRANCH  20  22
ENDBRANCH  14  20
ENDBRANCH  11  19
ENDBRANCH   1  12
BRANCH   2  23
ATOM     23  N   UNL     1      36.639   2.745  15.699  0.00  0.00    +0.000 NA
BRANCH  23  24
ATOM     24  C   UNL     1      36.929   3.532  16.901  0.00  0.00    +0.000 C 
BRANCH  24  25
ATOM     25  C   UNL     1      38.131   4.347  16.739  0.00  0.00    +0.000 A 
ATOM     26  C   UNL     1      38.684   5.000  17.831  0.00  0.00    +0.000 A 
ATOM     27  C   UNL     1      39.819   5.750  17.597  0.00  0.00    +0.000 A 
ATOM     28  N   UNL     1      40.371   5.851  16.376  0.00  0.00    +0.000 NA
ATOM     29  C   UNL     1      39.839   5.221  15.320  0.00  0.00    +0.000 A 
ATOM     30  C   UNL     1      38.703   4.459  15.502  0.00  0.00    +0.000 A 
ENDBRANCH  24  25
ENDBRANCH  23  24
ENDBRANCH   2  23
TORSDOF 7
ENDMDL
MODEL 8
REMARK VINA RESULT:      -6.6      2.060      5.410
REMARK  Name = 
REMARK  7 active torsions:
REMARK  status: ('A' for Active; 'I' for Inactive)
REMARK    1  A    between atoms: C_2  and  O_3
REMARK    2  A    between atoms: O_3  and  C_4
REMARK    3  A    between atoms: C_9  and  N_10
REMARK    4  A    between atoms: C_11  and  C_13
REMARK    5  A    between atoms: C_14  and  N_15
REMARK    6  A    between atoms: N_15  and  C_16
REMARK    7  A    between atoms: C_16  and  C_17
REMARK                            x       y       z     vdW  Elec       q    Type
REMARK                         _______ _______ _______ _____ _____    ______ ____
ROOT
ATOM      1  C   UNL     1      39.558   0.060  14.302  0.00  0.00    +0.000 A 
ATOM      2  C   UNL     1      39.823   1.405  14.301  0.00  0.00    +0.000 A 
ATOM      3  S   UNL     1      41.111   1.552  13.195  0.00  0.00    +0.000 S 
ATOM      4  C   UNL     1      41.284  -0.084  12.761  0.00  0.00    +0.000 A 
ATOM      5  C   UNL     1      40.324  -0.709  13.498  0.00  0.00    +0.000 A 
ATOM      6  C   UNL     1      40.105  -2.212  13.432  0.00  0.00    +0.000 C 
ATOM      7  C   UNL     1      41.369  -2.932  13.820  0.00  0.00    +0.000 C 
ATOM      8  C   UNL     1      42.261  -2.987  12.589  0.00  0.00    +0.000 C 
ATOM      9  C   UNL     1      43.092  -1.741  12.485  0.00  0.00    +0.000 C 
ATOM     10  C   UNL     1      42.283  -0.655  11.787  0.00  0.00    +0.000 C 
ENDROOT
BRANCH   1  12
ATOM     11  N   UNL     1      37.109  -0.477  14.753  0.00  0.00    +0.000 NA
ATOM     12  C   UNL     1      38.466  -0.479  15.169  0.00  0.00    +0.000 C 
ATOM     13  O   UNL     1      38.698  -0.956  16.299  0.00  0.00    +0.000 OA
BRANCH  11  19
ATOM     14  C   UNL     1      35.464  -0.166  16.485  0.00  0.00    +0.000 A 
ATOM     15  C   UNL     1      34.450  -0.644  17.315  0.00  0.00    +0.000 A 
ATOM     16  C   UNL     1      34.049  -1.949  17.243  0.00  0.00    +0.000 A 
ATOM     17  C   UNL     1      34.689  -2.760  16.321  0.00  0.00    +0.000 A 
ATOM     18  C   UNL     1      35.694  -2.309  15.492  0.00  0.00    +0.000 A 
ATOM     19  C   UNL     1      36.092  -0.985  15.574  0.00  0.00    +0.000 A 
BRANCH  14  20
ATOM     20  O   UNL     1      35.866   1.169  16.569  0.00  0.00    +0.000 OA
BRANCH  20  22
ATOM     21  C   UNL     1      34.982   2.517  14.773  0.00  0.00    +0.000 C 
ATOM     22  C   UNL     1      34.959   2.218  16.267  0.00  0.00    +0.000 C 
ENDBRANCH  20  22
ENDBRANCH  14  20
ENDBRANCH  11  19
ENDBRANCH   1  12
BRANCH   2  23
ATOM     23  N   UNL     1      39.151   2.438  15.068  0.00  0.00    +0.000 NA
BRANCH  23  24
ATOM     24  C   UNL     1      39.409   3.817  14.645  0.00  0.00    +0.000 C 
BRANCH  24  25
ATOM     25  C   UNL     1      38.220   4.439  14.066  0.00  0.00    +0.000 A 
ATOM     26  C   UNL     1      37.831   4.131  12.770  0.00  0.00    +0.000 A 
ATOM     27  C   UNL     1      36.698   4.761  12.295  0.00  0.00    +0.000 A 
ATOM     28  N   UNL     1      35.996   5.631  13.042  0.00  0.00    +0.000 NA
ATOM     29  C   UNL     1      36.370   5.930  14.293  0.00  0.00    +0.000 A 
ATOM     30  C   UNL     1      37.497   5.328  14.814  0.00  0.00    +0.000 A 
ENDBRANCH  24  25
ENDBRANCH  23  24
ENDBRANCH   2  23
TORSDOF 7
ENDMDL
MODEL 9
REMARK VINA RESULT:      -6.3     28.311     31.396
REMARK  Name = 
REMARK  7 active torsions:
REMARK  status: ('A' for Active; 'I' for Inactive)
REMARK    1  A    between atoms: C_2  and  O_3
REMARK    2  A    between atoms: O_3  and  C_4
REMARK    3  A    between atoms: C_9  and  N_10
REMARK    4  A    between atoms: C_11  and  C_13
REMARK    5  A    between atoms: C_14  and  N_15
REMARK    6  A    between atoms: N_15  and  C_16
REMARK    7  A    between atoms: C_16  and  C_17
REMARK                            x       y       z     vdW  Elec       q    Type
REMARK                         _______ _______ _______ _____ _____    ______ ____
ROOT
ATOM      1  C   UNL     1       6.314   3.812  11.915  0.00  0.00    +0.000 A 
ATOM      2  C   UNL     1       6.555   2.738  12.731  0.00  0.00    +0.000 A 
ATOM      3  S   UNL     1       5.209   2.727  13.776  0.00  0.00    +0.000 S 
ATOM      4  C   UNL     1       4.376   4.075  13.159  0.00  0.00    +0.000 A 
ATOM      5  C   UNL     1       5.177   4.504  12.145  0.00  0.00    +0.000 A 
ATOM      6  C   UNL     1       4.824   5.712  11.291  0.00  0.00    +0.000 C 
ATOM      7  C   UNL     1       4.678   6.931  12.162  0.00  0.00    +0.000 C 
ATOM      8  C   UNL     1       3.274   6.910  12.749  0.00  0.00    +0.000 C 
ATOM      9  C   UNL     1       3.243   6.097  14.011  0.00  0.00    +0.000 C 
ATOM     10  C   UNL     1       3.063   4.625  13.656  0.00  0.00    +0.000 C 
ENDROOT
BRANCH   1  12
ATOM     11  N   UNL     1       8.358   5.071  11.064  0.00  0.00    +0.000 NA
ATOM     12  C   UNL     1       7.293   4.161  10.840  0.00  0.00    +0.000 C 
ATOM     13  O   UNL     1       7.217   3.667   9.696  0.00  0.00    +0.000 OA
BRANCH  11  19
ATOM     14  C   UNL     1       8.973   6.380   9.137  0.00  0.00    +0.000 A 
ATOM     15  C   UNL     1       9.861   6.720   8.117  0.00  0.00    +0.000 A 
ATOM     16  C   UNL     1      11.061   6.076   7.996  0.00  0.00    +0.000 A 
ATOM     17  C   UNL     1      11.347   5.086   8.920  0.00  0.00    +0.000 A 
ATOM     18  C   UNL     1      10.484   4.734   9.935  0.00  0.00    +0.000 A 
ATOM     19  C   UNL     1       9.270   5.393  10.048  0.00  0.00    +0.000 A 
BRANCH  14  20
ATOM     20  O   UNL     1       7.749   7.044   9.249  0.00  0.00    +0.000 OA
BRANCH  20  22
ATOM     21  C   UNL     1       5.842   6.512   7.871  0.00  0.00    +0.000 C 
ATOM     22  C   UNL     1       7.030   7.439   8.091  0.00  0.00    +0.000 C 
ENDBRANCH  20  22
ENDBRANCH  14  20
ENDBRANCH  11  19
ENDBRANCH   1  12
BRANCH   2  23
ATOM     23  N   UNL     1       7.693   1.838  12.694  0.00  0.00    +0.000 NA
BRANCH  23  24
ATOM     24  C   UNL     1       7.486   0.574  11.982  0.00  0.00    +0.000 C 
BRANCH  24  25
ATOM     25  C   UNL     1       8.617   0.246  11.117  0.00  0.00    +0.000 A 
ATOM     26  C   UNL     1       8.893  -1.076  10.799  0.00  0.00    +0.000 A 
ATOM     27  C   UNL     1       9.978  -1.304   9.977  0.00  0.00    +0.000 A 
ATOM     28  N   UNL     1      10.738  -0.303   9.501  0.00  0.00    +0.000 NA
ATOM     29  C   UNL     1      10.473   0.974   9.806  0.00  0.00    +0.000 A 
ATOM     30  C   UNL     1       9.399   1.254  10.625  0.00  0.00    +0.000 A 
ENDBRANCH  24  25
ENDBRANCH  23  24
ENDBRANCH   2  23
TORSDOF 7
ENDMDL
MODEL 10
REMARK VINA RESULT:      -6.2      2.787      5.826
REMARK  Name = 
REMARK  7 active torsions:
REMARK  status: ('A' for Active; 'I' for Inactive)
REMARK    1  A    between atoms: C_2  and  O_3
REMARK    2  A    between atoms: O_3  and  C_4
REMARK    3  A    between atoms: C_9  and  N_10
REMARK    4  A    between atoms: C_11  and  C_13
REMARK    5  A    between atoms: C_14  and  N_15
REMARK    6  A    between atoms: N_15  and  C_16
REMARK    7  A    between atoms: C_16  and  C_17
REMARK                            x       y       z     vdW  Elec       q    Type
REMARK                         _______ _______ _______ _____ _____    ______ ____
ROOT
ATOM      1  C   UNL     1      39.296  -0.889  13.366  0.00  0.00    +0.000 A 
ATOM      2  C   UNL     1      38.702  -0.588  12.168  0.00  0.00    +0.000 A 
ATOM      3  S   UNL     1      39.825  -1.155  11.019  0.00  0.00    +0.000 S 
ATOM      4  C   UNL     1      41.015  -1.756  12.075  0.00  0.00    +0.000 A 
ATOM      5  C   UNL     1      40.502  -1.496  13.309  0.00  0.00    +0.000 A 
ATOM      6  C   UNL     1      41.239  -1.868  14.586  0.00  0.00    +0.000 C 
ATOM      7  C   UNL     1      42.584  -1.193  14.617  0.00  0.00    +0.000 C 
ATOM      8  C   UNL     1      43.541  -2.042  13.793  0.00  0.00    +0.000 C 
ATOM      9  C   UNL     1      43.467  -1.661  12.342  0.00  0.00    +0.000 C 
ATOM     10  C   UNL     1      42.315  -2.412  11.684  0.00  0.00    +0.000 C 
ENDROOT
BRANCH   1  12
ATOM     11  N   UNL     1      37.635  -1.393  15.230  0.00  0.00    +0.000 NA
ATOM     12  C   UNL     1      38.605  -0.539  14.645  0.00  0.00    +0.000 C 
ATOM     13  O   UNL     1      38.850   0.521  15.256  0.00  0.00    +0.000 OA
BRANCH  11  19
ATOM     14  C   UNL     1      37.501  -1.485  17.633  0.00  0.00    +0.000 A 
ATOM     15  C   UNL     1      36.882  -1.165  18.841  0.00  0.00    +0.000 A 
ATOM     16  C   UNL     1      35.744  -0.409  18.860  0.00  0.00    +0.000 A 
ATOM     17  C   UNL     1      35.242   0.017  17.642  0.00  0.00    +0.000 A 
ATOM     18  C   UNL     1      35.837  -0.289  16.436  0.00  0.00    +0.000 A 
ATOM     19  C   UNL     1      36.991  -1.056  16.429  0.00  0.00    +0.000 A 
BRANCH  14  20
ATOM     20  O   UNL     1      38.664  -2.258  17.626  0.00  0.00    +0.000 OA
BRANCH  20  22
ATOM     21  C   UNL     1      38.281  -4.560  17.014  0.00  0.00    +0.000 C 
ATOM     22  C   UNL     1      38.653  -3.587  18.125  0.00  0.00    +0.000 C 
ENDBRANCH  20  22
ENDBRANCH  14  20
ENDBRANCH  11  19
ENDBRANCH   1  12
BRANCH   2  23
ATOM     23  N   UNL     1      37.420   0.058  11.956  0.00  0.00    +0.000 NA
BRANCH  23  24
ATOM     24  C   UNL     1      37.466   1.502  11.711  0.00  0.00    +0.000 C 
BRANCH  24  25
ATOM     25  C   UNL     1      37.631   1.807  10.291  0.00  0.00    +0.000 A 
ATOM     26  C   UNL     1      36.616   1.516   9.391  0.00  0.00    +0.000 A 
ATOM     27  C   UNL     1      36.848   1.834   8.068  0.00  0.00    +0.000 A 
ATOM     28  N   UNL     1      37.997   2.398   7.658  0.00  0.00    +0.000 NA
ATOM     29  C   UNL     1      38.979   2.680   8.526  0.00  0.00    +0.000 A 
ATOM     30  C   UNL     1      38.796   2.381   9.860  0.00  0.00    +0.000 A 
ENDBRANCH  24  25
ENDBRANCH  23  24
ENDBRANCH   2  23
TORSDOF 7
ENDMDL
