MODEL 1
REMARK VINA RESULT:      -8.4      0.000      0.000
REMARK  Name = 
REMARK  4 active torsions:
REMARK  status: ('A' for Active; 'I' for Inactive)
REMARK    1  A    between atoms: O_2  and  C_3
REMARK    2  A    between atoms: C_8  and  C_9
REMARK    3  A    between atoms: C_11  and  C_12
REMARK    4  A    between atoms: C_22  and  C_23
REMARK                            x       y       z     vdW  Elec       q    Type
REMARK                         _______ _______ _______ _____ _____    ______ ____
ROOT
ATOM      1  C   UNL     1      37.566   4.428  15.997  0.00  0.00    +0.000 A 
ATOM      2  C   UNL     1      38.596   4.683  16.875  0.00  0.00    +0.000 A 
ATOM      3  C   UNL     1      39.183   5.909  17.070  0.00  0.00    +0.000 A 
ATOM      4  N   UNL     1      38.678   6.901  16.322  0.00  0.00    +0.000 NA
ATOM      5  C   UNL     1      37.655   6.697  15.435  0.00  0.00    +0.000 A 
ATOM      6  S   UNL     1      36.839   7.749  14.365  0.00  0.00    +0.000 S 
ATOM      7  C   UNL     1      35.756   6.642  13.667  0.00  0.00    +0.000 A 
ATOM      8  C   UNL     1      36.060   5.466  14.294  0.00  0.00    +0.000 A 
ATOM      9  N   UNL     1      35.321   4.263  13.923  0.00  0.00    +0.000 NA
ATOM     10  C   UNL     1      37.048   5.487  15.217  0.00  0.00    +0.000 A 
ENDROOT
BRANCH   3  11
ATOM     11  C   UNL     1      40.272   6.130  18.008  0.00  0.00    +0.000 A 
ATOM     12  C   UNL     1      41.564   6.398  17.601  0.00  0.00    +0.000 A 
ATOM     13  C   UNL     1      42.557   6.601  18.534  0.00  0.00    +0.000 A 
ATOM     14  C   UNL     1      42.297   6.544  19.895  0.00  0.00    +0.000 A 
ATOM     15  C   UNL     1      43.375   6.766  20.906  0.00  0.00    +0.000 C 
ATOM     16  C   UNL     1      41.008   6.278  20.288  0.00  0.00    +0.000 A 
ATOM     17  C   UNL     1      40.017   6.076  19.342  0.00  0.00    +0.000 A 
ENDBRANCH   3  11
BRANCH   7  18
ATOM     18  C   UNL     1      34.721   6.870  12.628  0.00  0.00    +0.000 C 
ATOM     19  O   UNL     1      33.518   6.990  12.930  0.00  0.00    +0.000 OA
ATOM     20  N   UNL     1      35.151   6.947  11.283  0.00  0.00    +0.000 N 
ATOM     21  C   UNL     1      36.526   6.824  10.815  0.00  0.00    +0.000 C 
ATOM     22  C   UNL     1      36.402   6.368   9.380  0.00  0.00    +0.000 C 
ATOM     23  C   UNL     1      34.986   6.603   8.947  0.00  0.00    +0.000 C 
ATOM     24  C   UNL     1      34.269   7.158  10.161  0.00  0.00    +0.000 C 
ENDBRANCH   7  18
BRANCH   1  30
ATOM     25  C   UNL     1      37.607   2.151  15.092  0.00  0.00    +0.000 A 
ATOM     26  C   UNL     1      37.112   0.859  15.105  0.00  0.00    +0.000 A 
ATOM     27  C   UNL     1      36.090   0.460  15.937  0.00  0.00    +0.000 A 
ATOM     28  C   UNL     1      35.550   1.403  16.786  0.00  0.00    +0.000 A 
ATOM     29  C   UNL     1      36.040   2.686  16.774  0.00  0.00    +0.000 A 
ATOM     30  C   UNL     1      37.045   3.076  15.957  0.00  0.00    +0.000 A 
BRANCH  25  32
ATOM     31  C   UNL     1      39.865   1.930  14.133  0.00  0.00    +0.000 C 
ATOM     32  O   UNL     1      38.622   2.571  14.274  0.00  0.00    +0.000 OA
ENDBRANCH  25  32
ENDBRANCH   1  30
TORSDOF 4
ENDMDL
MODEL 2
REMARK VINA RESULT:      -8.2      4.238      8.720
REMARK  Name = 
REMARK  4 active torsions:
REMARK  status: ('A' for Active; 'I' for Inactive)
REMARK    1  A    between atoms: O_2  and  C_3
REMARK    2  A    between atoms: C_8  and  C_9
REMARK    3  A    between atoms: C_11  and  C_12
REMARK    4  A    between atoms: C_22  and  C_23
REMARK                            x       y       z     vdW  Elec       q    Type
REMARK                         _______ _______ _______ _____ _____    ______ ____
ROOT
ATOM      1  C   UNL     1      38.029  -1.396  14.758  0.00  0.00    +0.000 A 
ATOM      2  C   UNL     1      37.360  -2.600  14.783  0.00  0.00    +0.000 A 
ATOM      3  C   UNL     1      36.083  -2.785  15.253  0.00  0.00    +0.000 A 
ATOM      4  N   UNL     1      35.485  -1.675  15.712  0.00  0.00    +0.000 NA
ATOM      5  C   UNL     1      36.110  -0.456  15.708  0.00  0.00    +0.000 A 
ATOM      6  S   UNL     1      35.607   1.089  16.232  0.00  0.00    +0.000 S 
ATOM      7  C   UNL     1      37.010   1.973  15.861  0.00  0.00    +0.000 A 
ATOM      8  C   UNL     1      37.845   1.029  15.332  0.00  0.00    +0.000 A 
ATOM      9  N   UNL     1      39.181   1.436  14.906  0.00  0.00    +0.000 NA
ATOM     10  C   UNL     1      37.382  -0.238  15.247  0.00  0.00    +0.000 A 
ENDROOT
BRANCH   3  11
ATOM     11  C   UNL     1      35.417  -4.077  15.261  0.00  0.00    +0.000 A 
ATOM     12  C   UNL     1      34.305  -4.347  14.488  0.00  0.00    +0.000 A 
ATOM     13  C   UNL     1      33.714  -5.591  14.534  0.00  0.00    +0.000 A 
ATOM     14  C   UNL     1      34.208  -6.600  15.345  0.00  0.00    +0.000 A 
ATOM     15  C   UNL     1      33.567  -7.950  15.393  0.00  0.00    +0.000 C 
ATOM     16  C   UNL     1      35.316  -6.320  16.109  0.00  0.00    +0.000 A 
ATOM     17  C   UNL     1      35.902  -5.068  16.056  0.00  0.00    +0.000 A 
ENDBRANCH   3  11
BRANCH   7  18
ATOM     18  C   UNL     1      37.288   3.418  16.055  0.00  0.00    +0.000 C 
ATOM     19  O   UNL     1      37.795   3.842  17.111  0.00  0.00    +0.000 OA
ATOM     20  N   UNL     1      36.956   4.294  14.996  0.00  0.00    +0.000 N 
ATOM     21  C   UNL     1      36.362   3.911  13.721  0.00  0.00    +0.000 C 
ATOM     22  C   UNL     1      35.664   5.159  13.234  0.00  0.00    +0.000 C 
ATOM     23  C   UNL     1      36.182   6.315  14.036  0.00  0.00    +0.000 C 
ATOM     24  C   UNL     1      37.158   5.722  15.032  0.00  0.00    +0.000 C 
ENDBRANCH   7  18
BRANCH   1  30
ATOM     25  C   UNL     1      39.531  -1.066  12.850  0.00  0.00    +0.000 A 
ATOM     26  C   UNL     1      40.819  -1.029  12.345  0.00  0.00    +0.000 A 
ATOM     27  C   UNL     1      41.929  -1.298  13.112  0.00  0.00    +0.000 A 
ATOM     28  C   UNL     1      41.728  -1.614  14.440  0.00  0.00    +0.000 A 
ATOM     29  C   UNL     1      40.452  -1.652  14.943  0.00  0.00    +0.000 A 
ATOM     30  C   UNL     1      39.361  -1.387  14.187  0.00  0.00    +0.000 A 
BRANCH  25  32
ATOM     31  C   UNL     1      38.100   0.438  11.525  0.00  0.00    +0.000 C 
ATOM     32  O   UNL     1      38.411  -0.802  12.106  0.00  0.00    +0.000 OA
ENDBRANCH  25  32
ENDBRANCH   1  30
TORSDOF 4
ENDMDL
MODEL 3
REMARK VINA RESULT:      -8.0      2.694      7.296
REMARK  Name = 
REMARK  4 active torsions:
REMARK  status: ('A' for Active; 'I' for Inactive)
REMARK    1  A    between atoms: O_2  and  C_3
REMARK    2  A    between atoms: C_8  and  C_9
REMARK    3  A    between atoms: C_11  and  C_12
REMARK    4  A    between atoms: C_22  and  C_23
REMARK                            x       y       z     vdW  Elec       q    Type
REMARK                         _______ _______ _______ _____ _____    ______ ____
ROOT
ATOM      1  C   UNL     1      36.317   4.564  14.853  0.00  0.00    +0.000 A 
ATOM      2  C   UNL     1      35.994   3.225  14.906  0.00  0.00    +0.000 A 
ATOM      3  C   UNL     1      36.515   2.322  15.800  0.00  0.00    +0.000 A 
ATOM      4  N   UNL     1      37.402   2.834  16.667  0.00  0.00    +0.000 NA
ATOM      5  C   UNL     1      37.755   4.157  16.652  0.00  0.00    +0.000 A 
ATOM      6  S   UNL     1      38.844   5.062  17.606  0.00  0.00    +0.000 S 
ATOM      7  C   UNL     1      38.647   6.584  16.876  0.00  0.00    +0.000 A 
ATOM      8  C   UNL     1      37.725   6.345  15.896  0.00  0.00    +0.000 A 
ATOM      9  N   UNL     1      37.316   7.451  15.034  0.00  0.00    +0.000 NA
ATOM     10  C   UNL     1      37.254   5.083  15.774  0.00  0.00    +0.000 A 
ENDROOT
BRANCH   3  11
ATOM     11  C   UNL     1      36.145   0.916  15.817  0.00  0.00    +0.000 A 
ATOM     12  C   UNL     1      36.692  -0.009  14.950  0.00  0.00    +0.000 A 
ATOM     13  C   UNL     1      36.306  -1.330  15.011  0.00  0.00    +0.000 A 
ATOM     14  C   UNL     1      35.369  -1.771  15.933  0.00  0.00    +0.000 A 
ATOM     15  C   UNL     1      34.952  -3.204  15.999  0.00  0.00    +0.000 C 
ATOM     16  C   UNL     1      34.833  -0.842  16.791  0.00  0.00    +0.000 A 
ATOM     17  C   UNL     1      35.227   0.484  16.721  0.00  0.00    +0.000 A 
ENDBRANCH   3  11
BRANCH   7  18
ATOM     18  C   UNL     1      39.303   7.874  17.204  0.00  0.00    +0.000 C 
ATOM     19  O   UNL     1      40.306   8.266  16.577  0.00  0.00    +0.000 OA
ATOM     20  N   UNL     1      38.746   8.642  18.253  0.00  0.00    +0.000 N 
ATOM     21  C   UNL     1      37.579   8.285  19.050  0.00  0.00    +0.000 C 
ATOM     22  C   UNL     1      37.756   9.040  20.346  0.00  0.00    +0.000 C 
ATOM     23  C   UNL     1      38.802  10.091  20.123  0.00  0.00    +0.000 C 
ATOM     24  C   UNL     1      39.271   9.912  18.694  0.00  0.00    +0.000 C 
ENDBRANCH   7  18
BRANCH   1  30
ATOM     25  C   UNL     1      36.146   5.465  12.580  0.00  0.00    +0.000 A 
ATOM     26  C   UNL     1      35.449   6.215  11.650  0.00  0.00    +0.000 A 
ATOM     27  C   UNL     1      34.275   6.871  11.948  0.00  0.00    +0.000 A 
ATOM     28  C   UNL     1      33.790   6.761  13.234  0.00  0.00    +0.000 A 
ATOM     29  C   UNL     1      34.480   6.018  14.159  0.00  0.00    +0.000 A 
ATOM     30  C   UNL     1      35.633   5.374  13.864  0.00  0.00    +0.000 A 
BRANCH  25  32
ATOM     31  C   UNL     1      37.461   3.781  11.356  0.00  0.00    +0.000 C 
ATOM     32  O   UNL     1      37.314   4.804  12.307  0.00  0.00    +0.000 OA
ENDBRANCH  25  32
ENDBRANCH   1  30
TORSDOF 4
ENDMDL
MODEL 4
REMARK VINA RESULT:      -7.9      2.031      2.239
REMARK  Name = 
REMARK  4 active torsions:
REMARK  status: ('A' for Active; 'I' for Inactive)
REMARK    1  A    between atoms: O_2  and  C_3
REMARK    2  A    between atoms: C_8  and  C_9
REMARK    3  A    between atoms: C_11  and  C_12
REMARK    4  A    between atoms: C_22  and  C_23
REMARK                            x       y       z     vdW  Elec       q    Type
REMARK                         _______ _______ _______ _____ _____    ______ ____
ROOT
ATOM      1  C   UNL     1      37.750   3.853  15.557  0.00  0.00    +0.000 A 
ATOM      2  C   UNL     1      38.567   4.315  16.566  0.00  0.00    +0.000 A 
ATOM      3  C   UNL     1      39.396   5.406  16.474  0.00  0.00    +0.000 A 
ATOM      4  N   UNL     1      39.371   6.034  15.289  0.00  0.00    +0.000 NA
ATOM      5  C   UNL     1      38.577   5.612  14.256  0.00  0.00    +0.000 A 
ATOM      6  S   UNL     1      38.358   6.197  12.667  0.00  0.00    +0.000 S 
ATOM      7  C   UNL     1      37.220   5.064  12.113  0.00  0.00    +0.000 A 
ATOM      8  C   UNL     1      37.037   4.248  13.195  0.00  0.00    +0.000 A 
ATOM      9  N   UNL     1      36.115   3.122  13.075  0.00  0.00    +0.000 NA
ATOM     10  C   UNL     1      37.740   4.529  14.315  0.00  0.00    +0.000 A 
ENDROOT
BRANCH   3  11
ATOM     11  C   UNL     1      40.242   5.856  17.567  0.00  0.00    +0.000 A 
ATOM     12  C   UNL     1      41.543   6.281  17.375  0.00  0.00    +0.000 A 
ATOM     13  C   UNL     1      42.300   6.699  18.448  0.00  0.00    +0.000 A 
ATOM     14  C   UNL     1      41.791   6.707  19.737  0.00  0.00    +0.000 A 
ATOM     15  C   UNL     1      42.614   7.162  20.900  0.00  0.00    +0.000 C 
ATOM     16  C   UNL     1      40.497   6.283  19.915  0.00  0.00    +0.000 A 
ATOM     17  C   UNL     1      39.744   5.865  18.831  0.00  0.00    +0.000 A 
ENDBRANCH   3  11
BRANCH   7  18
ATOM     18  C   UNL     1      36.568   4.962  10.784  0.00  0.00    +0.000 C 
ATOM     19  O   UNL     1      35.662   5.749  10.447  0.00  0.00    +0.000 OA
ATOM     20  N   UNL     1      37.012   3.939   9.915  0.00  0.00    +0.000 N 
ATOM     21  C   UNL     1      38.060   2.966  10.202  0.00  0.00    +0.000 C 
ATOM     22  C   UNL     1      37.746   1.791   9.307  0.00  0.00    +0.000 C 
ATOM     23  C   UNL     1      36.768   2.255   8.269  0.00  0.00    +0.000 C 
ATOM     24  C   UNL     1      36.476   3.706   8.597  0.00  0.00    +0.000 C 
ENDBRANCH   7  18
BRANCH   1  30
ATOM     25  C   UNL     1      37.386   1.430  15.602  0.00  0.00    +0.000 A 
ATOM     26  C   UNL     1      36.576   0.357  15.929  0.00  0.00    +0.000 A 
ATOM     27  C   UNL     1      35.327   0.508  16.489  0.00  0.00    +0.000 A 
ATOM     28  C   UNL     1      34.883   1.792  16.725  0.00  0.00    +0.000 A 
ATOM     29  C   UNL     1      35.684   2.858  16.400  0.00  0.00    +0.000 A 
ATOM     30  C   UNL     1      36.912   2.707  15.851  0.00  0.00    +0.000 A 
BRANCH  25  32
ATOM     31  C   UNL     1      38.895   0.804  13.759  0.00  0.00    +0.000 C 
ATOM     32  O   UNL     1      38.631   1.304  15.045  0.00  0.00    +0.000 OA
ENDBRANCH  25  32
ENDBRANCH   1  30
TORSDOF 4
ENDMDL
MODEL 5
REMARK VINA RESULT:      -7.8      2.321      6.082
REMARK  Name = 
REMARK  4 active torsions:
REMARK  status: ('A' for Active; 'I' for Inactive)
REMARK    1  A    between atoms: O_2  and  C_3
REMARK    2  A    between atoms: C_8  and  C_9
REMARK    3  A    between atoms: C_11  and  C_12
REMARK    4  A    between atoms: C_22  and  C_23
REMARK                            x       y       z     vdW  Elec       q    Type
REMARK                         _______ _______ _______ _____ _____    ______ ____
ROOT
ATOM      1  C   UNL     1      37.582   4.760  16.014  0.00  0.00    +0.000 A 
ATOM      2  C   UNL     1      37.274   3.430  16.197  0.00  0.00    +0.000 A 
ATOM      3  C   UNL     1      36.310   2.740  15.504  0.00  0.00    +0.000 A 
ATOM      4  N   UNL     1      35.646   3.463  14.590  0.00  0.00    +0.000 NA
ATOM      5  C   UNL     1      35.917   4.788  14.372  0.00  0.00    +0.000 A 
ATOM      6  S   UNL     1      35.236   5.935  13.307  0.00  0.00    +0.000 S 
ATOM      7  C   UNL     1      36.165   7.291  13.736  0.00  0.00    +0.000 A 
ATOM      8  C   UNL     1      36.993   6.809  14.711  0.00  0.00    +0.000 A 
ATOM      9  N   UNL     1      37.943   7.723  15.339  0.00  0.00    +0.000 NA
ATOM     10  C   UNL     1      36.871   5.505  15.046  0.00  0.00    +0.000 A 
ENDROOT
BRANCH   3  11
ATOM     11  C   UNL     1      36.018   1.334  15.734  0.00  0.00    +0.000 A 
ATOM     12  C   UNL     1      36.614   0.321  15.007  0.00  0.00    +0.000 A 
ATOM     13  C   UNL     1      36.301  -0.995  15.268  0.00  0.00    +0.000 A 
ATOM     14  C   UNL     1      35.391  -1.344  16.254  0.00  0.00    +0.000 A 
ATOM     15  C   UNL     1      35.053  -2.772  16.536  0.00  0.00    +0.000 C 
ATOM     16  C   UNL     1      34.806  -0.328  16.970  0.00  0.00    +0.000 A 
ATOM     17  C   UNL     1      35.127   0.991  16.701  0.00  0.00    +0.000 A 
ENDBRANCH   3  11
BRANCH   7  18
ATOM     18  C   UNL     1      36.112   8.674  13.199  0.00  0.00    +0.000 C 
ATOM     19  O   UNL     1      36.885   9.046  12.295  0.00  0.00    +0.000 OA
ATOM     20  N   UNL     1      35.150   9.552  13.750  0.00  0.00    +0.000 N 
ATOM     21  C   UNL     1      34.197   9.226  14.804  0.00  0.00    +0.000 C 
ATOM     22  C   UNL     1      33.860  10.555  15.438  0.00  0.00    +0.000 C 
ATOM     23  C   UNL     1      34.322  11.636  14.507  0.00  0.00    +0.000 C 
ATOM     24  C   UNL     1      34.977  10.924  13.341  0.00  0.00    +0.000 C 
ENDBRANCH   7  18
BRANCH   1  30
ATOM     25  C   UNL     1      39.918   5.463  16.251  0.00  0.00    +0.000 A 
ATOM     26  C   UNL     1      40.916   6.025  17.028  0.00  0.00    +0.000 A 
ATOM     27  C   UNL     1      40.710   6.433  18.327  0.00  0.00    +0.000 A 
ATOM     28  C   UNL     1      39.448   6.267  18.857  0.00  0.00    +0.000 A 
ATOM     29  C   UNL     1      38.457   5.709  18.089  0.00  0.00    +0.000 A 
ATOM     30  C   UNL     1      38.661   5.309  16.812  0.00  0.00    +0.000 A 
BRANCH  25  32
ATOM     31  C   UNL     1      40.746   5.791  13.956  0.00  0.00    +0.000 C 
ATOM     32  O   UNL     1      40.099   5.050  14.958  0.00  0.00    +0.000 OA
ENDBRANCH  25  32
ENDBRANCH   1  30
TORSDOF 4
ENDMDL
MODEL 6
REMARK VINA RESULT:      -7.7      1.774      7.464
REMARK  Name = 
REMARK  4 active torsions:
REMARK  status: ('A' for Active; 'I' for Inactive)
REMARK    1  A    between atoms: O_2  and  C_3
REMARK    2  A    between atoms: C_8  and  C_9
REMARK    3  A    between atoms: C_11  and  C_12
REMARK    4  A    between atoms: C_22  and  C_23
REMARK                            x       y       z     vdW  Elec       q    Type
REMARK                         _______ _______ _______ _____ _____    ______ ____
ROOT
ATOM      1  C   UNL     1      36.539   4.372  14.793  0.00  0.00    +0.000 A 
ATOM      2  C   UNL     1      35.970   4.728  13.589  0.00  0.00    +0.000 A 
ATOM      3  C   UNL     1      36.156   5.930  12.952  0.00  0.00    +0.000 A 
ATOM      4  N   UNL     1      36.963   6.789  13.593  0.00  0.00    +0.000 NA
ATOM      5  C   UNL     1      37.551   6.481  14.791  0.00  0.00    +0.000 A 
ATOM      6  S   UNL     1      38.589   7.366  15.818  0.00  0.00    +0.000 S 
ATOM      7  C   UNL     1      38.789   6.221  17.056  0.00  0.00    +0.000 A 
ATOM      8  C   UNL     1      38.032   5.164  16.633  0.00  0.00    +0.000 A 
ATOM      9  N   UNL     1      37.953   3.976  17.477  0.00  0.00    +0.000 NA
ATOM     10  C   UNL     1      37.385   5.292  15.452  0.00  0.00    +0.000 A 
ENDROOT
BRANCH   3  11
ATOM     11  C   UNL     1      35.532   6.262  11.681  0.00  0.00    +0.000 A 
ATOM     12  C   UNL     1      34.378   7.016  11.593  0.00  0.00    +0.000 A 
ATOM     13  C   UNL     1      33.830   7.302  10.361  0.00  0.00    +0.000 A 
ATOM     14  C   UNL     1      34.409   6.850   9.186  0.00  0.00    +0.000 A 
ATOM     15  C   UNL     1      33.815   7.163   7.850  0.00  0.00    +0.000 C 
ATOM     16  C   UNL     1      35.557   6.102   9.287  0.00  0.00    +0.000 A 
ATOM     17  C   UNL     1      36.100   5.820  10.528  0.00  0.00    +0.000 A 
ENDBRANCH   3  11
BRANCH   7  18
ATOM     18  C   UNL     1      39.586   6.318  18.305  0.00  0.00    +0.000 C 
ATOM     19  O   UNL     1      39.033   6.398  19.419  0.00  0.00    +0.000 OA
ATOM     20  N   UNL     1      40.995   6.314  18.183  0.00  0.00    +0.000 N 
ATOM     21  C   UNL     1      41.746   6.223  16.937  0.00  0.00    +0.000 C 
ATOM     22  C   UNL     1      43.082   6.856  17.249  0.00  0.00    +0.000 C 
ATOM     23  C   UNL     1      43.205   6.950  18.740  0.00  0.00    +0.000 C 
ATOM     24  C   UNL     1      41.905   6.407  19.298  0.00  0.00    +0.000 C 
ENDBRANCH   7  18
BRANCH   1  30
ATOM     25  C   UNL     1      37.098   1.992  14.957  0.00  0.00    +0.000 A 
ATOM     26  C   UNL     1      36.825   0.742  15.482  0.00  0.00    +0.000 A 
ATOM     27  C   UNL     1      35.758   0.501  16.318  0.00  0.00    +0.000 A 
ATOM     28  C   UNL     1      34.940   1.565  16.635  0.00  0.00    +0.000 A 
ATOM     29  C   UNL     1      35.209   2.806  16.115  0.00  0.00    +0.000 A 
ATOM     30  C   UNL     1      36.259   3.041  15.293  0.00  0.00    +0.000 A 
BRANCH  25  32
ATOM     31  C   UNL     1      39.504   2.271  14.509  0.00  0.00    +0.000 C 
ATOM     32  O   UNL     1      38.153   2.255  14.123  0.00  0.00    +0.000 OA
ENDBRANCH  25  32
ENDBRANCH   1  30
TORSDOF 4
ENDMDL
MODEL 7
REMARK VINA RESULT:      -7.7     25.860     28.890
REMARK  Name = 
REMARK  4 active torsions:
REMARK  status: ('A' for Active; 'I' for Inactive)
REMARK    1  A    between atoms: O_2  and  C_3
REMARK    2  A    between atoms: C_8  and  C_9
REMARK    3  A    between atoms: C_11  and  C_12
REMARK    4  A    between atoms: C_22  and  C_23
REMARK                            x       y       z     vdW  Elec       q    Type
REMARK                         _______ _______ _______ _____ _____    ______ ____
ROOT
ATOM      1  C   UNL     1      12.898   0.541  27.490  0.00  0.00    +0.000 A 
ATOM      2  C   UNL     1      14.041   0.437  26.729  0.00  0.00    +0.000 A 
ATOM      3  C   UNL     1      15.301   0.201  27.223  0.00  0.00    +0.000 A 
ATOM      4  N   UNL     1      15.368   0.069  28.556  0.00  0.00    +0.000 NA
ATOM      5  C   UNL     1      14.259   0.165  29.354  0.00  0.00    +0.000 A 
ATOM      6  S   UNL     1      14.054   0.056  31.046  0.00  0.00    +0.000 S 
ATOM      7  C   UNL     1      12.376   0.311  31.134  0.00  0.00    +0.000 A 
ATOM      8  C   UNL     1      12.014   0.476  29.827  0.00  0.00    +0.000 A 
ATOM      9  N   UNL     1      10.612   0.738  29.516  0.00  0.00    +0.000 NA
ATOM     10  C   UNL     1      12.990   0.400  28.894  0.00  0.00    +0.000 A 
ENDROOT
BRANCH   3  11
ATOM     11  C   UNL     1      16.481   0.101  26.379  0.00  0.00    +0.000 A 
ATOM     12  C   UNL     1      16.939  -1.102  25.879  0.00  0.00    +0.000 A 
ATOM     13  C   UNL     1      18.063  -1.138  25.082  0.00  0.00    +0.000 A 
ATOM     14  C   UNL     1      18.762   0.015  24.760  0.00  0.00    +0.000 A 
ATOM     15  C   UNL     1      19.981  -0.026  23.895  0.00  0.00    +0.000 C 
ATOM     16  C   UNL     1      18.296   1.205  25.263  0.00  0.00    +0.000 A 
ATOM     17  C   UNL     1      17.166   1.231  26.062  0.00  0.00    +0.000 A 
ENDBRANCH   3  11
BRANCH   7  18
ATOM     18  C   UNL     1      11.494   0.349  32.327  0.00  0.00    +0.000 C 
ATOM     19  O   UNL     1      10.698  -0.578  32.572  0.00  0.00    +0.000 OA
ATOM     20  N   UNL     1      11.592   1.476  33.176  0.00  0.00    +0.000 N 
ATOM     21  C   UNL     1      12.484   2.614  32.989  0.00  0.00    +0.000 C 
ATOM     22  C   UNL     1      11.815   3.749  33.728  0.00  0.00    +0.000 C 
ATOM     23  C   UNL     1      10.769   3.157  34.625  0.00  0.00    +0.000 C 
ATOM     24  C   UNL     1      10.801   1.665  34.367  0.00  0.00    +0.000 C 
ENDBRANCH   7  18
BRANCH   1  30
ATOM     25  C   UNL     1      11.201   2.044  26.560  0.00  0.00    +0.000 A 
ATOM     26  C   UNL     1      10.023   2.213  25.853  0.00  0.00    +0.000 A 
ATOM     27  C   UNL     1       9.283   1.156  25.372  0.00  0.00    +0.000 A 
ATOM     28  C   UNL     1       9.754  -0.118  25.615  0.00  0.00    +0.000 A 
ATOM     29  C   UNL     1      10.922  -0.287  26.316  0.00  0.00    +0.000 A 
ATOM     30  C   UNL     1      11.648   0.753  26.788  0.00  0.00    +0.000 A 
BRANCH  25  32
ATOM     31  C   UNL     1      11.860   4.416  26.624  0.00  0.00    +0.000 C 
ATOM     32  O   UNL     1      11.953   3.080  27.047  0.00  0.00    +0.000 OA
ENDBRANCH  25  32
ENDBRANCH   1  30
TORSDOF 4
ENDMDL
MODEL 8
REMARK VINA RESULT:      -7.7     24.196     26.854
REMARK  Name = 
REMARK  4 active torsions:
REMARK  status: ('A' for Active; 'I' for Inactive)
REMARK    1  A    between atoms: O_2  and  C_3
REMARK    2  A    between atoms: C_8  and  C_9
REMARK    3  A    between atoms: C_11  and  C_12
REMARK    4  A    between atoms: C_22  and  C_23
REMARK                            x       y       z     vdW  Elec       q    Type
REMARK                         _______ _______ _______ _____ _____    ______ ____
ROOT
ATOM      1  C   UNL     1      26.490  15.494  36.155  0.00  0.00    +0.000 A 
ATOM      2  C   UNL     1      25.654  15.454  37.250  0.00  0.00    +0.000 A 
ATOM      3  C   UNL     1      26.066  15.404  38.558  0.00  0.00    +0.000 A 
ATOM      4  N   UNL     1      27.397  15.395  38.730  0.00  0.00    +0.000 NA
ATOM      5  C   UNL     1      28.268  15.433  37.674  0.00  0.00    +0.000 A 
ATOM      6  S   UNL     1      29.974  15.419  37.596  0.00  0.00    +0.000 S 
ATOM      7  C   UNL     1      30.170  15.473  35.910  0.00  0.00    +0.000 A 
ATOM      8  C   UNL     1      28.885  15.502  35.444  0.00  0.00    +0.000 A 
ATOM      9  N   UNL     1      28.664  15.535  34.002  0.00  0.00    +0.000 NA
ATOM     10  C   UNL     1      27.889  15.483  36.358  0.00  0.00    +0.000 A 
ENDROOT
BRANCH   3  11
ATOM     11  C   UNL     1      25.144  15.362  39.682  0.00  0.00    +0.000 A 
ATOM     12  C   UNL     1      25.568  15.201  40.987  0.00  0.00    +0.000 A 
ATOM     13  C   UNL     1      24.650  15.169  42.015  0.00  0.00    +0.000 A 
ATOM     14  C   UNL     1      23.290  15.295  41.778  0.00  0.00    +0.000 A 
ATOM     15  C   UNL     1      22.296  15.262  42.894  0.00  0.00    +0.000 C 
ATOM     16  C   UNL     1      22.881  15.456  40.476  0.00  0.00    +0.000 A 
ATOM     17  C   UNL     1      23.811  15.487  39.451  0.00  0.00    +0.000 A 
ENDBRANCH   3  11
BRANCH   7  18
ATOM     18  C   UNL     1      31.421  15.487  35.111  0.00  0.00    +0.000 C 
ATOM     19  O   UNL     1      31.890  14.438  34.628  0.00  0.00    +0.000 OA
ATOM     20  N   UNL     1      32.059  16.734  34.917  0.00  0.00    +0.000 N 
ATOM     21  C   UNL     1      31.601  18.019  35.432  0.00  0.00    +0.000 C 
ATOM     22  C   UNL     1      32.848  18.869  35.503  0.00  0.00    +0.000 C 
ATOM     23  C   UNL     1      33.908  18.193  34.685  0.00  0.00    +0.000 C 
ATOM     24  C   UNL     1      33.281  16.913  34.172  0.00  0.00    +0.000 C 
ENDBRANCH   7  18
BRANCH   1  30
ATOM     25  C   UNL     1      25.506  16.824  34.348  0.00  0.00    +0.000 A 
ATOM     26  C   UNL     1      24.953  16.880  33.081  0.00  0.00    +0.000 A 
ATOM     27  C   UNL     1      24.752  15.762  32.304  0.00  0.00    +0.000 A 
ATOM     28  C   UNL     1      25.125  14.542  32.829  0.00  0.00    +0.000 A 
ATOM     29  C   UNL     1      25.674  14.484  34.086  0.00  0.00    +0.000 A 
ATOM     30  C   UNL     1      25.871  15.585  34.848  0.00  0.00    +0.000 A 
BRANCH  25  32
ATOM     31  C   UNL     1      24.722  18.829  35.544  0.00  0.00    +0.000 C 
ATOM     32  O   UNL     1      25.716  17.923  35.138  0.00  0.00    +0.000 OA
ENDBRANCH  25  32
ENDBRANCH   1  30
TORSDOF 4
ENDMDL
MODEL 9
REMARK VINA RESULT:      -7.5      3.497      4.348
REMARK  Name = 
REMARK  4 active torsions:
REMARK  status: ('A' for Active; 'I' for Inactive)
REMARK    1  A    between atoms: O_2  and  C_3
REMARK    2  A    between atoms: C_8  and  C_9
REMARK    3  A    between atoms: C_11  and  C_12
REMARK    4  A    between atoms: C_22  and  C_23
REMARK                            x       y       z     vdW  Elec       q    Type
REMARK                         _______ _______ _______ _____ _____    ______ ____
ROOT
ATOM      1  C   UNL     1      37.972   1.937  14.366  0.00  0.00    +0.000 A 
ATOM      2  C   UNL     1      38.403   2.722  15.413  0.00  0.00    +0.000 A 
ATOM      3  C   UNL     1      38.794   4.034  15.308  0.00  0.00    +0.000 A 
ATOM      4  N   UNL     1      38.732   4.544  14.069  0.00  0.00    +0.000 NA
ATOM      5  C   UNL     1      38.310   3.803  12.997  0.00  0.00    +0.000 A 
ATOM      6  S   UNL     1      38.147   4.179  11.339  0.00  0.00    +0.000 S 
ATOM      7  C   UNL     1      37.587   2.678  10.773  0.00  0.00    +0.000 A 
ATOM      8  C   UNL     1      37.541   1.913  11.904  0.00  0.00    +0.000 A 
ATOM      9  N   UNL     1      37.110   0.522  11.792  0.00  0.00    +0.000 NA
ATOM     10  C   UNL     1      37.915   2.493  13.067  0.00  0.00    +0.000 A 
ENDROOT
BRANCH   3  11
ATOM     11  C   UNL     1      39.244   4.823  16.444  0.00  0.00    +0.000 A 
ATOM     12  C   UNL     1      40.280   5.732  16.355  0.00  0.00    +0.000 A 
ATOM     13  C   UNL     1      40.665   6.454  17.463  0.00  0.00    +0.000 A 
ATOM     14  C   UNL     1      40.035   6.297  18.688  0.00  0.00    +0.000 A 
ATOM     15  C   UNL     1      40.453   7.082  19.889  0.00  0.00    +0.000 C 
ATOM     16  C   UNL     1      39.005   5.391  18.763  0.00  0.00    +0.000 A 
ATOM     17  C   UNL     1      38.626   4.669  17.644  0.00  0.00    +0.000 A 
ENDBRANCH   3  11
BRANCH   7  18
ATOM     18  C   UNL     1      37.229   2.271   9.392  0.00  0.00    +0.000 C 
ATOM     19  O   UNL     1      36.095   2.495   8.926  0.00  0.00    +0.000 OA
ATOM     20  N   UNL     1      38.222   1.619   8.624  0.00  0.00    +0.000 N 
ATOM     21  C   UNL     1      39.576   1.307   9.063  0.00  0.00    +0.000 C 
ATOM     22  C   UNL     1      39.999   0.142   8.200  0.00  0.00    +0.000 C 
ATOM     23  C   UNL     1      39.044   0.056   7.048  0.00  0.00    +0.000 C 
ATOM     24  C   UNL     1      38.027   1.158   7.271  0.00  0.00    +0.000 C 
ENDBRANCH   7  18
BRANCH   1  30
ATOM     25  C   UNL     1      38.486  -0.448  14.601  0.00  0.00    +0.000 A 
ATOM     26  C   UNL     1      38.071  -1.724  14.939  0.00  0.00    +0.000 A 
ATOM     27  C   UNL     1      36.786  -2.009  15.342  0.00  0.00    +0.000 A 
ATOM     28  C   UNL     1      35.888  -0.963  15.406  0.00  0.00    +0.000 A 
ATOM     29  C   UNL     1      36.297   0.304  15.070  0.00  0.00    +0.000 A 
ATOM     30  C   UNL     1      37.561   0.582  14.675  0.00  0.00    +0.000 A 
BRANCH  25  32
ATOM     31  C   UNL     1      40.381  -0.635  13.040  0.00  0.00    +0.000 C 
ATOM     32  O   UNL     1      39.758  -0.141  14.198  0.00  0.00    +0.000 OA
ENDBRANCH  25  32
ENDBRANCH   1  30
TORSDOF 4
ENDMDL
MODEL 10
REMARK VINA RESULT:      -7.5     24.662     27.279
REMARK  Name = 
REMARK  4 active torsions:
REMARK  status: ('A' for Active; 'I' for Inactive)
REMARK    1  A    between atoms: O_2  and  C_3
REMARK    2  A    between atoms: C_8  and  C_9
REMARK    3  A    between atoms: C_11  and  C_12
REMARK    4  A    between atoms: C_22  and  C_23
REMARK                            x       y       z     vdW  Elec       q    Type
REMARK                         _______ _______ _______ _____ _____    ______ ____
ROOT
ATOM      1  C   UNL     1      26.009  16.278  36.162  0.00  0.00    +0.000 A 
ATOM      2  C   UNL     1      25.024  16.271  37.126  0.00  0.00    +0.000 A 
ATOM      3  C   UNL     1      25.210  16.591  38.448  0.00  0.00    +0.000 A 
ATOM      4  N   UNL     1      26.466  16.931  38.775  0.00  0.00    +0.000 NA
ATOM      5  C   UNL     1      27.478  16.953  37.853  0.00  0.00    +0.000 A 
ATOM      6  S   UNL     1      29.140  17.324  37.985  0.00  0.00    +0.000 S 
ATOM      7  C   UNL     1      29.605  17.072  36.371  0.00  0.00    +0.000 A 
ATOM      8  C   UNL     1      28.439  16.701  35.761  0.00  0.00    +0.000 A 
ATOM      9  N   UNL     1      28.464  16.381  34.337  0.00  0.00    +0.000 NA
ATOM     10  C   UNL     1      27.327  16.638  36.527  0.00  0.00    +0.000 A 
ENDROOT
BRANCH   3  11
ATOM     11  C   UNL     1      24.138  16.567  39.431  0.00  0.00    +0.000 A 
ATOM     12  C   UNL     1      23.515  15.400  39.824  0.00  0.00    +0.000 A 
ATOM     13  C   UNL     1      22.505  15.435  40.761  0.00  0.00    +0.000 A 
ATOM     14  C   UNL     1      22.086  16.626  41.333  0.00  0.00    +0.000 A 
ATOM     15  C   UNL     1      20.992  16.663  42.350  0.00  0.00    +0.000 C 
ATOM     16  C   UNL     1      22.715  17.781  40.934  0.00  0.00    +0.000 A 
ATOM     17  C   UNL     1      23.728  17.735  39.992  0.00  0.00    +0.000 A 
ENDBRANCH   3  11
BRANCH   7  18
ATOM     18  C   UNL     1      30.944  17.214  35.747  0.00  0.00    +0.000 C 
ATOM     19  O   UNL     1      31.345  18.314  35.320  0.00  0.00    +0.000 OA
ATOM     20  N   UNL     1      31.749  16.054  35.657  0.00  0.00    +0.000 N 
ATOM     21  C   UNL     1      31.386  14.721  36.122  0.00  0.00    +0.000 C 
ATOM     22  C   UNL     1      32.229  13.783  35.291  0.00  0.00    +0.000 C 
ATOM     23  C   UNL     1      33.314  14.593  34.648  0.00  0.00    +0.000 C 
ATOM     24  C   UNL     1      33.068  16.026  35.074  0.00  0.00    +0.000 C 
ENDBRANCH   7  18
BRANCH   1  30
ATOM     25  C   UNL     1      25.118  16.939  33.978  0.00  0.00    +0.000 A 
ATOM     26  C   UNL     1      24.788  16.599  32.677  0.00  0.00    +0.000 A 
ATOM     27  C   UNL     1      24.933  15.324  32.180  0.00  0.00    +0.000 A 
ATOM     28  C   UNL     1      25.432  14.358  33.029  0.00  0.00    +0.000 A 
ATOM     29  C   UNL     1      25.759  14.693  34.319  0.00  0.00    +0.000 A 
ATOM     30  C   UNL     1      25.616  15.948  34.807  0.00  0.00    +0.000 A 
BRANCH  25  32
ATOM     31  C   UNL     1      25.048  19.391  33.751  0.00  0.00    +0.000 C 
ATOM     32  O   UNL     1      24.982  18.200  34.494  0.00  0.00    +0.000 OA
ENDBRANCH  25  32
ENDBRANCH   1  30
TORSDOF 4
ENDMDL
