MODEL 1
REMARK VINA RESULT:      -7.9      0.000      0.000
REMARK  Name = 
REMARK  9 active torsions:
REMARK  status: ('A' for Active; 'I' for Inactive)
REMARK    1  A    between atoms: O_2  and  C_3
REMARK    2  A    between atoms: C_6  and  C_7
REMARK    3  A    between atoms: C_7  and  C_8
REMARK    4  A    between atoms: C_8  and  N_9
REMARK    5  A    between atoms: C_12  and  C_13
REMARK    6  A    between atoms: C_13  and  O_15
REMARK    7  A    between atoms: O_15  and  C_16
REMARK    8  A    between atoms: C_16  and  C_17
REMARK    9  A    between atoms: C_17  and  C_18
REMARK                            x       y       z     vdW  Elec       q    Type
REMARK                         _______ _______ _______ _____ _____    ______ ____
ROOT
ATOM      1  N   UNL     1      36.243   0.781  15.832  0.00  0.00    +0.000 N 
ATOM      2  C   UNL     1      35.978   2.096  15.784  0.00  0.00    +0.000 A 
ATOM      3  N   UNL     1      34.764   2.763  16.148  0.00  0.00    +0.000 NA
ATOM      4  C   UNL     1      37.121   2.696  15.310  0.00  0.00    +0.000 A 
ATOM      5  C   UNL     1      38.096   1.718  15.066  0.00  0.00    +0.000 A 
ATOM      6  N   UNL     1      39.358   1.802  14.604  0.00  0.00    +0.000 NA
ATOM      7  C   UNL     1      40.083   0.677  14.467  0.00  0.00    +0.000 A 
ATOM      8  C   UNL     1      41.397   0.732  13.989  0.00  0.00    +0.000 A 
ATOM      9  C   UNL     1      42.122  -0.424  13.855  0.00  0.00    +0.000 A 
ATOM     10  C   UNL     1      41.543  -1.625  14.193  0.00  0.00    +0.000 A 
ATOM     11  C   UNL     1      40.254  -1.700  14.663  0.00  0.00    +0.000 A 
ATOM     12  C   UNL     1      39.505  -0.525  14.804  0.00  0.00    +0.000 A 
ATOM     13  N   UNL     1      38.227  -0.605  15.271  0.00  0.00    +0.000 NA
ATOM     14  C   UNL     1      37.504   0.526  15.408  0.00  0.00    +0.000 A 
ENDROOT
BRANCH   4  15
ATOM     15  C   UNL     1      37.346   4.122  15.074  0.00  0.00    +0.000 C 
ATOM     16  O   UNL     1      36.854   4.660  14.050  0.00  0.00    +0.000 OA
BRANCH  15  17
ATOM     17  O   UNL     1      38.076   4.904  15.932  0.00  0.00    +0.000 OA
BRANCH  17  18
ATOM     18  C   UNL     1      38.240   4.676  17.297  0.00  0.00    +0.000 C 
BRANCH  18  19
ATOM     19  C   UNL     1      38.472   5.954  18.078  0.00  0.00    +0.000 C 
BRANCH  19  20
ATOM     20  C   UNL     1      39.707   5.858  18.944  0.00  0.00    +0.000 C 
ATOM     21  C   UNL     1      39.564   6.949  20.011  0.00  0.00    +0.000 C 
ATOM     22  C   UNL     1      40.910   6.240  18.113  0.00  0.00    +0.000 C 
ENDBRANCH  19  20
ENDBRANCH  18  19
ENDBRANCH  17  18
ENDBRANCH  15  17
ENDBRANCH   4  15
BRANCH   1  23
ATOM     23  C   UNL     1      35.330  -0.273  16.274  0.00  0.00    +0.000 C 
BRANCH  23  24
ATOM     24  C   UNL     1      35.515  -0.442  17.788  0.00  0.00    +0.000 C 
BRANCH  24  28
ATOM     25  C   UNL     1      38.197  -3.678  18.421  0.00  0.00    +0.000 A 
ATOM     26  C   UNL     1      38.252  -2.585  19.261  0.00  0.00    +0.000 A 
ATOM     27  C   UNL     1      37.386  -1.513  19.076  0.00  0.00    +0.000 A 
ATOM     28  C   UNL     1      36.469  -1.549  18.044  0.00  0.00    +0.000 A 
ATOM     29  C   UNL     1      36.434  -2.642  17.226  0.00  0.00    +0.000 A 
ATOM     30  C   UNL     1      37.287  -3.731  17.386  0.00  0.00    +0.000 A 
BRANCH  25  32
ATOM     31  C   UNL     1      39.172  -5.372  19.928  0.00  0.00    +0.000 C 
ATOM     32  O   UNL     1      39.103  -4.713  18.676  0.00  0.00    +0.000 OA
ENDBRANCH  25  32
ENDBRANCH  24  28
ENDBRANCH  23  24
ENDBRANCH   1  23
TORSDOF 9
ENDMDL
MODEL 2
REMARK VINA RESULT:      -7.5      2.591      7.048
REMARK  Name = 
REMARK  9 active torsions:
REMARK  status: ('A' for Active; 'I' for Inactive)
REMARK    1  A    between atoms: O_2  and  C_3
REMARK    2  A    between atoms: C_6  and  C_7
REMARK    3  A    between atoms: C_7  and  C_8
REMARK    4  A    between atoms: C_8  and  N_9
REMARK    5  A    between atoms: C_12  and  C_13
REMARK    6  A    between atoms: C_13  and  O_15
REMARK    7  A    between atoms: O_15  and  C_16
REMARK    8  A    between atoms: C_16  and  C_17
REMARK    9  A    between atoms: C_17  and  C_18
REMARK                            x       y       z     vdW  Elec       q    Type
REMARK                         _______ _______ _______ _____ _____    ______ ____
ROOT
ATOM      1  N   UNL     1      37.331   3.147  14.426  0.00  0.00    +0.000 N 
ATOM      2  C   UNL     1      37.510   2.735  13.162  0.00  0.00    +0.000 A 
ATOM      3  N   UNL     1      37.923   3.513  12.033  0.00  0.00    +0.000 NA
ATOM      4  C   UNL     1      37.215   1.392  13.155  0.00  0.00    +0.000 A 
ATOM      5  C   UNL     1      36.850   0.987  14.446  0.00  0.00    +0.000 A 
ATOM      6  N   UNL     1      36.479  -0.208  14.944  0.00  0.00    +0.000 NA
ATOM      7  C   UNL     1      36.178  -0.311  16.251  0.00  0.00    +0.000 A 
ATOM      8  C   UNL     1      35.790  -1.540  16.796  0.00  0.00    +0.000 A 
ATOM      9  C   UNL     1      35.486  -1.628  18.130  0.00  0.00    +0.000 A 
ATOM     10  C   UNL     1      35.568  -0.501  18.915  0.00  0.00    +0.000 A 
ATOM     11  C   UNL     1      35.946   0.714  18.397  0.00  0.00    +0.000 A 
ATOM     12  C   UNL     1      36.259   0.814  17.036  0.00  0.00    +0.000 A 
ATOM     13  N   UNL     1      36.633   2.022  16.529  0.00  0.00    +0.000 NA
ATOM     14  C   UNL     1      36.936   2.121  15.218  0.00  0.00    +0.000 A 
ENDROOT
BRANCH   4  15
ATOM     15  C   UNL     1      37.256   0.477  12.014  0.00  0.00    +0.000 C 
ATOM     16  O   UNL     1      36.483   0.672  11.043  0.00  0.00    +0.000 OA
BRANCH  15  17
ATOM     17  O   UNL     1      38.111  -0.594  11.960  0.00  0.00    +0.000 OA
BRANCH  17  18
ATOM     18  C   UNL     1      39.497  -0.534  12.094  0.00  0.00    +0.000 C 
BRANCH  18  19
ATOM     19  C   UNL     1      40.045  -1.636  12.978  0.00  0.00    +0.000 C 
BRANCH  19  20
ATOM     20  C   UNL     1      40.610  -1.083  14.267  0.00  0.00    +0.000 C 
ATOM     21  C   UNL     1      39.658  -1.541  15.379  0.00  0.00    +0.000 C 
ATOM     22  C   UNL     1      40.513   0.425  14.228  0.00  0.00    +0.000 C 
ENDBRANCH  19  20
ENDBRANCH  18  19
ENDBRANCH  17  18
ENDBRANCH  15  17
ENDBRANCH   4  15
BRANCH   1  23
ATOM     23  C   UNL     1      37.523   4.507  14.932  0.00  0.00    +0.000 C 
BRANCH  23  24
ATOM     24  C   UNL     1      39.030   4.798  14.916  0.00  0.00    +0.000 C 
BRANCH  24  28
ATOM     25  C   UNL     1      40.154   5.993  18.837  0.00  0.00    +0.000 A 
ATOM     26  C   UNL     1      40.938   6.374  17.767  0.00  0.00    +0.000 A 
ATOM     27  C   UNL     1      40.593   5.995  16.474  0.00  0.00    +0.000 A 
ATOM     28  C   UNL     1      39.459   5.236  16.267  0.00  0.00    +0.000 A 
ATOM     29  C   UNL     1      38.698   4.872  17.342  0.00  0.00    +0.000 A 
ATOM     30  C   UNL     1      39.018   5.235  18.647  0.00  0.00    +0.000 A 
BRANCH  25  32
ATOM     31  C   UNL     1      41.928   6.368  20.511  0.00  0.00    +0.000 C 
ATOM     32  O   UNL     1      40.573   6.414  20.104  0.00  0.00    +0.000 OA
ENDBRANCH  25  32
ENDBRANCH  24  28
ENDBRANCH  23  24
ENDBRANCH   1  23
TORSDOF 9
ENDMDL
MODEL 3
REMARK VINA RESULT:      -7.4      3.611      7.690
REMARK  Name = 
REMARK  9 active torsions:
REMARK  status: ('A' for Active; 'I' for Inactive)
REMARK    1  A    between atoms: O_2  and  C_3
REMARK    2  A    between atoms: C_6  and  C_7
REMARK    3  A    between atoms: C_7  and  C_8
REMARK    4  A    between atoms: C_8  and  N_9
REMARK    5  A    between atoms: C_12  and  C_13
REMARK    6  A    between atoms: C_13  and  O_15
REMARK    7  A    between atoms: O_15  and  C_16
REMARK    8  A    between atoms: C_16  and  C_17
REMARK    9  A    between atoms: C_17  and  C_18
REMARK                            x       y       z     vdW  Elec       q    Type
REMARK                         _______ _______ _______ _____ _____    ______ ____
ROOT
ATOM      1  N   UNL     1      39.548  -1.155  14.727  0.00  0.00    +0.000 N 
ATOM      2  C   UNL     1      39.647  -2.135  15.637  0.00  0.00    +0.000 A 
ATOM      3  N   UNL     1      40.621  -3.183  15.701  0.00  0.00    +0.000 NA
ATOM      4  C   UNL     1      38.610  -1.938  16.520  0.00  0.00    +0.000 A 
ATOM      5  C   UNL     1      37.872  -0.813  16.130  0.00  0.00    +0.000 A 
ATOM      6  N   UNL     1      36.783  -0.223  16.660  0.00  0.00    +0.000 NA
ATOM      7  C   UNL     1      36.273   0.870  16.065  0.00  0.00    +0.000 A 
ATOM      8  C   UNL     1      35.143   1.504  16.593  0.00  0.00    +0.000 A 
ATOM      9  C   UNL     1      34.635   2.618  15.974  0.00  0.00    +0.000 A 
ATOM     10  C   UNL     1      35.248   3.095  14.839  0.00  0.00    +0.000 A 
ATOM     11  C   UNL     1      36.358   2.485  14.305  0.00  0.00    +0.000 A 
ATOM     12  C   UNL     1      36.884   1.348  14.930  0.00  0.00    +0.000 A 
ATOM     13  N   UNL     1      37.985   0.748  14.396  0.00  0.00    +0.000 NA
ATOM     14  C   UNL     1      38.494  -0.348  14.997  0.00  0.00    +0.000 A 
ENDROOT
BRANCH   4  15
ATOM     15  C   UNL     1      38.279  -2.742  17.698  0.00  0.00    +0.000 C 
ATOM     16  O   UNL     1      38.620  -2.331  18.836  0.00  0.00    +0.000 OA
BRANCH  15  17
ATOM     17  O   UNL     1      37.607  -3.933  17.610  0.00  0.00    +0.000 OA
BRANCH  17  18
ATOM     18  C   UNL     1      37.476  -4.708  16.460  0.00  0.00    +0.000 C 
BRANCH  18  19
ATOM     19  C   UNL     1      36.044  -5.132  16.201  0.00  0.00    +0.000 C 
BRANCH  19  20
ATOM     20  C   UNL     1      35.415  -4.313  15.098  0.00  0.00    +0.000 C 
ATOM     21  C   UNL     1      36.574  -3.795  14.238  0.00  0.00    +0.000 C 
ATOM     22  C   UNL     1      34.771  -3.091  15.712  0.00  0.00    +0.000 C 
ENDBRANCH  19  20
ENDBRANCH  18  19
ENDBRANCH  17  18
ENDBRANCH  15  17
ENDBRANCH   4  15
BRANCH   1  23
ATOM     23  C   UNL     1      40.433  -0.942  13.580  0.00  0.00    +0.000 C 
BRANCH  23  24
ATOM     24  C   UNL     1      41.553   0.006  14.029  0.00  0.00    +0.000 C 
BRANCH  24  28
ATOM     25  C   UNL     1      45.184  -2.203  14.040  0.00  0.00    +0.000 A 
ATOM     26  C   UNL     1      45.086  -1.065  14.814  0.00  0.00    +0.000 A 
ATOM     27  C   UNL     1      43.910  -0.324  14.828  0.00  0.00    +0.000 A 
ATOM     28  C   UNL     1      42.838  -0.735  14.062  0.00  0.00    +0.000 A 
ATOM     29  C   UNL     1      42.958  -1.865  13.304  0.00  0.00    +0.000 A 
ATOM     30  C   UNL     1      44.122  -2.628  13.270  0.00  0.00    +0.000 A 
BRANCH  25  32
ATOM     31  C   UNL     1      46.548  -4.139  14.733  0.00  0.00    +0.000 C 
ATOM     32  O   UNL     1      46.402  -2.890  14.082  0.00  0.00    +0.000 OA
ENDBRANCH  25  32
ENDBRANCH  24  28
ENDBRANCH  23  24
ENDBRANCH   1  23
TORSDOF 9
ENDMDL
MODEL 4
REMARK VINA RESULT:      -7.4      2.780      7.739
REMARK  Name = 
REMARK  9 active torsions:
REMARK  status: ('A' for Active; 'I' for Inactive)
REMARK    1  A    between atoms: O_2  and  C_3
REMARK    2  A    between atoms: C_6  and  C_7
REMARK    3  A    between atoms: C_7  and  C_8
REMARK    4  A    between atoms: C_8  and  N_9
REMARK    5  A    between atoms: C_12  and  C_13
REMARK    6  A    between atoms: C_13  and  O_15
REMARK    7  A    between atoms: O_15  and  C_16
REMARK    8  A    between atoms: C_16  and  C_17
REMARK    9  A    between atoms: C_17  and  C_18
REMARK                            x       y       z     vdW  Elec       q    Type
REMARK                         _______ _______ _______ _____ _____    ______ ____
ROOT
ATOM      1  N   UNL     1      38.199   3.898  15.763  0.00  0.00    +0.000 N 
ATOM      2  C   UNL     1      39.041   3.886  14.718  0.00  0.00    +0.000 A 
ATOM      3  N   UNL     1      39.902   4.939  14.270  0.00  0.00    +0.000 NA
ATOM      4  C   UNL     1      38.918   2.641  14.146  0.00  0.00    +0.000 A 
ATOM      5  C   UNL     1      37.981   1.887  14.864  0.00  0.00    +0.000 A 
ATOM      6  N   UNL     1      37.520   0.632  14.701  0.00  0.00    +0.000 NA
ATOM      7  C   UNL     1      36.601   0.153  15.559  0.00  0.00    +0.000 A 
ATOM      8  C   UNL     1      36.104  -1.147  15.414  0.00  0.00    +0.000 A 
ATOM      9  C   UNL     1      35.166  -1.620  16.297  0.00  0.00    +0.000 A 
ATOM     10  C   UNL     1      34.727  -0.804  17.313  0.00  0.00    +0.000 A 
ATOM     11  C   UNL     1      35.202   0.476  17.470  0.00  0.00    +0.000 A 
ATOM     12  C   UNL     1      36.160   0.967  16.575  0.00  0.00    +0.000 A 
ATOM     13  N   UNL     1      36.628   2.238  16.736  0.00  0.00    +0.000 NA
ATOM     14  C   UNL     1      37.551   2.714  15.875  0.00  0.00    +0.000 A 
ENDROOT
BRANCH   4  15
ATOM     15  C   UNL     1      39.626   2.127  12.973  0.00  0.00    +0.000 C 
ATOM     16  O   UNL     1      39.059   2.158  11.852  0.00  0.00    +0.000 OA
BRANCH  15  17
ATOM     17  O   UNL     1      40.893   1.608  13.048  0.00  0.00    +0.000 OA
BRANCH  17  18
ATOM     18  C   UNL     1      41.256   0.447  13.729  0.00  0.00    +0.000 C 
BRANCH  18  19
ATOM     19  C   UNL     1      40.432  -0.755  13.313  0.00  0.00    +0.000 C 
BRANCH  19  20
ATOM     20  C   UNL     1      40.834  -1.994  14.079  0.00  0.00    +0.000 C 
ATOM     21  C   UNL     1      39.998  -1.990  15.364  0.00  0.00    +0.000 C 
ATOM     22  C   UNL     1      42.273  -1.845  14.516  0.00  0.00    +0.000 C 
ENDBRANCH  19  20
ENDBRANCH  18  19
ENDBRANCH  17  18
ENDBRANCH  15  17
ENDBRANCH   4  15
BRANCH   1  23
ATOM     23  C   UNL     1      37.976   5.011  16.686  0.00  0.00    +0.000 C 
BRANCH  23  24
ATOM     24  C   UNL     1      38.838   4.761  17.931  0.00  0.00    +0.000 C 
BRANCH  24  28
ATOM     25  C   UNL     1      39.434   8.360  20.112  0.00  0.00    +0.000 A 
ATOM     26  C   UNL     1      38.382   8.278  19.223  0.00  0.00    +0.000 A 
ATOM     27  C   UNL     1      38.166   7.113  18.496  0.00  0.00    +0.000 A 
ATOM     28  C   UNL     1      39.010   6.035  18.671  0.00  0.00    +0.000 A 
ATOM     29  C   UNL     1      40.044   6.139  19.558  0.00  0.00    +0.000 A 
ATOM     30  C   UNL     1      40.286   7.292  20.300  0.00  0.00    +0.000 A 
BRANCH  25  32
ATOM     31  C   UNL     1      38.516  10.486  20.963  0.00  0.00    +0.000 C 
ATOM     32  O   UNL     1      39.582   9.568  20.802  0.00  0.00    +0.000 OA
ENDBRANCH  25  32
ENDBRANCH  24  28
ENDBRANCH  23  24
ENDBRANCH   1  23
TORSDOF 9
ENDMDL
MODEL 5
REMARK VINA RESULT:      -7.3      1.909      5.206
REMARK  Name = 
REMARK  9 active torsions:
REMARK  status: ('A' for Active; 'I' for Inactive)
REMARK    1  A    between atoms: O_2  and  C_3
REMARK    2  A    between atoms: C_6  and  C_7
REMARK    3  A    between atoms: C_7  and  C_8
REMARK    4  A    between atoms: C_8  and  N_9
REMARK    5  A    between atoms: C_12  and  C_13
REMARK    6  A    between atoms: C_13  and  O_15
REMARK    7  A    between atoms: O_15  and  C_16
REMARK    8  A    between atoms: C_16  and  C_17
REMARK    9  A    between atoms: C_17  and  C_18
REMARK                            x       y       z     vdW  Elec       q    Type
REMARK                         _______ _______ _______ _____ _____    ______ ____
ROOT
ATOM      1  N   UNL     1      36.619   2.462  15.835  0.00  0.00    +0.000 N 
ATOM      2  C   UNL     1      36.824   2.138  14.549  0.00  0.00    +0.000 A 
ATOM      3  N   UNL     1      36.069   1.231  13.739  0.00  0.00    +0.000 NA
ATOM      4  C   UNL     1      37.924   2.860  14.148  0.00  0.00    +0.000 A 
ATOM      5  C   UNL     1      38.390   3.636  15.218  0.00  0.00    +0.000 A 
ATOM      6  N   UNL     1      39.421   4.496  15.324  0.00  0.00    +0.000 NA
ATOM      7  C   UNL     1      39.641   5.116  16.497  0.00  0.00    +0.000 A 
ATOM      8  C   UNL     1      40.705   6.014  16.638  0.00  0.00    +0.000 A 
ATOM      9  C   UNL     1      40.916   6.638  17.841  0.00  0.00    +0.000 A 
ATOM     10  C   UNL     1      40.074   6.369  18.895  0.00  0.00    +0.000 A 
ATOM     11  C   UNL     1      39.025   5.489  18.777  0.00  0.00    +0.000 A 
ATOM     12  C   UNL     1      38.801   4.848  17.552  0.00  0.00    +0.000 A 
ATOM     13  N   UNL     1      37.759   3.976  17.441  0.00  0.00    +0.000 NA
ATOM     14  C   UNL     1      37.541   3.357  16.262  0.00  0.00    +0.000 A 
ENDROOT
BRANCH   4  15
ATOM     15  C   UNL     1      38.555   2.861  12.827  0.00  0.00    +0.000 C 
ATOM     16  O   UNL     1      38.193   3.711  11.975  0.00  0.00    +0.000 OA
BRANCH  15  17
ATOM     17  O   UNL     1      39.533   1.965  12.478  0.00  0.00    +0.000 OA
BRANCH  17  18
ATOM     18  C   UNL     1      40.362   1.283  13.366  0.00  0.00    +0.000 C 
BRANCH  18  19
ATOM     19  C   UNL     1      40.150  -0.217  13.327  0.00  0.00    +0.000 C 
BRANCH  19  20
ATOM     20  C   UNL     1      39.678  -0.746  14.662  0.00  0.00    +0.000 C 
ATOM     21  C   UNL     1      40.599  -1.923  15.003  0.00  0.00    +0.000 C 
ATOM     22  C   UNL     1      38.296  -1.332  14.487  0.00  0.00    +0.000 C 
ENDBRANCH  19  20
ENDBRANCH  18  19
ENDBRANCH  17  18
ENDBRANCH  15  17
ENDBRANCH   4  15
BRANCH   1  23
ATOM     23  C   UNL     1      35.558   1.947  16.702  0.00  0.00    +0.000 C 
BRANCH  23  24
ATOM     24  C   UNL     1      36.222   1.096  17.792  0.00  0.00    +0.000 C 
BRANCH  24  28
ATOM     25  C   UNL     1      35.981  -3.040  16.845  0.00  0.00    +0.000 A 
ATOM     26  C   UNL     1      35.075  -2.166  16.280  0.00  0.00    +0.000 A 
ATOM     27  C   UNL     1      35.131  -0.809  16.574  0.00  0.00    +0.000 A 
ATOM     28  C   UNL     1      36.103  -0.339  17.435  0.00  0.00    +0.000 A 
ATOM     29  C   UNL     1      36.990  -1.222  17.981  0.00  0.00    +0.000 A 
ATOM     30  C   UNL     1      36.958  -2.587  17.706  0.00  0.00    +0.000 A 
BRANCH  25  32
ATOM     31  C   UNL     1      35.379  -4.807  15.231  0.00  0.00    +0.000 C 
ATOM     32  O   UNL     1      35.855  -4.390  16.498  0.00  0.00    +0.000 OA
ENDBRANCH  25  32
ENDBRANCH  24  28
ENDBRANCH  23  24
ENDBRANCH   1  23
TORSDOF 9
ENDMDL
MODEL 6
REMARK VINA RESULT:      -7.3      2.180      6.055
REMARK  Name = 
REMARK  9 active torsions:
REMARK  status: ('A' for Active; 'I' for Inactive)
REMARK    1  A    between atoms: O_2  and  C_3
REMARK    2  A    between atoms: C_6  and  C_7
REMARK    3  A    between atoms: C_7  and  C_8
REMARK    4  A    between atoms: C_8  and  N_9
REMARK    5  A    between atoms: C_12  and  C_13
REMARK    6  A    between atoms: C_13  and  O_15
REMARK    7  A    between atoms: O_15  and  C_16
REMARK    8  A    between atoms: C_16  and  C_17
REMARK    9  A    between atoms: C_17  and  C_18
REMARK                            x       y       z     vdW  Elec       q    Type
REMARK                         _______ _______ _______ _____ _____    ______ ____
ROOT
ATOM      1  N   UNL     1      38.056   3.216  14.012  0.00  0.00    +0.000 N 
ATOM      2  C   UNL     1      36.942   2.525  14.300  0.00  0.00    +0.000 A 
ATOM      3  N   UNL     1      36.169   1.697  13.424  0.00  0.00    +0.000 NA
ATOM      4  C   UNL     1      36.678   2.768  15.628  0.00  0.00    +0.000 A 
ATOM      5  C   UNL     1      37.655   3.626  16.150  0.00  0.00    +0.000 A 
ATOM      6  N   UNL     1      37.832   4.148  17.379  0.00  0.00    +0.000 NA
ATOM      7  C   UNL     1      38.881   4.959  17.604  0.00  0.00    +0.000 A 
ATOM      8  C   UNL     1      39.090   5.516  18.870  0.00  0.00    +0.000 A 
ATOM      9  C   UNL     1      40.165   6.341  19.083  0.00  0.00    +0.000 A 
ATOM     10  C   UNL     1      41.024   6.609  18.043  0.00  0.00    +0.000 A 
ATOM     11  C   UNL     1      40.835   6.072  16.792  0.00  0.00    +0.000 A 
ATOM     12  C   UNL     1      39.741   5.228  16.565  0.00  0.00    +0.000 A 
ATOM     13  N   UNL     1      39.558   4.698  15.322  0.00  0.00    +0.000 NA
ATOM     14  C   UNL     1      38.505   3.885  15.101  0.00  0.00    +0.000 A 
ENDROOT
BRANCH   4  15
ATOM     15  C   UNL     1      35.568   2.245  16.425  0.00  0.00    +0.000 C 
ATOM     16  O   UNL     1      34.441   2.796  16.343  0.00  0.00    +0.000 OA
BRANCH  15  17
ATOM     17  O   UNL     1      35.707   1.170  17.264  0.00  0.00    +0.000 OA
BRANCH  17  18
ATOM     18  C   UNL     1      35.083  -0.067  17.109  0.00  0.00    +0.000 C 
BRANCH  18  19
ATOM     19  C   UNL     1      36.072  -1.197  16.904  0.00  0.00    +0.000 C 
BRANCH  19  20
ATOM     20  C   UNL     1      37.233  -1.099  17.867  0.00  0.00    +0.000 C 
ATOM     21  C   UNL     1      38.174  -2.259  17.518  0.00  0.00    +0.000 C 
ATOM     22  C   UNL     1      36.726  -1.377  19.263  0.00  0.00    +0.000 C 
ENDBRANCH  19  20
ENDBRANCH  18  19
ENDBRANCH  17  18
ENDBRANCH  15  17
ENDBRANCH   4  15
BRANCH   1  23
ATOM     23  C   UNL     1      38.732   3.272  12.716  0.00  0.00    +0.000 C 
BRANCH  23  24
ATOM     24  C   UNL     1      40.034   2.469  12.837  0.00  0.00    +0.000 C 
BRANCH  24  28
ATOM     25  C   UNL     1      39.160  -1.574  13.811  0.00  0.00    +0.000 A 
ATOM     26  C   UNL     1      38.786  -1.084  12.577  0.00  0.00    +0.000 A 
ATOM     27  C   UNL     1      39.059   0.235  12.234  0.00  0.00    +0.000 A 
ATOM     28  C   UNL     1      39.710   1.053  13.137  0.00  0.00    +0.000 A 
ATOM     29  C   UNL     1      40.070   0.545  14.352  0.00  0.00    +0.000 A 
ATOM     30  C   UNL     1      39.811  -0.772  14.724  0.00  0.00    +0.000 A 
BRANCH  25  32
ATOM     31  C   UNL     1      37.574  -3.464  13.795  0.00  0.00    +0.000 C 
ATOM     32  O   UNL     1      38.846  -2.912  14.078  0.00  0.00    +0.000 OA
ENDBRANCH  25  32
ENDBRANCH  24  28
ENDBRANCH  23  24
ENDBRANCH   1  23
TORSDOF 9
ENDMDL
MODEL 7
REMARK VINA RESULT:      -7.2      2.662      5.392
REMARK  Name = 
REMARK  9 active torsions:
REMARK  status: ('A' for Active; 'I' for Inactive)
REMARK    1  A    between atoms: O_2  and  C_3
REMARK    2  A    between atoms: C_6  and  C_7
REMARK    3  A    between atoms: C_7  and  C_8
REMARK    4  A    between atoms: C_8  and  N_9
REMARK    5  A    between atoms: C_12  and  C_13
REMARK    6  A    between atoms: C_13  and  O_15
REMARK    7  A    between atoms: O_15  and  C_16
REMARK    8  A    between atoms: C_16  and  C_17
REMARK    9  A    between atoms: C_17  and  C_18
REMARK                            x       y       z     vdW  Elec       q    Type
REMARK                         _______ _______ _______ _____ _____    ______ ____
ROOT
ATOM      1  N   UNL     1      36.506   3.214  14.739  0.00  0.00    +0.000 N 
ATOM      2  C   UNL     1      37.815   3.151  15.031  0.00  0.00    +0.000 A 
ATOM      3  N   UNL     1      38.603   1.985  15.295  0.00  0.00    +0.000 NA
ATOM      4  C   UNL     1      38.266   4.451  15.029  0.00  0.00    +0.000 A 
ATOM      5  C   UNL     1      37.204   5.314  14.728  0.00  0.00    +0.000 A 
ATOM      6  N   UNL     1      37.139   6.654  14.610  0.00  0.00    +0.000 NA
ATOM      7  C   UNL     1      35.962   7.230  14.306  0.00  0.00    +0.000 A 
ATOM      8  C   UNL     1      35.864   8.620  14.177  0.00  0.00    +0.000 A 
ATOM      9  C   UNL     1      34.657   9.193  13.867  0.00  0.00    +0.000 A 
ATOM     10  C   UNL     1      33.557   8.387  13.688  0.00  0.00    +0.000 A 
ATOM     11  C   UNL     1      33.633   7.021  13.812  0.00  0.00    +0.000 A 
ATOM     12  C   UNL     1      34.861   6.427  14.127  0.00  0.00    +0.000 A 
ATOM     13  N   UNL     1      34.931   5.071  14.249  0.00  0.00    +0.000 NA
ATOM     14  C   UNL     1      36.113   4.496  14.553  0.00  0.00    +0.000 A 
ENDROOT
BRANCH   4  15
ATOM     15  C   UNL     1      39.627   4.921  15.291  0.00  0.00    +0.000 C 
ATOM     16  O   UNL     1      40.404   5.120  14.323  0.00  0.00    +0.000 OA
BRANCH  15  17
ATOM     17  O   UNL     1      40.093   5.155  16.559  0.00  0.00    +0.000 OA
BRANCH  17  18
ATOM     18  C   UNL     1      39.628   6.143  17.424  0.00  0.00    +0.000 C 
BRANCH  18  19
ATOM     19  C   UNL     1      39.318   5.608  18.808  0.00  0.00    +0.000 C 
BRANCH  19  20
ATOM     20  C   UNL     1      40.084   6.356  19.875  0.00  0.00    +0.000 C 
ATOM     21  C   UNL     1      39.476   7.763  19.929  0.00  0.00    +0.000 C 
ATOM     22  C   UNL     1      41.511   6.535  19.409  0.00  0.00    +0.000 C 
ENDBRANCH  19  20
ENDBRANCH  18  19
ENDBRANCH  17  18
ENDBRANCH  15  17
ENDBRANCH   4  15
BRANCH   1  23
ATOM     23  C   UNL     1      35.587   2.081  14.625  0.00  0.00    +0.000 C 
BRANCH  23  24
ATOM     24  C   UNL     1      34.897   1.907  15.985  0.00  0.00    +0.000 C 
BRANCH  24  28
ATOM     25  C   UNL     1      36.595  -1.352  18.121  0.00  0.00    +0.000 A 
ATOM     26  C   UNL     1      36.443  -1.450  16.753  0.00  0.00    +0.000 A 
ATOM     27  C   UNL     1      35.889  -0.399  16.031  0.00  0.00    +0.000 A 
ATOM     28  C   UNL     1      35.494   0.746  16.692  0.00  0.00    +0.000 A 
ATOM     29  C   UNL     1      35.655   0.821  18.046  0.00  0.00    +0.000 A 
ATOM     30  C   UNL     1      36.205  -0.215  18.796  0.00  0.00    +0.000 A 
BRANCH  25  32
ATOM     31  C   UNL     1      38.495  -2.867  18.548  0.00  0.00    +0.000 C 
ATOM     32  O   UNL     1      37.159  -2.455  18.772  0.00  0.00    +0.000 OA
ENDBRANCH  25  32
ENDBRANCH  24  28
ENDBRANCH  23  24
ENDBRANCH   1  23
TORSDOF 9
ENDMDL
MODEL 8
REMARK VINA RESULT:      -7.2      1.955      6.731
REMARK  Name = 
REMARK  9 active torsions:
REMARK  status: ('A' for Active; 'I' for Inactive)
REMARK    1  A    between atoms: O_2  and  C_3
REMARK    2  A    between atoms: C_6  and  C_7
REMARK    3  A    between atoms: C_7  and  C_8
REMARK    4  A    between atoms: C_8  and  N_9
REMARK    5  A    between atoms: C_12  and  C_13
REMARK    6  A    between atoms: C_13  and  O_15
REMARK    7  A    between atoms: O_15  and  C_16
REMARK    8  A    between atoms: C_16  and  C_17
REMARK    9  A    between atoms: C_17  and  C_18
REMARK                            x       y       z     vdW  Elec       q    Type
REMARK                         _______ _______ _______ _____ _____    ______ ____
ROOT
ATOM      1  N   UNL     1      37.393   1.896  15.543  0.00  0.00    +0.000 N 
ATOM      2  C   UNL     1      36.372   1.176  16.032  0.00  0.00    +0.000 A 
ATOM      3  N   UNL     1      35.120   1.654  16.537  0.00  0.00    +0.000 NA
ATOM      4  C   UNL     1      36.764  -0.140  15.954  0.00  0.00    +0.000 A 
ATOM      5  C   UNL     1      38.052  -0.212  15.405  0.00  0.00    +0.000 A 
ATOM      6  N   UNL     1      38.856  -1.257  15.132  0.00  0.00    +0.000 NA
ATOM      7  C   UNL     1      40.068  -1.030  14.594  0.00  0.00    +0.000 A 
ATOM      8  C   UNL     1      40.926  -2.096  14.299  0.00  0.00    +0.000 A 
ATOM      9  C   UNL     1      42.159  -1.847  13.751  0.00  0.00    +0.000 A 
ATOM     10  C   UNL     1      42.533  -0.548  13.500  0.00  0.00    +0.000 A 
ATOM     11  C   UNL     1      41.706   0.512  13.783  0.00  0.00    +0.000 A 
ATOM     12  C   UNL     1      40.445   0.268  14.342  0.00  0.00    +0.000 A 
ATOM     13  N   UNL     1      39.628   1.323  14.622  0.00  0.00    +0.000 NA
ATOM     14  C   UNL     1      38.413   1.091  15.160  0.00  0.00    +0.000 A 
ENDROOT
BRANCH   4  15
ATOM     15  C   UNL     1      36.004  -1.322  16.363  0.00  0.00    +0.000 C 
ATOM     16  O   UNL     1      35.546  -2.091  15.481  0.00  0.00    +0.000 OA
BRANCH  15  17
ATOM     17  O   UNL     1      35.769  -1.626  17.679  0.00  0.00    +0.000 OA
BRANCH  17  18
ATOM     18  C   UNL     1      36.532  -1.192  18.761  0.00  0.00    +0.000 C 
BRANCH  18  19
ATOM     19  C   UNL     1      37.944  -1.742  18.736  0.00  0.00    +0.000 C 
BRANCH  19  20
ATOM     20  C   UNL     1      37.951  -3.254  18.756  0.00  0.00    +0.000 C 
ATOM     21  C   UNL     1      38.857  -3.660  19.924  0.00  0.00    +0.000 C 
ATOM     22  C   UNL     1      38.635  -3.749  17.503  0.00  0.00    +0.000 C 
ENDBRANCH  19  20
ENDBRANCH  18  19
ENDBRANCH  17  18
ENDBRANCH  15  17
ENDBRANCH   4  15
BRANCH   1  23
ATOM     23  C   UNL     1      37.448   3.353  15.419  0.00  0.00    +0.000 C 
BRANCH  23  24
ATOM     24  C   UNL     1      37.336   3.943  16.831  0.00  0.00    +0.000 C 
BRANCH  24  28
ATOM     25  C   UNL     1      40.766   6.265  17.781  0.00  0.00    +0.000 A 
ATOM     26  C   UNL     1      40.457   6.033  16.457  0.00  0.00    +0.000 A 
ATOM     27  C   UNL     1      39.341   5.276  16.119  0.00  0.00    +0.000 A 
ATOM     28  C   UNL     1      38.542   4.758  17.119  0.00  0.00    +0.000 A 
ATOM     29  C   UNL     1      38.868   5.002  18.422  0.00  0.00    +0.000 A 
ATOM     30  C   UNL     1      39.978   5.756  18.792  0.00  0.00    +0.000 A 
BRANCH  25  32
ATOM     31  C   UNL     1      42.023   8.382  17.611  0.00  0.00    +0.000 C 
ATOM     32  O   UNL     1      41.907   7.036  18.035  0.00  0.00    +0.000 OA
ENDBRANCH  25  32
ENDBRANCH  24  28
ENDBRANCH  23  24
ENDBRANCH   1  23
TORSDOF 9
ENDMDL
MODEL 9
REMARK VINA RESULT:      -7.1      3.681      8.392
REMARK  Name = 
REMARK  9 active torsions:
REMARK  status: ('A' for Active; 'I' for Inactive)
REMARK    1  A    between atoms: O_2  and  C_3
REMARK    2  A    between atoms: C_6  and  C_7
REMARK    3  A    between atoms: C_7  and  C_8
REMARK    4  A    between atoms: C_8  and  N_9
REMARK    5  A    between atoms: C_12  and  C_13
REMARK    6  A    between atoms: C_13  and  O_15
REMARK    7  A    between atoms: O_15  and  C_16
REMARK    8  A    between atoms: C_16  and  C_17
REMARK    9  A    between atoms: C_17  and  C_18
REMARK                            x       y       z     vdW  Elec       q    Type
REMARK                         _______ _______ _______ _____ _____    ______ ____
ROOT
ATOM      1  N   UNL     1      39.450  -1.392  14.671  0.00  0.00    +0.000 N 
ATOM      2  C   UNL     1      39.609  -2.297  15.648  0.00  0.00    +0.000 A 
ATOM      3  N   UNL     1      40.582  -3.345  15.729  0.00  0.00    +0.000 NA
ATOM      4  C   UNL     1      38.637  -2.021  16.582  0.00  0.00    +0.000 A 
ATOM      5  C   UNL     1      37.876  -0.924  16.154  0.00  0.00    +0.000 A 
ATOM      6  N   UNL     1      36.829  -0.284  16.709  0.00  0.00    +0.000 NA
ATOM      7  C   UNL     1      36.283   0.763  16.064  0.00  0.00    +0.000 A 
ATOM      8  C   UNL     1      35.194   1.447  16.615  0.00  0.00    +0.000 A 
ATOM      9  C   UNL     1      34.648   2.512  15.945  0.00  0.00    +0.000 A 
ATOM     10  C   UNL     1      35.182   2.891  14.735  0.00  0.00    +0.000 A 
ATOM     11  C   UNL     1      36.250   2.230  14.177  0.00  0.00    +0.000 A 
ATOM     12  C   UNL     1      36.815   1.143  14.854  0.00  0.00    +0.000 A 
ATOM     13  N   UNL     1      37.874   0.491  14.296  0.00  0.00    +0.000 NA
ATOM     14  C   UNL     1      38.420  -0.557  14.946  0.00  0.00    +0.000 A 
ENDROOT
BRANCH   4  15
ATOM     15  C   UNL     1      38.386  -2.724  17.840  0.00  0.00    +0.000 C 
ATOM     16  O   UNL     1      38.556  -2.116  18.927  0.00  0.00    +0.000 OA
BRANCH  15  17
ATOM     17  O   UNL     1      37.968  -4.029  17.883  0.00  0.00    +0.000 OA
BRANCH  17  18
ATOM     18  C   UNL     1      37.447  -4.750  16.811  0.00  0.00    +0.000 C 
BRANCH  18  19
ATOM     19  C   UNL     1      36.067  -4.273  16.403  0.00  0.00    +0.000 C 
BRANCH  19  20
ATOM     20  C   UNL     1      35.746  -4.659  14.978  0.00  0.00    +0.000 C 
ATOM     21  C   UNL     1      36.571  -3.722  14.087  0.00  0.00    +0.000 C 
ATOM     22  C   UNL     1      34.297  -4.329  14.704  0.00  0.00    +0.000 C 
ENDBRANCH  19  20
ENDBRANCH  18  19
ENDBRANCH  17  18
ENDBRANCH  15  17
ENDBRANCH   4  15
BRANCH   1  23
ATOM     23  C   UNL     1      40.254  -1.280  13.452  0.00  0.00    +0.000 C 
BRANCH  23  24
ATOM     24  C   UNL     1      39.788  -2.379  12.488  0.00  0.00    +0.000 C 
BRANCH  24  28
ATOM     25  C   UNL     1      40.392  -0.977   8.522  0.00  0.00    +0.000 A 
ATOM     26  C   UNL     1      40.603  -2.311   8.803  0.00  0.00    +0.000 A 
ATOM     27  C   UNL     1      40.413  -2.795  10.092  0.00  0.00    +0.000 A 
ATOM     28  C   UNL     1      40.010  -1.932  11.091  0.00  0.00    +0.000 A 
ATOM     29  C   UNL     1      39.807  -0.615  10.789  0.00  0.00    +0.000 A 
ATOM     30  C   UNL     1      39.989  -0.101   9.508  0.00  0.00    +0.000 A 
BRANCH  25  32
ATOM     31  C   UNL     1      39.560  -0.093   6.373  0.00  0.00    +0.000 C 
ATOM     32  O   UNL     1      40.606  -0.571   7.200  0.00  0.00    +0.000 OA
ENDBRANCH  25  32
ENDBRANCH  24  28
ENDBRANCH  23  24
ENDBRANCH   1  23
TORSDOF 9
ENDMDL
MODEL 10
REMARK VINA RESULT:      -7.1      2.969      7.886
REMARK  Name = 
REMARK  9 active torsions:
REMARK  status: ('A' for Active; 'I' for Inactive)
REMARK    1  A    between atoms: O_2  and  C_3
REMARK    2  A    between atoms: C_6  and  C_7
REMARK    3  A    between atoms: C_7  and  C_8
REMARK    4  A    between atoms: C_8  and  N_9
REMARK    5  A    between atoms: C_12  and  C_13
REMARK    6  A    between atoms: C_13  and  O_15
REMARK    7  A    between atoms: O_15  and  C_16
REMARK    8  A    between atoms: C_16  and  C_17
REMARK    9  A    between atoms: C_17  and  C_18
REMARK                            x       y       z     vdW  Elec       q    Type
REMARK                         _______ _______ _______ _____ _____    ______ ____
ROOT
ATOM      1  N   UNL     1      36.478   2.084  14.778  0.00  0.00    +0.000 N 
ATOM      2  C   UNL     1      35.558   1.751  15.696  0.00  0.00    +0.000 A 
ATOM      3  N   UNL     1      34.345   2.442  16.017  0.00  0.00    +0.000 NA
ATOM      4  C   UNL     1      36.010   0.592  16.283  0.00  0.00    +0.000 A 
ATOM      5  C   UNL     1      37.231   0.221  15.705  0.00  0.00    +0.000 A 
ATOM      6  N   UNL     1      38.056  -0.819  15.933  0.00  0.00    +0.000 NA
ATOM      7  C   UNL     1      39.187  -0.931  15.213  0.00  0.00    +0.000 A 
ATOM      8  C   UNL     1      40.063  -2.000  15.429  0.00  0.00    +0.000 A 
ATOM      9  C   UNL     1      41.213  -2.100  14.687  0.00  0.00    +0.000 A 
ATOM     10  C   UNL     1      41.487  -1.141  13.739  0.00  0.00    +0.000 A 
ATOM     11  C   UNL     1      40.639  -0.083  13.514  0.00  0.00    +0.000 A 
ATOM     12  C   UNL     1      39.463   0.027  14.266  0.00  0.00    +0.000 A 
ATOM     13  N   UNL     1      38.626   1.078  14.038  0.00  0.00    +0.000 NA
ATOM     14  C   UNL     1      37.492   1.186  14.761  0.00  0.00    +0.000 A 
ENDROOT
BRANCH   4  15
ATOM     15  C   UNL     1      35.364  -0.177  17.347  0.00  0.00    +0.000 C 
ATOM     16  O   UNL     1      35.466   0.216  18.537  0.00  0.00    +0.000 OA
BRANCH  15  17
ATOM     17  O   UNL     1      34.647  -1.319  17.098  0.00  0.00    +0.000 OA
BRANCH  17  18
ATOM     18  C   UNL     1      35.183  -2.594  16.930  0.00  0.00    +0.000 C 
BRANCH  18  19
ATOM     19  C   UNL     1      35.018  -3.114  15.516  0.00  0.00    +0.000 C 
BRANCH  19  20
ATOM     20  C   UNL     1      36.091  -4.120  15.167  0.00  0.00    +0.000 C 
ATOM     21  C   UNL     1      37.013  -4.200  16.389  0.00  0.00    +0.000 C 
ATOM     22  C   UNL     1      36.932  -3.556  14.045  0.00  0.00    +0.000 C 
ENDBRANCH  19  20
ENDBRANCH  18  19
ENDBRANCH  17  18
ENDBRANCH  15  17
ENDBRANCH   4  15
BRANCH   1  23
ATOM     23  C   UNL     1      36.440   3.249  13.892  0.00  0.00    +0.000 C 
BRANCH  23  24
ATOM     24  C   UNL     1      37.106   4.416  14.633  0.00  0.00    +0.000 C 
BRANCH  24  28
ATOM     25  C   UNL     1      34.573   7.806  14.232  0.00  0.00    +0.000 A 
ATOM     26  C   UNL     1      35.904   7.993  14.547  0.00  0.00    +0.000 A 
ATOM     27  C   UNL     1      36.753   6.902  14.684  0.00  0.00    +0.000 A 
ATOM     28  C   UNL     1      36.257   5.626  14.502  0.00  0.00    +0.000 A 
ATOM     29  C   UNL     1      34.937   5.466  14.191  0.00  0.00    +0.000 A 
ATOM     30  C   UNL     1      34.062   6.539  14.046  0.00  0.00    +0.000 A 
BRANCH  25  32
ATOM     31  C   UNL     1      34.326  10.261  14.233  0.00  0.00    +0.000 C 
ATOM     32  O   UNL     1      33.787   8.957  14.113  0.00  0.00    +0.000 OA
ENDBRANCH  25  32
ENDBRANCH  24  28
ENDBRANCH  23  24
ENDBRANCH   1  23
TORSDOF 9
ENDMDL
