MODEL 1
REMARK VINA RESULT:      -6.2      0.000      0.000
REMARK  Name = 
REMARK  4 active torsions:
REMARK  status: ('A' for Active; 'I' for Inactive)
REMARK    1  A    between atoms: C_10  and  C_11
REMARK    2  A    between atoms: C_12  and  C_13
REMARK    3  A    between atoms: C_12  and  C_15
REMARK    4  A    between atoms: N_17  and  C_18
REMARK                            x       y       z     vdW  Elec       q    Type
REMARK                         _______ _______ _______ _____ _____    ______ ____
ROOT
ATOM      1  C   UNL     1      25.480  23.246  23.322  0.00  0.00    +0.000 C 
ATOM      2  C   UNL     1      26.626  23.063  24.245  0.00  0.00    +0.000 A 
ATOM      3  N   UNL     1      26.611  22.580  25.507  0.00  0.00    +0.000 NA
ATOM      4  C   UNL     1      27.835  22.536  26.026  0.00  0.00    +0.000 A 
ATOM      5  C   UNL     1      28.360  22.131  27.259  0.00  0.00    +0.000 A 
ATOM      6  C   UNL     1      29.699  22.208  27.497  0.00  0.00    +0.000 A 
ATOM      7  C   UNL     1      30.588  22.684  26.545  0.00  0.00    +0.000 A 
ATOM      8  C   UNL     1      30.050  23.077  25.338  0.00  0.00    +0.000 A 
ATOM      9  C   UNL     1      28.687  23.007  25.073  0.00  0.00    +0.000 A 
ATOM     10  C   UNL     1      27.917  23.342  23.945  0.00  0.00    +0.000 A 
ENDROOT
BRANCH  10  11
ATOM     11  C   UNL     1      28.565  23.898  22.772  0.00  0.00    +0.000 C 
ATOM     12  C   UNL     1      28.588  25.157  22.400  0.00  0.00    +0.000 C 
BRANCH  12  13
ATOM     13  C   UNL     1      29.293  25.578  21.167  0.00  0.00    +0.000 C 
ATOM     14  O   UNL     1      29.754  24.675  20.429  0.00  0.00    +0.000 OA
ATOM     15  N   UNL     1      29.456  26.923  20.813  0.00  0.00    +0.000 NA
BRANCH  15  16
ATOM     16  C   UNL     1      30.139  27.375  19.617  0.00  0.00    +0.000 C 
ATOM     17  C   UNL     1      29.912  28.857  19.270  0.00  0.00    +0.000 C 
ATOM     18  C   UNL     1      29.409  27.687  18.376  0.00  0.00    +0.000 C 
ENDBRANCH  15  16
ENDBRANCH  12  13
BRANCH  12  19
ATOM     19  C   UNL     1      27.914  26.118  23.221  0.00  0.00    +0.000 C 
ATOM     20  N   UNL     1      27.390  26.916  23.883  0.00  0.00    +0.000 NA
ENDBRANCH  12  19
ENDBRANCH  10  11
TORSDOF 4
ENDMDL
MODEL 2
REMARK VINA RESULT:      -6.1     19.860     22.500
REMARK  Name = 
REMARK  4 active torsions:
REMARK  status: ('A' for Active; 'I' for Inactive)
REMARK    1  A    between atoms: C_10  and  C_11
REMARK    2  A    between atoms: C_12  and  C_13
REMARK    3  A    between atoms: C_12  and  C_15
REMARK    4  A    between atoms: N_17  and  C_18
REMARK                            x       y       z     vdW  Elec       q    Type
REMARK                         _______ _______ _______ _____ _____    ______ ____
ROOT
ATOM      1  C   UNL     1      13.538  12.971  36.432  0.00  0.00    +0.000 C 
ATOM      2  C   UNL     1      14.009  12.939  35.026  0.00  0.00    +0.000 A 
ATOM      3  N   UNL     1      13.617  13.723  33.997  0.00  0.00    +0.000 NA
ATOM      4  C   UNL     1      14.275  13.425  32.880  0.00  0.00    +0.000 A 
ATOM      5  C   UNL     1      14.252  13.920  31.570  0.00  0.00    +0.000 A 
ATOM      6  C   UNL     1      15.071  13.390  30.620  0.00  0.00    +0.000 A 
ATOM      7  C   UNL     1      15.950  12.356  30.901  0.00  0.00    +0.000 A 
ATOM      8  C   UNL     1      15.957  11.884  32.197  0.00  0.00    +0.000 A 
ATOM      9  C   UNL     1      15.130  12.408  33.183  0.00  0.00    +0.000 A 
ATOM     10  C   UNL     1      14.958  12.102  34.545  0.00  0.00    +0.000 A 
ENDROOT
BRANCH  10  11
ATOM     11  C   UNL     1      15.730  11.029  35.143  0.00  0.00    +0.000 C 
ATOM     12  C   UNL     1      16.670  11.139  36.052  0.00  0.00    +0.000 C 
BRANCH  12  13
ATOM     13  C   UNL     1      17.379   9.944  36.569  0.00  0.00    +0.000 C 
ATOM     14  O   UNL     1      17.537   8.982  35.781  0.00  0.00    +0.000 OA
ATOM     15  N   UNL     1      17.863   9.863  37.880  0.00  0.00    +0.000 NA
BRANCH  15  16
ATOM     16  C   UNL     1      18.559   8.714  38.423  0.00  0.00    +0.000 C 
ATOM     17  C   UNL     1      18.212   8.385  39.886  0.00  0.00    +0.000 C 
ATOM     18  C   UNL     1      19.624   8.855  39.432  0.00  0.00    +0.000 C 
ENDBRANCH  15  16
ENDBRANCH  12  13
BRANCH  12  19
ATOM     19  C   UNL     1      16.994  12.447  36.536  0.00  0.00    +0.000 C 
ATOM     20  N   UNL     1      17.232  13.508  36.945  0.00  0.00    +0.000 NA
ENDBRANCH  12  19
ENDBRANCH  10  11
TORSDOF 4
ENDMDL
MODEL 3
REMARK VINA RESULT:      -6.1     28.424     31.583
REMARK  Name = 
REMARK  4 active torsions:
REMARK  status: ('A' for Active; 'I' for Inactive)
REMARK    1  A    between atoms: C_10  and  C_11
REMARK    2  A    between atoms: C_12  and  C_13
REMARK    3  A    between atoms: C_12  and  C_15
REMARK    4  A    between atoms: N_17  and  C_18
REMARK                            x       y       z     vdW  Elec       q    Type
REMARK                         _______ _______ _______ _____ _____    ______ ____
ROOT
ATOM      1  C   UNL     1      36.035  -6.960  33.883  0.00  0.00    +0.000 C 
ATOM      2  C   UNL     1      35.482  -6.795  32.517  0.00  0.00    +0.000 A 
ATOM      3  N   UNL     1      35.647  -7.605  31.447  0.00  0.00    +0.000 NA
ATOM      4  C   UNL     1      34.982  -7.153  30.387  0.00  0.00    +0.000 A 
ATOM      5  C   UNL     1      34.821  -7.601  29.071  0.00  0.00    +0.000 A 
ATOM      6  C   UNL     1      34.053  -6.897  28.193  0.00  0.00    +0.000 A 
ATOM      7  C   UNL     1      33.406  -5.726  28.557  0.00  0.00    +0.000 A 
ATOM      8  C   UNL     1      33.578  -5.304  29.859  0.00  0.00    +0.000 A 
ATOM      9  C   UNL     1      34.357  -6.005  30.772  0.00  0.00    +0.000 A 
ATOM     10  C   UNL     1      34.677  -5.780  32.123  0.00  0.00    +0.000 A 
ENDROOT
BRANCH  10  11
ATOM     11  C   UNL     1      34.165  -4.602  32.796  0.00  0.00    +0.000 C 
ATOM     12  C   UNL     1      33.087  -4.517  33.539  0.00  0.00    +0.000 C 
BRANCH  12  13
ATOM     13  C   UNL     1      32.685  -3.235  34.163  0.00  0.00    +0.000 C 
ATOM     14  O   UNL     1      31.828  -3.281  35.076  0.00  0.00    +0.000 OA
ATOM     15  N   UNL     1      33.222  -2.003  33.768  0.00  0.00    +0.000 NA
BRANCH  15  16
ATOM     16  C   UNL     1      32.855  -0.729  34.352  0.00  0.00    +0.000 C 
ATOM     17  C   UNL     1      33.366   0.502  33.581  0.00  0.00    +0.000 C 
ATOM     18  C   UNL     1      33.847   0.137  35.015  0.00  0.00    +0.000 C 
ENDBRANCH  15  16
ENDBRANCH  12  13
BRANCH  12  19
ATOM     19  C   UNL     1      32.305  -5.701  33.734  0.00  0.00    +0.000 C 
ATOM     20  N   UNL     1      31.647  -6.644  33.897  0.00  0.00    +0.000 NA
ENDBRANCH  12  19
ENDBRANCH  10  11
TORSDOF 4
ENDMDL
MODEL 4
REMARK VINA RESULT:      -5.6     20.384     22.121
REMARK  Name = 
REMARK  4 active torsions:
REMARK  status: ('A' for Active; 'I' for Inactive)
REMARK    1  A    between atoms: C_10  and  C_11
REMARK    2  A    between atoms: C_12  and  C_13
REMARK    3  A    between atoms: C_12  and  C_15
REMARK    4  A    between atoms: N_17  and  C_18
REMARK                            x       y       z     vdW  Elec       q    Type
REMARK                         _______ _______ _______ _____ _____    ______ ____
ROOT
ATOM      1  C   UNL     1      21.256  13.923  39.615  0.00  0.00    +0.000 C 
ATOM      2  C   UNL     1      21.956  12.907  38.793  0.00  0.00    +0.000 A 
ATOM      3  N   UNL     1      23.286  12.764  38.598  0.00  0.00    +0.000 NA
ATOM      4  C   UNL     1      23.555  11.722  37.816  0.00  0.00    +0.000 A 
ATOM      5  C   UNL     1      24.732  11.152  37.318  0.00  0.00    +0.000 A 
ATOM      6  C   UNL     1      24.679  10.053  36.515  0.00  0.00    +0.000 A 
ATOM      7  C   UNL     1      23.477   9.460  36.160  0.00  0.00    +0.000 A 
ATOM      8  C   UNL     1      22.330  10.038  36.661  0.00  0.00    +0.000 A 
ATOM      9  C   UNL     1      22.360  11.159  37.482  0.00  0.00    +0.000 A 
ATOM     10  C   UNL     1      21.348  11.913  38.103  0.00  0.00    +0.000 A 
ENDROOT
BRANCH  10  11
ATOM     11  C   UNL     1      19.957  11.554  37.900  0.00  0.00    +0.000 C 
ATOM     12  C   UNL     1      19.181  10.890  38.724  0.00  0.00    +0.000 C 
BRANCH  12  13
ATOM     13  C   UNL     1      17.771  10.592  38.375  0.00  0.00    +0.000 C 
ATOM     14  O   UNL     1      17.225   9.625  38.956  0.00  0.00    +0.000 OA
ATOM     15  N   UNL     1      17.052  11.342  37.436  0.00  0.00    +0.000 NA
BRANCH  15  16
ATOM     16  C   UNL     1      15.675  11.083  37.067  0.00  0.00    +0.000 C 
ATOM     17  C   UNL     1      15.256  11.659  35.703  0.00  0.00    +0.000 C 
ATOM     18  C   UNL     1      14.660  12.151  37.053  0.00  0.00    +0.000 C 
ENDBRANCH  15  16
ENDBRANCH  12  13
BRANCH  12  19
ATOM     19  C   UNL     1      19.731  10.460  39.974  0.00  0.00    +0.000 C 
ATOM     20  N   UNL     1      20.175  10.139  40.998  0.00  0.00    +0.000 NA
ENDBRANCH  12  19
ENDBRANCH  10  11
TORSDOF 4
ENDMDL
MODEL 5
REMARK VINA RESULT:      -5.6      3.936      7.847
REMARK  Name = 
REMARK  4 active torsions:
REMARK  status: ('A' for Active; 'I' for Inactive)
REMARK    1  A    between atoms: C_10  and  C_11
REMARK    2  A    between atoms: C_12  and  C_13
REMARK    3  A    between atoms: C_12  and  C_15
REMARK    4  A    between atoms: N_17  and  C_18
REMARK                            x       y       z     vdW  Elec       q    Type
REMARK                         _______ _______ _______ _____ _____    ______ ____
ROOT
ATOM      1  C   UNL     1      32.479  23.382  24.432  0.00  0.00    +0.000 C 
ATOM      2  C   UNL     1      31.002  23.302  24.534  0.00  0.00    +0.000 A 
ATOM      3  N   UNL     1      30.081  23.681  23.619  0.00  0.00    +0.000 NA
ATOM      4  C   UNL     1      28.844  23.438  24.044  0.00  0.00    +0.000 A 
ATOM      5  C   UNL     1      27.569  23.632  23.502  0.00  0.00    +0.000 A 
ATOM      6  C   UNL     1      26.459  23.268  24.203  0.00  0.00    +0.000 A 
ATOM      7  C   UNL     1      26.541  22.698  25.464  0.00  0.00    +0.000 A 
ATOM      8  C   UNL     1      27.808  22.515  25.979  0.00  0.00    +0.000 A 
ATOM      9  C   UNL     1      28.954  22.879  25.282  0.00  0.00    +0.000 A 
ATOM     10  C   UNL     1      30.323  22.795  25.590  0.00  0.00    +0.000 A 
ENDROOT
BRANCH  10  11
ATOM     11  C   UNL     1      30.740  22.258  26.871  0.00  0.00    +0.000 C 
ATOM     12  C   UNL     1      31.131  22.934  27.927  0.00  0.00    +0.000 C 
BRANCH  12  13
ATOM     13  C   UNL     1      31.533  22.241  29.174  0.00  0.00    +0.000 C 
ATOM     14  O   UNL     1      32.289  21.248  29.064  0.00  0.00    +0.000 OA
ATOM     15  N   UNL     1      31.100  22.655  30.440  0.00  0.00    +0.000 NA
BRANCH  15  16
ATOM     16  C   UNL     1      31.469  22.004  31.681  0.00  0.00    +0.000 C 
ATOM     17  C   UNL     1      30.280  21.556  32.549  0.00  0.00    +0.000 C 
ATOM     18  C   UNL     1      31.284  22.660  32.987  0.00  0.00    +0.000 C 
ENDBRANCH  15  16
ENDBRANCH  12  13
BRANCH  12  19
ATOM     19  C   UNL     1      31.157  24.363  27.844  0.00  0.00    +0.000 C 
ATOM     20  N   UNL     1      31.186  25.524  27.806  0.00  0.00    +0.000 NA
ENDBRANCH  12  19
ENDBRANCH  10  11
TORSDOF 4
ENDMDL
MODEL 6
REMARK VINA RESULT:      -5.5     32.032     34.285
REMARK  Name = 
REMARK  4 active torsions:
REMARK  status: ('A' for Active; 'I' for Inactive)
REMARK    1  A    between atoms: C_10  and  C_11
REMARK    2  A    between atoms: C_12  and  C_13
REMARK    3  A    between atoms: C_12  and  C_15
REMARK    4  A    between atoms: N_17  and  C_18
REMARK                            x       y       z     vdW  Elec       q    Type
REMARK                         _______ _______ _______ _____ _____    ______ ____
ROOT
ATOM      1  C   UNL     1      18.893  -5.101  27.033  0.00  0.00    +0.000 C 
ATOM      2  C   UNL     1      18.138  -6.296  26.585  0.00  0.00    +0.000 A 
ATOM      3  N   UNL     1      16.814  -6.541  26.710  0.00  0.00    +0.000 NA
ATOM      4  C   UNL     1      16.482  -7.709  26.167  0.00  0.00    +0.000 A 
ATOM      5  C   UNL     1      15.281  -8.416  26.028  0.00  0.00    +0.000 A 
ATOM      6  C   UNL     1      15.263  -9.627  25.404  0.00  0.00    +0.000 A 
ATOM      7  C   UNL     1      16.413 -10.203  24.886  0.00  0.00    +0.000 A 
ATOM      8  C   UNL     1      17.584  -9.490  25.034  0.00  0.00    +0.000 A 
ATOM      9  C   UNL     1      17.627  -8.253  25.667  0.00  0.00    +0.000 A 
ATOM     10  C   UNL     1      18.675  -7.355  25.934  0.00  0.00    +0.000 A 
ENDROOT
BRANCH  10  11
ATOM     11  C   UNL     1      20.028  -7.690  25.533  0.00  0.00    +0.000 C 
ATOM     12  C   UNL     1      20.860  -8.502  26.143  0.00  0.00    +0.000 C 
BRANCH  12  13
ATOM     13  C   UNL     1      22.221  -8.744  25.612  0.00  0.00    +0.000 C 
ATOM     14  O   UNL     1      22.883  -9.677  26.125  0.00  0.00    +0.000 OA
ATOM     15  N   UNL     1      22.775  -7.978  24.578  0.00  0.00    +0.000 NA
BRANCH  15  16
ATOM     16  C   UNL     1      24.102  -8.182  24.033  0.00  0.00    +0.000 C 
ATOM     17  C   UNL     1      24.835  -6.891  23.627  0.00  0.00    +0.000 C 
ATOM     18  C   UNL     1      24.395  -7.976  22.603  0.00  0.00    +0.000 C 
ENDBRANCH  15  16
ENDBRANCH  12  13
BRANCH  12  19
ATOM     19  C   UNL     1      20.415  -9.152  27.340  0.00  0.00    +0.000 C 
ATOM     20  N   UNL     1      20.034  -9.658  28.313  0.00  0.00    +0.000 NA
ENDBRANCH  12  19
ENDBRANCH  10  11
TORSDOF 4
ENDMDL
MODEL 7
REMARK VINA RESULT:      -5.5     32.064     33.991
REMARK  Name = 
REMARK  4 active torsions:
REMARK  status: ('A' for Active; 'I' for Inactive)
REMARK    1  A    between atoms: C_10  and  C_11
REMARK    2  A    between atoms: C_12  and  C_13
REMARK    3  A    between atoms: C_12  and  C_15
REMARK    4  A    between atoms: N_17  and  C_18
REMARK                            x       y       z     vdW  Elec       q    Type
REMARK                         _______ _______ _______ _____ _____    ______ ____
ROOT
ATOM      1  C   UNL     1      20.592 -11.113  26.894  0.00  0.00    +0.000 C 
ATOM      2  C   UNL     1      20.133  -9.707  26.791  0.00  0.00    +0.000 A 
ATOM      3  N   UNL     1      19.093  -9.120  27.425  0.00  0.00    +0.000 NA
ATOM      4  C   UNL     1      18.993  -7.832  27.108  0.00  0.00    +0.000 A 
ATOM      5  C   UNL     1      18.121  -6.800  27.474  0.00  0.00    +0.000 A 
ATOM      6  C   UNL     1      18.282  -5.548  26.963  0.00  0.00    +0.000 A 
ATOM      7  C   UNL     1      19.300  -5.243  26.073  0.00  0.00    +0.000 A 
ATOM      8  C   UNL     1      20.148  -6.275  25.726  0.00  0.00    +0.000 A 
ATOM      9  C   UNL     1      20.003  -7.560  26.234  0.00  0.00    +0.000 A 
ATOM     10  C   UNL     1      20.723  -8.751  26.034  0.00  0.00    +0.000 A 
ENDROOT
BRANCH  10  11
ATOM     11  C   UNL     1      21.851  -8.764  25.122  0.00  0.00    +0.000 C 
ATOM     12  C   UNL     1      21.838  -9.079  23.848  0.00  0.00    +0.000 C 
BRANCH  12  13
ATOM     13  C   UNL     1      23.080  -9.049  23.040  0.00  0.00    +0.000 C 
ATOM     14  O   UNL     1      22.966  -9.208  21.802  0.00  0.00    +0.000 OA
ATOM     15  N   UNL     1      24.345  -8.853  23.608  0.00  0.00    +0.000 NA
BRANCH  15  16
ATOM     16  C   UNL     1      25.581  -8.819  22.852  0.00  0.00    +0.000 C 
ATOM     17  C   UNL     1      26.857  -8.965  23.702  0.00  0.00    +0.000 C 
ATOM     18  C   UNL     1      26.501  -7.669  22.918  0.00  0.00    +0.000 C 
ENDBRANCH  15  16
ENDBRANCH  12  13
BRANCH  12  19
ATOM     19  C   UNL     1      20.589  -9.452  23.255  0.00  0.00    +0.000 C 
ATOM     20  N   UNL     1      19.589  -9.754  22.748  0.00  0.00    +0.000 NA
ENDBRANCH  12  19
ENDBRANCH  10  11
TORSDOF 4
ENDMDL
MODEL 8
REMARK VINA RESULT:      -5.4     33.306     36.277
REMARK  Name = 
REMARK  4 active torsions:
REMARK  status: ('A' for Active; 'I' for Inactive)
REMARK    1  A    between atoms: C_10  and  C_11
REMARK    2  A    between atoms: C_12  and  C_13
REMARK    3  A    between atoms: C_12  and  C_15
REMARK    4  A    between atoms: N_17  and  C_18
REMARK                            x       y       z     vdW  Elec       q    Type
REMARK                         _______ _______ _______ _____ _____    ______ ____
ROOT
ATOM      1  C   UNL     1      20.125 -11.271  26.654  0.00  0.00    +0.000 C 
ATOM      2  C   UNL     1      19.821  -9.820  26.640  0.00  0.00    +0.000 A 
ATOM      3  N   UNL     1      20.453  -8.841  25.954  0.00  0.00    +0.000 NA
ATOM      4  C   UNL     1      19.888  -7.655  26.164  0.00  0.00    +0.000 A 
ATOM      5  C   UNL     1      20.144  -6.356  25.710  0.00  0.00    +0.000 A 
ATOM      6  C   UNL     1      19.364  -5.317  26.118  0.00  0.00    +0.000 A 
ATOM      7  C   UNL     1      18.298  -5.496  26.987  0.00  0.00    +0.000 A 
ATOM      8  C   UNL     1      18.064  -6.784  27.422  0.00  0.00    +0.000 A 
ATOM      9  C   UNL     1      18.847  -7.859  27.020  0.00  0.00    +0.000 A 
ATOM     10  C   UNL     1      18.807  -9.232  27.320  0.00  0.00    +0.000 A 
ENDROOT
BRANCH  10  11
ATOM     11  C   UNL     1      17.804  -9.739  28.237  0.00  0.00    +0.000 C 
ATOM     12  C   UNL     1      17.974 -10.068  29.496  0.00  0.00    +0.000 C 
BRANCH  12  13
ATOM     13  C   UNL     1      16.847 -10.578  30.312  0.00  0.00    +0.000 C 
ATOM     14  O   UNL     1      15.831 -10.987  29.702  0.00  0.00    +0.000 OA
ATOM     15  N   UNL     1      16.885 -10.612  31.712  0.00  0.00    +0.000 NA
BRANCH  15  16
ATOM     16  C   UNL     1      15.804 -11.101  32.545  0.00  0.00    +0.000 C 
ATOM     17  C   UNL     1      14.729 -10.053  32.881  0.00  0.00    +0.000 C 
ATOM     18  C   UNL     1      15.660 -10.689  33.952  0.00  0.00    +0.000 C 
ENDBRANCH  15  16
ENDBRANCH  12  13
BRANCH  12  19
ATOM     19  C   UNL     1      19.280  -9.921  30.064  0.00  0.00    +0.000 C 
ATOM     20  N   UNL     1      20.350  -9.821  30.505  0.00  0.00    +0.000 NA
ENDBRANCH  12  19
ENDBRANCH  10  11
TORSDOF 4
ENDMDL
MODEL 9
REMARK VINA RESULT:      -5.4     32.360     34.730
REMARK  Name = 
REMARK  4 active torsions:
REMARK  status: ('A' for Active; 'I' for Inactive)
REMARK    1  A    between atoms: C_10  and  C_11
REMARK    2  A    between atoms: C_12  and  C_13
REMARK    3  A    between atoms: C_12  and  C_15
REMARK    4  A    between atoms: N_17  and  C_18
REMARK                            x       y       z     vdW  Elec       q    Type
REMARK                         _______ _______ _______ _____ _____    ______ ____
ROOT
ATOM      1  C   UNL     1      19.071  -9.458  29.675  0.00  0.00    +0.000 C 
ATOM      2  C   UNL     1      18.078  -9.671  28.594  0.00  0.00    +0.000 A 
ATOM      3  N   UNL     1      16.892 -10.315  28.666  0.00  0.00    +0.000 NA
ATOM      4  C   UNL     1      16.252 -10.288  27.500  0.00  0.00    +0.000 A 
ATOM      5  C   UNL     1      15.026 -10.790  27.047  0.00  0.00    +0.000 A 
ATOM      6  C   UNL     1      14.636 -10.593  25.756  0.00  0.00    +0.000 A 
ATOM      7  C   UNL     1      15.423  -9.900  24.849  0.00  0.00    +0.000 A 
ATOM      8  C   UNL     1      16.626  -9.415  25.317  0.00  0.00    +0.000 A 
ATOM      9  C   UNL     1      17.044  -9.603  26.629  0.00  0.00    +0.000 A 
ATOM     10  C   UNL     1      18.202  -9.214  27.326  0.00  0.00    +0.000 A 
ENDROOT
BRANCH  10  11
ATOM     11  C   UNL     1      19.245  -8.482  26.633  0.00  0.00    +0.000 C 
ATOM     12  C   UNL     1      19.286  -7.193  26.392  0.00  0.00    +0.000 C 
BRANCH  12  13
ATOM     13  C   UNL     1      20.424  -6.585  25.664  0.00  0.00    +0.000 C 
ATOM     14  O   UNL     1      20.285  -5.408  25.254  0.00  0.00    +0.000 OA
ATOM     15  N   UNL     1      21.621  -7.273  25.426  0.00  0.00    +0.000 NA
BRANCH  15  16
ATOM     16  C   UNL     1      22.755  -6.714  24.717  0.00  0.00    +0.000 C 
ATOM     17  C   UNL     1      22.750  -6.965  23.199  0.00  0.00    +0.000 C 
ATOM     18  C   UNL     1      23.818  -7.567  24.157  0.00  0.00    +0.000 C 
ENDBRANCH  15  16
ENDBRANCH  12  13
BRANCH  12  19
ATOM     19  C   UNL     1      18.198  -6.383  26.855  0.00  0.00    +0.000 C 
ATOM     20  N   UNL     1      17.328  -5.704  27.216  0.00  0.00    +0.000 NA
ENDBRANCH  12  19
ENDBRANCH  10  11
TORSDOF 4
ENDMDL
MODEL 10
REMARK VINA RESULT:      -5.4     33.427     36.040
REMARK  Name = 
REMARK  4 active torsions:
REMARK  status: ('A' for Active; 'I' for Inactive)
REMARK    1  A    between atoms: C_10  and  C_11
REMARK    2  A    between atoms: C_12  and  C_13
REMARK    3  A    between atoms: C_12  and  C_15
REMARK    4  A    between atoms: N_17  and  C_18
REMARK                            x       y       z     vdW  Elec       q    Type
REMARK                         _______ _______ _______ _____ _____    ______ ____
ROOT
ATOM      1  C   UNL     1      18.843 -10.847  24.686  0.00  0.00    +0.000 C 
ATOM      2  C   UNL     1      18.822  -9.463  25.219  0.00  0.00    +0.000 A 
ATOM      3  N   UNL     1      19.724  -8.477  25.016  0.00  0.00    +0.000 NA
ATOM      4  C   UNL     1      19.365  -7.354  25.632  0.00  0.00    +0.000 A 
ATOM      5  C   UNL     1      19.927  -6.076  25.740  0.00  0.00    +0.000 A 
ATOM      6  C   UNL     1      19.302  -5.108  26.466  0.00  0.00    +0.000 A 
ATOM      7  C   UNL     1      18.101  -5.340  27.119  0.00  0.00    +0.000 A 
ATOM      8  C   UNL     1      17.566  -6.605  26.999  0.00  0.00    +0.000 A 
ATOM      9  C   UNL     1      18.186  -7.609  26.265  0.00  0.00    +0.000 A 
ATOM     10  C   UNL     1      17.844  -8.947  26.001  0.00  0.00    +0.000 A 
ENDROOT
BRANCH  10  11
ATOM     11  C   UNL     1      16.635  -9.506  26.575  0.00  0.00    +0.000 C 
ATOM     12  C   UNL     1      15.448  -9.572  26.018  0.00  0.00    +0.000 C 
BRANCH  12  13
ATOM     13  C   UNL     1      14.298 -10.173  26.735  0.00  0.00    +0.000 C 
ATOM     14  O   UNL     1      14.542 -11.104  27.537  0.00  0.00    +0.000 OA
ATOM     15  N   UNL     1      12.980  -9.740  26.542  0.00  0.00    +0.000 NA
BRANCH  15  16
ATOM     16  C   UNL     1      11.831 -10.302  27.222  0.00  0.00    +0.000 C 
ATOM     17  C   UNL     1      10.643  -9.335  27.380  0.00  0.00    +0.000 C 
ATOM     18  C   UNL     1      11.455  -9.889  28.586  0.00  0.00    +0.000 C 
ENDBRANCH  15  16
ENDBRANCH  12  13
BRANCH  12  19
ATOM     19  C   UNL     1      15.292  -9.048  24.695  0.00  0.00    +0.000 C 
ATOM     20  N   UNL     1      15.154  -8.650  23.612  0.00  0.00    +0.000 NA
ENDBRANCH  12  19
ENDBRANCH  10  11
TORSDOF 4
ENDMDL
