MODEL 1
REMARK VINA RESULT:      -6.7      0.000      0.000
REMARK  Name = 
REMARK  4 active torsions:
REMARK  status: ('A' for Active; 'I' for Inactive)
REMARK    1  A    between atoms: C_2  and  C_4
REMARK    2  A    between atoms: C_6  and  C_7
REMARK    3  A    between atoms: N_9  and  N_10
REMARK    4  A    between atoms: C_11  and  C_12
REMARK                            x       y       z     vdW  Elec       q    Type
REMARK                         _______ _______ _______ _____ _____    ______ ____
ROOT
ATOM      1  C   UNL     1      14.785  12.323  35.808  0.00  0.00    +0.000 C 
ATOM      2  O   UNL     1      13.930  11.992  36.667  0.00  0.00    +0.000 OA
ATOM      3  N   UNL     1      16.146  12.039  36.065  0.00  0.00    +0.000 NA
ENDROOT
BRANCH   1   6
ATOM      4  C   UNL     1      14.320  13.220  32.234  0.00  0.00    +0.000 A 
ATOM      5  C   UNL     1      14.729  12.526  33.322  0.00  0.00    +0.000 A 
ATOM      6  C   UNL     1      14.394  12.997  34.543  0.00  0.00    +0.000 A 
ATOM      7  C   UNL     1      13.658  14.155  34.557  0.00  0.00    +0.000 A 
ATOM      8  S   UNL     1      13.468  14.531  32.910  0.00  0.00    +0.000 S 
BRANCH   4  10
ATOM      9  C   UNL     1      15.787  13.656  30.331  0.00  0.00    +0.000 C 
ATOM     10  C   UNL     1      14.572  12.891  30.773  0.00  0.00    +0.000 C 
ATOM     11  C   UNL     1      14.756  11.395  30.703  0.00  0.00    +0.000 C 
ENDBRANCH   4  10
ENDBRANCH   1   6
BRANCH   3  12
ATOM     12  N   UNL     1      16.507  11.402  37.263  0.00  0.00    +0.000 NA
ATOM     13  C   UNL     1      17.248  10.373  37.290  0.00  0.00    +0.000 C 
BRANCH  13  14
ATOM     14  C   UNL     1      17.583   9.765  38.566  0.00  0.00    +0.000 A 
ATOM     15  C   UNL     1      16.736   9.864  39.652  0.00  0.00    +0.000 A 
ATOM     16  C   UNL     1      17.104   9.266  40.842  0.00  0.00    +0.000 A 
ATOM     17  C   UNL     1      18.291   8.586  40.946  0.00  0.00    +0.000 A 
ATOM     18  N   UNL     1      19.112   8.490  39.895  0.00  0.00    +0.000 NA
ATOM     19  C   UNL     1      18.753   9.071  38.740  0.00  0.00    +0.000 A 
ENDBRANCH  13  14
ENDBRANCH   3  12
TORSDOF 4
ENDMDL
MODEL 2
REMARK VINA RESULT:      -6.6      2.986      8.443
REMARK  Name = 
REMARK  4 active torsions:
REMARK  status: ('A' for Active; 'I' for Inactive)
REMARK    1  A    between atoms: C_2  and  C_4
REMARK    2  A    between atoms: C_6  and  C_7
REMARK    3  A    between atoms: N_9  and  N_10
REMARK    4  A    between atoms: C_11  and  C_12
REMARK                            x       y       z     vdW  Elec       q    Type
REMARK                         _______ _______ _______ _____ _____    ______ ____
ROOT
ATOM      1  C   UNL     1      17.089  11.224  36.965  0.00  0.00    +0.000 C 
ATOM      2  O   UNL     1      17.229  12.472  36.976  0.00  0.00    +0.000 OA
ATOM      3  N   UNL     1      16.297  10.641  35.949  0.00  0.00    +0.000 NA
ENDROOT
BRANCH   1   6
ATOM      4  C   UNL     1      17.806   9.205  39.999  0.00  0.00    +0.000 A 
ATOM      5  C   UNL     1      17.125   9.995  39.136  0.00  0.00    +0.000 A 
ATOM      6  C   UNL     1      17.734  10.361  37.987  0.00  0.00    +0.000 A 
ATOM      7  C   UNL     1      19.008   9.884  37.808  0.00  0.00    +0.000 A 
ATOM      8  S   UNL     1      19.298   8.970  39.212  0.00  0.00    +0.000 S 
BRANCH   4  10
ATOM      9  C   UNL     1      16.313   9.630  41.884  0.00  0.00    +0.000 C 
ATOM     10  C   UNL     1      17.333   8.670  41.339  0.00  0.00    +0.000 C 
ATOM     11  C   UNL     1      16.769   7.296  41.071  0.00  0.00    +0.000 C 
ENDBRANCH   4  10
ENDBRANCH   1   6
BRANCH   3  12
ATOM     12  N   UNL     1      15.690  11.463  34.985  0.00  0.00    +0.000 NA
ATOM     13  C   UNL     1      15.714  11.192  33.746  0.00  0.00    +0.000 C 
BRANCH  13  14
ATOM     14  C   UNL     1      15.064  12.087  32.805  0.00  0.00    +0.000 A 
ATOM     15  C   UNL     1      15.163  11.889  31.442  0.00  0.00    +0.000 A 
ATOM     16  C   UNL     1      14.525  12.773  30.592  0.00  0.00    +0.000 A 
ATOM     17  C   UNL     1      13.806  13.829  31.091  0.00  0.00    +0.000 A 
ATOM     18  N   UNL     1      13.710  14.022  32.411  0.00  0.00    +0.000 NA
ATOM     19  C   UNL     1      14.331  13.163  33.235  0.00  0.00    +0.000 A 
ENDBRANCH  13  14
ENDBRANCH   3  12
TORSDOF 4
ENDMDL
MODEL 3
REMARK VINA RESULT:      -6.2     19.802     22.657
REMARK  Name = 
REMARK  4 active torsions:
REMARK  status: ('A' for Active; 'I' for Inactive)
REMARK    1  A    between atoms: C_2  and  C_4
REMARK    2  A    between atoms: C_6  and  C_7
REMARK    3  A    between atoms: N_9  and  N_10
REMARK    4  A    between atoms: C_11  and  C_12
REMARK                            x       y       z     vdW  Elec       q    Type
REMARK                         _______ _______ _______ _____ _____    ______ ____
ROOT
ATOM      1  C   UNL     1      32.853  -2.207  34.428  0.00  0.00    +0.000 C 
ATOM      2  O   UNL     1      32.180  -1.866  35.433  0.00  0.00    +0.000 OA
ATOM      3  N   UNL     1      33.643  -1.231  33.780  0.00  0.00    +0.000 NA
ENDROOT
BRANCH   1   6
ATOM      4  C   UNL     1      33.426  -5.295  32.444  0.00  0.00    +0.000 A 
ATOM      5  C   UNL     1      33.516  -3.997  32.822  0.00  0.00    +0.000 A 
ATOM      6  C   UNL     1      32.832  -3.602  33.918  0.00  0.00    +0.000 A 
ATOM      7  C   UNL     1      32.101  -4.575  34.551  0.00  0.00    +0.000 A 
ATOM      8  S   UNL     1      32.389  -5.967  33.616  0.00  0.00    +0.000 S 
BRANCH   4  10
ATOM      9  C   UNL     1      33.708  -5.209  30.021  0.00  0.00    +0.000 C 
ATOM     10  C   UNL     1      34.098  -5.965  31.260  0.00  0.00    +0.000 C 
ATOM     11  C   UNL     1      35.581  -5.926  31.536  0.00  0.00    +0.000 C 
ENDBRANCH   4  10
ENDBRANCH   1   6
BRANCH   3  12
ATOM     12  N   UNL     1      33.658   0.086  34.268  0.00  0.00    +0.000 NA
ATOM     13  C   UNL     1      33.557   1.096  33.508  0.00  0.00    +0.000 C 
BRANCH  13  14
ATOM     14  C   UNL     1      33.579   2.430  34.082  0.00  0.00    +0.000 A 
ATOM     15  C   UNL     1      33.240   3.539  33.333  0.00  0.00    +0.000 A 
ATOM     16  C   UNL     1      33.280   4.785  33.930  0.00  0.00    +0.000 A 
ATOM     17  C   UNL     1      33.649   4.920  35.245  0.00  0.00    +0.000 A 
ATOM     18  N   UNL     1      33.977   3.846  35.970  0.00  0.00    +0.000 NA
ATOM     19  C   UNL     1      33.940   2.637  35.389  0.00  0.00    +0.000 A 
ENDBRANCH  13  14
ENDBRANCH   3  12
TORSDOF 4
ENDMDL
MODEL 4
REMARK VINA RESULT:      -5.8     21.763     25.564
REMARK  Name = 
REMARK  4 active torsions:
REMARK  status: ('A' for Active; 'I' for Inactive)
REMARK    1  A    between atoms: C_2  and  C_4
REMARK    2  A    between atoms: C_6  and  C_7
REMARK    3  A    between atoms: N_9  and  N_10
REMARK    4  A    between atoms: C_11  and  C_12
REMARK                            x       y       z     vdW  Elec       q    Type
REMARK                         _______ _______ _______ _____ _____    ______ ____
ROOT
ATOM      1  C   UNL     1      28.444  24.933  21.617  0.00  0.00    +0.000 C 
ATOM      2  O   UNL     1      27.468  25.580  21.161  0.00  0.00    +0.000 OA
ATOM      3  N   UNL     1      29.654  24.929  20.886  0.00  0.00    +0.000 NA
ENDROOT
BRANCH   1   6
ATOM      4  C   UNL     1      29.221  22.994  24.688  0.00  0.00    +0.000 A 
ATOM      5  C   UNL     1      29.422  23.660  23.526  0.00  0.00    +0.000 A 
ATOM      6  C   UNL     1      28.349  24.183  22.895  0.00  0.00    +0.000 A 
ATOM      7  C   UNL     1      27.138  23.982  23.509  0.00  0.00    +0.000 A 
ATOM      8  S   UNL     1      27.535  23.095  24.904  0.00  0.00    +0.000 S 
BRANCH   4  10
ATOM      9  C   UNL     1      31.470  23.221  25.611  0.00  0.00    +0.000 C 
ATOM     10  C   UNL     1      30.263  22.327  25.568  0.00  0.00    +0.000 C 
ATOM     11  C   UNL     1      29.617  22.138  26.919  0.00  0.00    +0.000 C 
ENDBRANCH   4  10
ENDBRANCH   1   6
BRANCH   3  12
ATOM     12  N   UNL     1      29.736  25.641  19.677  0.00  0.00    +0.000 NA
ATOM     13  C   UNL     1      30.044  26.870  19.631  0.00  0.00    +0.000 C 
BRANCH  13  14
ATOM     14  C   UNL     1      30.111  27.544  18.345  0.00  0.00    +0.000 A 
ATOM     15  C   UNL     1      29.031  28.244  17.846  0.00  0.00    +0.000 A 
ATOM     16  C   UNL     1      29.151  28.865  16.616  0.00  0.00    +0.000 A 
ATOM     17  C   UNL     1      30.321  28.789  15.904  0.00  0.00    +0.000 A 
ATOM     18  N   UNL     1      31.366  28.111  16.388  0.00  0.00    +0.000 NA
ATOM     19  C   UNL     1      31.249  27.507  17.581  0.00  0.00    +0.000 A 
ENDBRANCH  13  14
ENDBRANCH   3  12
TORSDOF 4
ENDMDL
MODEL 5
REMARK VINA RESULT:      -5.8     21.943     24.976
REMARK  Name = 
REMARK  4 active torsions:
REMARK  status: ('A' for Active; 'I' for Inactive)
REMARK    1  A    between atoms: C_2  and  C_4
REMARK    2  A    between atoms: C_6  and  C_7
REMARK    3  A    between atoms: N_9  and  N_10
REMARK    4  A    between atoms: C_11  and  C_12
REMARK                            x       y       z     vdW  Elec       q    Type
REMARK                         _______ _______ _______ _____ _____    ______ ____
ROOT
ATOM      1  C   UNL     1      29.662  26.817  20.388  0.00  0.00    +0.000 C 
ATOM      2  O   UNL     1      29.327  27.498  21.389  0.00  0.00    +0.000 OA
ATOM      3  N   UNL     1      29.601  25.407  20.478  0.00  0.00    +0.000 NA
ENDROOT
BRANCH   1   6
ATOM      4  C   UNL     1      30.297  27.628  16.819  0.00  0.00    +0.000 A 
ATOM      5  C   UNL     1      29.836  26.960  17.903  0.00  0.00    +0.000 A 
ATOM      6  C   UNL     1      30.113  27.459  19.127  0.00  0.00    +0.000 A 
ATOM      7  C   UNL     1      30.849  28.618  19.148  0.00  0.00    +0.000 A 
ATOM      8  S   UNL     1      31.119  28.954  17.503  0.00  0.00    +0.000 S 
BRANCH   4  10
ATOM      9  C   UNL     1      28.977  26.284  15.265  0.00  0.00    +0.000 C 
ATOM     10  C   UNL     1      30.114  27.263  15.357  0.00  0.00    +0.000 C 
ATOM     11  C   UNL     1      29.841  28.557  14.630  0.00  0.00    +0.000 C 
ENDBRANCH   4  10
ENDBRANCH   1   6
BRANCH   3  12
ATOM     12  N   UNL     1      29.173  24.806  21.673  0.00  0.00    +0.000 NA
ATOM     13  C   UNL     1      27.987  24.390  21.840  0.00  0.00    +0.000 C 
BRANCH  13  14
ATOM     14  C   UNL     1      27.613  23.778  23.103  0.00  0.00    +0.000 A 
ATOM     15  C   UNL     1      26.289  23.598  23.449  0.00  0.00    +0.000 A 
ATOM     16  C   UNL     1      25.991  23.010  24.664  0.00  0.00    +0.000 A 
ATOM     17  C   UNL     1      26.992  22.612  25.513  0.00  0.00    +0.000 A 
ATOM     18  N   UNL     1      28.274  22.786  25.179  0.00  0.00    +0.000 NA
ATOM     19  C   UNL     1      28.563  23.358  23.999  0.00  0.00    +0.000 A 
ENDBRANCH  13  14
ENDBRANCH   3  12
TORSDOF 4
ENDMDL
MODEL 6
REMARK VINA RESULT:      -5.7     22.998     24.531
REMARK  Name = 
REMARK  4 active torsions:
REMARK  status: ('A' for Active; 'I' for Inactive)
REMARK    1  A    between atoms: C_2  and  C_4
REMARK    2  A    between atoms: C_6  and  C_7
REMARK    3  A    between atoms: N_9  and  N_10
REMARK    4  A    between atoms: C_11  and  C_12
REMARK                            x       y       z     vdW  Elec       q    Type
REMARK                         _______ _______ _______ _____ _____    ______ ____
ROOT
ATOM      1  C   UNL     1      23.736  -7.958  23.402  0.00  0.00    +0.000 C 
ATOM      2  O   UNL     1      23.016  -7.205  22.701  0.00  0.00    +0.000 OA
ATOM      3  N   UNL     1      23.416  -8.119  24.770  0.00  0.00    +0.000 NA
ENDROOT
BRANCH   1   6
ATOM      4  C   UNL     1      27.116  -8.853  22.147  0.00  0.00    +0.000 A 
ATOM      5  C   UNL     1      26.121  -8.108  22.686  0.00  0.00    +0.000 A 
ATOM      6  C   UNL     1      24.903  -8.674  22.826  0.00  0.00    +0.000 A 
ATOM      7  C   UNL     1      24.794  -9.974  22.399  0.00  0.00    +0.000 A 
ATOM      8  S   UNL     1      26.355 -10.344  21.835  0.00  0.00    +0.000 S 
BRANCH   4  10
ATOM      9  C   UNL     1      28.594  -6.937  21.819  0.00  0.00    +0.000 C 
ATOM     10  C   UNL     1      28.554  -8.438  21.894  0.00  0.00    +0.000 C 
ATOM     11  C   UNL     1      29.363  -8.996  23.039  0.00  0.00    +0.000 C 
ENDBRANCH   4  10
ENDBRANCH   1   6
BRANCH   3  12
ATOM     12  N   UNL     1      22.311  -7.438  25.308  0.00  0.00    +0.000 NA
ATOM     13  C   UNL     1      21.186  -7.997  25.483  0.00  0.00    +0.000 C 
BRANCH  13  14
ATOM     14  C   UNL     1      20.087  -7.233  26.046  0.00  0.00    +0.000 A 
ATOM     15  C   UNL     1      19.974  -5.874  25.830  0.00  0.00    +0.000 A 
ATOM     16  C   UNL     1      18.907  -5.196  26.390  0.00  0.00    +0.000 A 
ATOM     17  C   UNL     1      17.975  -5.860  27.147  0.00  0.00    +0.000 A 
ATOM     18  N   UNL     1      18.084  -7.176  27.356  0.00  0.00    +0.000 NA
ATOM     19  C   UNL     1      19.121  -7.833  26.813  0.00  0.00    +0.000 A 
ENDBRANCH  13  14
ENDBRANCH   3  12
TORSDOF 4
ENDMDL
MODEL 7
REMARK VINA RESULT:      -5.7     21.848     24.721
REMARK  Name = 
REMARK  4 active torsions:
REMARK  status: ('A' for Active; 'I' for Inactive)
REMARK    1  A    between atoms: C_2  and  C_4
REMARK    2  A    between atoms: C_6  and  C_7
REMARK    3  A    between atoms: N_9  and  N_10
REMARK    4  A    between atoms: C_11  and  C_12
REMARK                            x       y       z     vdW  Elec       q    Type
REMARK                         _______ _______ _______ _____ _____    ______ ____
ROOT
ATOM      1  C   UNL     1      29.599  26.556  20.658  0.00  0.00    +0.000 C 
ATOM      2  O   UNL     1      29.610  27.154  21.762  0.00  0.00    +0.000 OA
ATOM      3  N   UNL     1      29.682  25.145  20.652  0.00  0.00    +0.000 NA
ENDROOT
BRANCH   1   6
ATOM      4  C   UNL     1      29.721  27.529  17.075  0.00  0.00    +0.000 A 
ATOM      5  C   UNL     1      29.853  26.764  18.184  0.00  0.00    +0.000 A 
ATOM      6  C   UNL     1      29.500  27.297  19.374  0.00  0.00    +0.000 A 
ATOM      7  C   UNL     1      29.034  28.587  19.337  0.00  0.00    +0.000 A 
ATOM      8  S   UNL     1      29.106  28.995  17.688  0.00  0.00    +0.000 S 
BRANCH   4  10
ATOM      9  C   UNL     1      29.043  26.129  15.193  0.00  0.00    +0.000 C 
ATOM     10  C   UNL     1      30.049  27.151  15.642  0.00  0.00    +0.000 C 
ATOM     11  C   UNL     1      29.991  28.430  14.843  0.00  0.00    +0.000 C 
ENDBRANCH   4  10
ENDBRANCH   1   6
BRANCH   3  12
ATOM     12  N   UNL     1      29.775  24.450  21.869  0.00  0.00    +0.000 NA
ATOM     13  C   UNL     1      28.767  24.226  22.605  0.00  0.00    +0.000 C 
BRANCH  13  14
ATOM     14  C   UNL     1      28.937  23.501  23.852  0.00  0.00    +0.000 A 
ATOM     15  C   UNL     1      30.177  23.048  24.255  0.00  0.00    +0.000 A 
ATOM     16  C   UNL     1      30.281  22.363  25.451  0.00  0.00    +0.000 A 
ATOM     17  C   UNL     1      29.172  22.136  26.225  0.00  0.00    +0.000 A 
ATOM     18  N   UNL     1      27.971  22.573  25.836  0.00  0.00    +0.000 NA
ATOM     19  C   UNL     1      27.871  23.238  24.674  0.00  0.00    +0.000 A 
ENDBRANCH  13  14
ENDBRANCH   3  12
TORSDOF 4
ENDMDL
MODEL 8
REMARK VINA RESULT:      -5.6      4.864      7.995
REMARK  Name = 
REMARK  4 active torsions:
REMARK  status: ('A' for Active; 'I' for Inactive)
REMARK    1  A    between atoms: C_2  and  C_4
REMARK    2  A    between atoms: C_6  and  C_7
REMARK    3  A    between atoms: N_9  and  N_10
REMARK    4  A    between atoms: C_11  and  C_12
REMARK                            x       y       z     vdW  Elec       q    Type
REMARK                         _______ _______ _______ _____ _____    ______ ____
ROOT
ATOM      1  C   UNL     1      20.228  12.485  38.092  0.00  0.00    +0.000 C 
ATOM      2  O   UNL     1      19.777  13.657  38.083  0.00  0.00    +0.000 OA
ATOM      3  N   UNL     1      19.330  11.413  37.889  0.00  0.00    +0.000 NA
ENDROOT
BRANCH   1   6
ATOM      4  C   UNL     1      23.660  11.074  37.933  0.00  0.00    +0.000 A 
ATOM      5  C   UNL     1      22.344  11.236  37.659  0.00  0.00    +0.000 A 
ATOM      6  C   UNL     1      21.672  12.212  38.308  0.00  0.00    +0.000 A 
ATOM      7  C   UNL     1      22.407  12.955  39.198  0.00  0.00    +0.000 A 
ATOM      8  S   UNL     1      23.965  12.280  39.096  0.00  0.00    +0.000 S 
BRANCH   4  10
ATOM      9  C   UNL     1      24.537   8.807  38.167  0.00  0.00    +0.000 C 
ATOM     10  C   UNL     1      24.614  10.055  37.334  0.00  0.00    +0.000 C 
ATOM     11  C   UNL     1      24.167   9.844  35.908  0.00  0.00    +0.000 C 
ENDBRANCH   4  10
ENDBRANCH   1   6
BRANCH   3  12
ATOM     12  N   UNL     1      17.966  11.679  37.686  0.00  0.00    +0.000 NA
ATOM     13  C   UNL     1      17.085  10.767  37.693  0.00  0.00    +0.000 C 
BRANCH  13  14
ATOM     14  C   UNL     1      15.692  11.115  37.475  0.00  0.00    +0.000 A 
ATOM     15  C   UNL     1      14.739  10.903  38.451  0.00  0.00    +0.000 A 
ATOM     16  C   UNL     1      13.427  11.252  38.190  0.00  0.00    +0.000 A 
ATOM     17  C   UNL     1      13.076  11.801  36.982  0.00  0.00    +0.000 A 
ATOM     18  N   UNL     1      13.999  12.006  36.037  0.00  0.00    +0.000 NA
ATOM     19  C   UNL     1      15.272  11.665  36.291  0.00  0.00    +0.000 A 
ENDBRANCH  13  14
ENDBRANCH   3  12
TORSDOF 4
ENDMDL
MODEL 9
REMARK VINA RESULT:      -5.6     21.627     25.524
REMARK  Name = 
REMARK  4 active torsions:
REMARK  status: ('A' for Active; 'I' for Inactive)
REMARK    1  A    between atoms: C_2  and  C_4
REMARK    2  A    between atoms: C_6  and  C_7
REMARK    3  A    between atoms: N_9  and  N_10
REMARK    4  A    between atoms: C_11  and  C_12
REMARK                            x       y       z     vdW  Elec       q    Type
REMARK                         _______ _______ _______ _____ _____    ______ ____
ROOT
ATOM      1  C   UNL     1      28.782  25.037  21.590  0.00  0.00    +0.000 C 
ATOM      2  O   UNL     1      27.716  25.621  21.273  0.00  0.00    +0.000 OA
ATOM      3  N   UNL     1      29.873  25.084  20.692  0.00  0.00    +0.000 NA
ENDROOT
BRANCH   1   6
ATOM      4  C   UNL     1      28.090  23.204  24.745  0.00  0.00    +0.000 A 
ATOM      5  C   UNL     1      27.854  23.856  23.583  0.00  0.00    +0.000 A 
ATOM      6  C   UNL     1      28.914  24.309  22.878  0.00  0.00    +0.000 A 
ATOM      7  C   UNL     1      30.148  24.056  23.423  0.00  0.00    +0.000 A 
ATOM      8  S   UNL     1      29.789  23.219  24.860  0.00  0.00    +0.000 S 
BRANCH   4  10
ATOM      9  C   UNL     1      27.348  23.158  27.071  0.00  0.00    +0.000 C 
ATOM     10  C   UNL     1      27.069  22.610  25.700  0.00  0.00    +0.000 C 
ATOM     11  C   UNL     1      25.713  23.006  25.169  0.00  0.00    +0.000 C 
ENDBRANCH   4  10
ENDBRANCH   1   6
BRANCH   3  12
ATOM     12  N   UNL     1      29.741  25.775  19.476  0.00  0.00    +0.000 NA
ATOM     13  C   UNL     1      30.147  26.966  19.321  0.00  0.00    +0.000 C 
BRANCH  13  14
ATOM     14  C   UNL     1      29.978  27.620  18.035  0.00  0.00    +0.000 A 
ATOM     15  C   UNL     1      30.923  27.492  17.037  0.00  0.00    +0.000 A 
ATOM     16  C   UNL     1      30.711  28.136  15.832  0.00  0.00    +0.000 A 
ATOM     17  C   UNL     1      29.582  28.889  15.630  0.00  0.00    +0.000 A 
ATOM     18  N   UNL     1      28.667  29.013  16.596  0.00  0.00    +0.000 NA
ATOM     19  C   UNL     1      28.874  28.388  17.766  0.00  0.00    +0.000 A 
ENDBRANCH  13  14
ENDBRANCH   3  12
TORSDOF 4
ENDMDL
MODEL 10
REMARK VINA RESULT:      -5.5     22.530     25.571
REMARK  Name = 
REMARK  4 active torsions:
REMARK  status: ('A' for Active; 'I' for Inactive)
REMARK    1  A    between atoms: C_2  and  C_4
REMARK    2  A    between atoms: C_6  and  C_7
REMARK    3  A    between atoms: N_9  and  N_10
REMARK    4  A    between atoms: C_11  and  C_12
REMARK                            x       y       z     vdW  Elec       q    Type
REMARK                         _______ _______ _______ _____ _____    ______ ____
ROOT
ATOM      1  C   UNL     1      29.771  26.759  20.006  0.00  0.00    +0.000 C 
ATOM      2  O   UNL     1      29.354  27.532  20.903  0.00  0.00    +0.000 OA
ATOM      3  N   UNL     1      29.730  25.366  20.240  0.00  0.00    +0.000 NA
ENDROOT
BRANCH   1   6
ATOM      4  C   UNL     1      31.751  28.533  17.411  0.00  0.00    +0.000 A 
ATOM      5  C   UNL     1      31.352  28.122  18.637  0.00  0.00    +0.000 A 
ATOM      6  C   UNL     1      30.299  27.279  18.718  0.00  0.00    +0.000 A 
ATOM      7  C   UNL     1      29.730  26.917  17.523  0.00  0.00    +0.000 A 
ATOM      8  S   UNL     1      30.660  27.746  16.366  0.00  0.00    +0.000 S 
BRANCH   4  10
ATOM      9  C   UNL     1      32.491  30.859  17.479  0.00  0.00    +0.000 C 
ATOM     10  C   UNL     1      32.897  29.470  17.073  0.00  0.00    +0.000 C 
ATOM     11  C   UNL     1      34.098  28.958  17.830  0.00  0.00    +0.000 C 
ENDBRANCH   4  10
ENDBRANCH   1   6
BRANCH   3  12
ATOM     12  N   UNL     1      29.229  24.882  21.459  0.00  0.00    +0.000 NA
ATOM     13  C   UNL     1      28.140  24.237  21.541  0.00  0.00    +0.000 C 
BRANCH  13  14
ATOM     14  C   UNL     1      27.683  23.765  22.837  0.00  0.00    +0.000 A 
ATOM     15  C   UNL     1      26.338  23.612  23.110  0.00  0.00    +0.000 A 
ATOM     16  C   UNL     1      25.959  23.161  24.360  0.00  0.00    +0.000 A 
ATOM     17  C   UNL     1      26.901  22.868  25.314  0.00  0.00    +0.000 A 
ATOM     18  N   UNL     1      28.203  23.016  25.050  0.00  0.00    +0.000 NA
ATOM     19  C   UNL     1      28.570  23.456  23.836  0.00  0.00    +0.000 A 
ENDBRANCH  13  14
ENDBRANCH   3  12
TORSDOF 4
ENDMDL
