MODEL 1
REMARK VINA RESULT:      -6.7      0.000      0.000
REMARK  Name = 
REMARK  3 active torsions:
REMARK  status: ('A' for Active; 'I' for Inactive)
REMARK    1  A    between atoms: C_4  and  N_5
REMARK    2  A    between atoms: N_5  and  C_6
REMARK    3  A    between atoms: C_10  and  N_11
REMARK                            x       y       z     vdW  Elec       q    Type
REMARK                         _______ _______ _______ _____ _____    ______ ____
ROOT
ATOM      1  C   UNL     1      34.587  25.104  24.595  0.00  0.00    +0.000 C 
ATOM      2  C   UNL     1      33.446  24.510  25.335  0.00  0.00    +0.000 A 
ATOM      3  N   UNL     1      32.442  23.863  24.766  0.00  0.00    +0.000 NA
ATOM      4  C   UNL     1      31.404  23.317  25.384  0.00  0.00    +0.000 A 
ATOM      5  C   UNL     1      31.319  23.411  26.784  0.00  0.00    +0.000 A 
ATOM      6  C   UNL     1      30.340  22.919  27.581  0.00  0.00    +0.000 A 
ATOM      7  C   UNL     1      29.111  22.148  27.101  0.00  0.00    +0.000 C 
ATOM      8  C   UNL     1      30.468  23.132  28.927  0.00  0.00    +0.000 A 
ATOM      9  C   UNL     1      29.564  22.718  30.054  0.00  0.00    +0.000 C 
ATOM     10  S   UNL     1      31.929  24.002  29.039  0.00  0.00    +0.000 S 
ATOM     11  C   UNL     1      32.343  24.075  27.389  0.00  0.00    +0.000 A 
ATOM     12  N   UNL     1      33.379  24.611  26.695  0.00  0.00    +0.000 NA
ENDROOT
BRANCH   4  13
ATOM     13  N   UNL     1      30.433  22.667  24.605  0.00  0.00    +0.000 NA
BRANCH  13  14
ATOM     14  C   UNL     1      29.484  23.359  23.803  0.00  0.00    +0.000 A 
ATOM     15  C   UNL     1      29.966  24.366  22.983  0.00  0.00    +0.000 A 
ATOM     16  C   UNL     1      29.067  25.043  22.205  0.00  0.00    +0.000 A 
ATOM     17  C   UNL     1      27.735  24.723  22.247  0.00  0.00    +0.000 A 
ATOM     18  C   UNL     1      27.243  23.728  23.054  0.00  0.00    +0.000 A 
ATOM     19  C   UNL     1      28.142  23.042  23.839  0.00  0.00    +0.000 A 
BRANCH  18  20
ATOM     20  N   UNL     1      25.846  23.398  23.091  0.00  0.00    +0.000 N 
ATOM     21  O   UNL     1      25.355  22.749  22.170  0.00  0.00    +0.000 OA
ATOM     22  O   UNL     1      25.114  23.823  24.159  0.00  0.00    +0.000 OA
ENDBRANCH  18  20
ENDBRANCH  13  14
ENDBRANCH   4  13
TORSDOF 3
ENDMDL
MODEL 2
REMARK VINA RESULT:      -6.5      2.086      2.338
REMARK  Name = 
REMARK  3 active torsions:
REMARK  status: ('A' for Active; 'I' for Inactive)
REMARK    1  A    between atoms: C_4  and  N_5
REMARK    2  A    between atoms: N_5  and  C_6
REMARK    3  A    between atoms: C_10  and  N_11
REMARK                            x       y       z     vdW  Elec       q    Type
REMARK                         _______ _______ _______ _____ _____    ______ ____
ROOT
ATOM      1  C   UNL     1      34.120  25.014  24.781  0.00  0.00    +0.000 C 
ATOM      2  C   UNL     1      32.934  24.440  25.463  0.00  0.00    +0.000 A 
ATOM      3  N   UNL     1      31.942  23.820  24.844  0.00  0.00    +0.000 NA
ATOM      4  C   UNL     1      30.866  23.293  25.411  0.00  0.00    +0.000 A 
ATOM      5  C   UNL     1      30.720  23.377  26.806  0.00  0.00    +0.000 A 
ATOM      6  C   UNL     1      29.697  22.900  27.554  0.00  0.00    +0.000 A 
ATOM      7  C   UNL     1      28.474  22.162  27.012  0.00  0.00    +0.000 C 
ATOM      8  C   UNL     1      29.770  23.099  28.906  0.00  0.00    +0.000 A 
ATOM      9  C   UNL     1      28.807  22.695  29.989  0.00  0.00    +0.000 C 
ATOM     10  S   UNL     1      31.243  23.934  29.091  0.00  0.00    +0.000 S 
ATOM     11  C   UNL     1      31.731  24.012  27.462  0.00  0.00    +0.000 A 
ATOM     12  N   UNL     1      32.809  24.531  26.820  0.00  0.00    +0.000 NA
ENDROOT
BRANCH   4  13
ATOM     13  N   UNL     1      29.916  22.672  24.583  0.00  0.00    +0.000 NA
BRANCH  13  14
ATOM     14  C   UNL     1      29.071  23.389  23.691  0.00  0.00    +0.000 A 
ATOM     15  C   UNL     1      27.708  23.173  23.805  0.00  0.00    +0.000 A 
ATOM     16  C   UNL     1      26.879  23.854  22.955  0.00  0.00    +0.000 A 
ATOM     17  C   UNL     1      27.399  24.717  22.026  0.00  0.00    +0.000 A 
ATOM     18  C   UNL     1      28.747  24.941  21.901  0.00  0.00    +0.000 A 
ATOM     19  C   UNL     1      29.586  24.260  22.754  0.00  0.00    +0.000 A 
BRANCH  18  20
ATOM     20  N   UNL     1      29.281  25.848  20.926  0.00  0.00    +0.000 N 
ATOM     21  O   UNL     1      29.849  25.401  19.932  0.00  0.00    +0.000 OA
ATOM     22  O   UNL     1      29.135  27.186  21.144  0.00  0.00    +0.000 OA
ENDBRANCH  18  20
ENDBRANCH  13  14
ENDBRANCH   4  13
TORSDOF 3
ENDMDL
MODEL 3
REMARK VINA RESULT:      -6.4      3.101      4.513
REMARK  Name = 
REMARK  3 active torsions:
REMARK  status: ('A' for Active; 'I' for Inactive)
REMARK    1  A    between atoms: C_4  and  N_5
REMARK    2  A    between atoms: N_5  and  C_6
REMARK    3  A    between atoms: C_10  and  N_11
REMARK                            x       y       z     vdW  Elec       q    Type
REMARK                         _______ _______ _______ _____ _____    ______ ____
ROOT
ATOM      1  C   UNL     1      25.316  25.873  29.367  0.00  0.00    +0.000 C 
ATOM      2  C   UNL     1      26.513  25.065  29.027  0.00  0.00    +0.000 A 
ATOM      3  N   UNL     1      26.557  24.165  28.057  0.00  0.00    +0.000 NA
ATOM      4  C   UNL     1      27.600  23.422  27.718  0.00  0.00    +0.000 A 
ATOM      5  C   UNL     1      28.803  23.569  28.431  0.00  0.00    +0.000 A 
ATOM      6  C   UNL     1      29.964  22.901  28.228  0.00  0.00    +0.000 A 
ATOM      7  C   UNL     1      30.196  21.833  27.160  0.00  0.00    +0.000 C 
ATOM      8  C   UNL     1      31.012  23.214  29.050  0.00  0.00    +0.000 A 
ATOM      9  C   UNL     1      32.409  22.657  29.078  0.00  0.00    +0.000 C 
ATOM     10  S   UNL     1      30.356  24.412  30.068  0.00  0.00    +0.000 S 
ATOM     11  C   UNL     1      28.779  24.491  29.433  0.00  0.00    +0.000 A 
ATOM     12  N   UNL     1      27.673  25.221  29.729  0.00  0.00    +0.000 NA
ENDROOT
BRANCH   4  13
ATOM     13  N   UNL     1      27.453  22.515  26.655  0.00  0.00    +0.000 NA
BRANCH  13  14
ATOM     14  C   UNL     1      27.314  22.919  25.298  0.00  0.00    +0.000 A 
ATOM     15  C   UNL     1      26.034  22.932  24.771  0.00  0.00    +0.000 A 
ATOM     16  C   UNL     1      25.881  23.317  23.467  0.00  0.00    +0.000 A 
ATOM     17  C   UNL     1      26.973  23.676  22.720  0.00  0.00    +0.000 A 
ATOM     18  C   UNL     1      28.248  23.669  23.228  0.00  0.00    +0.000 A 
ATOM     19  C   UNL     1      28.408  23.283  24.539  0.00  0.00    +0.000 A 
BRANCH  18  20
ATOM     20  N   UNL     1      29.384  24.049  22.437  0.00  0.00    +0.000 N 
ATOM     21  O   UNL     1      30.461  24.259  22.990  0.00  0.00    +0.000 OA
ATOM     22  O   UNL     1      29.221  24.159  21.088  0.00  0.00    +0.000 OA
ENDBRANCH  18  20
ENDBRANCH  13  14
ENDBRANCH   4  13
TORSDOF 3
ENDMDL
MODEL 4
REMARK VINA RESULT:      -6.3      2.711      4.269
REMARK  Name = 
REMARK  3 active torsions:
REMARK  status: ('A' for Active; 'I' for Inactive)
REMARK    1  A    between atoms: C_4  and  N_5
REMARK    2  A    between atoms: N_5  and  C_6
REMARK    3  A    between atoms: C_10  and  N_11
REMARK                            x       y       z     vdW  Elec       q    Type
REMARK                         _______ _______ _______ _____ _____    ______ ____
ROOT
ATOM      1  C   UNL     1      25.998  24.109  29.114  0.00  0.00    +0.000 C 
ATOM      2  C   UNL     1      27.393  23.633  29.279  0.00  0.00    +0.000 A 
ATOM      3  N   UNL     1      28.099  23.040  28.329  0.00  0.00    +0.000 NA
ATOM      4  C   UNL     1      29.345  22.599  28.431  0.00  0.00    +0.000 A 
ATOM      5  C   UNL     1      30.025  22.756  29.651  0.00  0.00    +0.000 A 
ATOM      6  C   UNL     1      31.291  22.371  29.939  0.00  0.00    +0.000 A 
ATOM      7  C   UNL     1      32.247  21.676  28.971  0.00  0.00    +0.000 C 
ATOM      8  C   UNL     1      31.747  22.629  31.204  0.00  0.00    +0.000 A 
ATOM      9  C   UNL     1      33.084  22.328  31.822  0.00  0.00    +0.000 C 
ATOM     10  S   UNL     1      30.414  23.389  31.943  0.00  0.00    +0.000 S 
ATOM     11  C   UNL     1      29.316  23.364  30.642  0.00  0.00    +0.000 A 
ATOM     12  N   UNL     1      28.039  23.793  30.471  0.00  0.00    +0.000 NA
ENDROOT
BRANCH   4  13
ATOM     13  N   UNL     1      29.929  21.993  27.307  0.00  0.00    +0.000 NA
BRANCH  13  14
ATOM     14  C   UNL     1      30.102  22.658  26.062  0.00  0.00    +0.000 A 
ATOM     15  C   UNL     1      31.324  23.271  25.839  0.00  0.00    +0.000 A 
ATOM     16  C   UNL     1      31.509  23.916  24.647  0.00  0.00    +0.000 A 
ATOM     17  C   UNL     1      30.505  23.947  23.714  0.00  0.00    +0.000 A 
ATOM     18  C   UNL     1      29.289  23.345  23.920  0.00  0.00    +0.000 A 
ATOM     19  C   UNL     1      29.098  22.693  25.117  0.00  0.00    +0.000 A 
BRANCH  18  20
ATOM     20  N   UNL     1      28.245  23.381  22.936  0.00  0.00    +0.000 N 
ATOM     21  O   UNL     1      28.504  23.751  21.794  0.00  0.00    +0.000 OA
ATOM     22  O   UNL     1      26.993  22.997  23.315  0.00  0.00    +0.000 OA
ENDBRANCH  18  20
ENDBRANCH  13  14
ENDBRANCH   4  13
TORSDOF 3
ENDMDL
MODEL 5
REMARK VINA RESULT:      -6.3     32.886     34.609
REMARK  Name = 
REMARK  3 active torsions:
REMARK  status: ('A' for Active; 'I' for Inactive)
REMARK    1  A    between atoms: C_4  and  N_5
REMARK    2  A    between atoms: N_5  and  C_6
REMARK    3  A    between atoms: C_10  and  N_11
REMARK                            x       y       z     vdW  Elec       q    Type
REMARK                         _______ _______ _______ _____ _____    ______ ____
ROOT
ATOM      1  C   UNL     1      18.543  -4.698  26.548  0.00  0.00    +0.000 C 
ATOM      2  C   UNL     1      19.304  -5.945  26.287  0.00  0.00    +0.000 A 
ATOM      3  N   UNL     1      18.943  -7.145  26.713  0.00  0.00    +0.000 NA
ATOM      4  C   UNL     1      19.589  -8.283  26.505  0.00  0.00    +0.000 A 
ATOM      5  C   UNL     1      20.782  -8.263  25.761  0.00  0.00    +0.000 A 
ATOM      6  C   UNL     1      21.572  -9.318  25.450  0.00  0.00    +0.000 A 
ATOM      7  C   UNL     1      21.313 -10.768  25.855  0.00  0.00    +0.000 C 
ATOM      8  C   UNL     1      22.693  -9.058  24.709  0.00  0.00    +0.000 A 
ATOM      9  C   UNL     1      23.754 -10.000  24.211  0.00  0.00    +0.000 C 
ATOM     10  S   UNL     1      22.614  -7.373  24.474  0.00  0.00    +0.000 S 
ATOM     11  C   UNL     1      21.171  -7.037  25.313  0.00  0.00    +0.000 A 
ATOM     12  N   UNL     1      20.461  -5.907  25.562  0.00  0.00    +0.000 NA
ENDROOT
BRANCH   4  13
ATOM     13  N   UNL     1      19.047  -9.462  27.041  0.00  0.00    +0.000 NA
BRANCH  13  14
ATOM     14  C   UNL     1      18.907  -9.693  28.437  0.00  0.00    +0.000 A 
ATOM     15  C   UNL     1      20.055  -9.613  29.208  0.00  0.00    +0.000 A 
ATOM     16  C   UNL     1      19.939  -9.832  30.554  0.00  0.00    +0.000 A 
ATOM     17  C   UNL     1      18.718 -10.120  31.106  0.00  0.00    +0.000 A 
ATOM     18  C   UNL     1      17.572 -10.203  30.355  0.00  0.00    +0.000 A 
ATOM     19  C   UNL     1      17.682  -9.983  29.001  0.00  0.00    +0.000 A 
BRANCH  18  20
ATOM     20  N   UNL     1      16.297 -10.504  30.942  0.00  0.00    +0.000 N 
ATOM     21  O   UNL     1      15.478 -11.161  30.303  0.00  0.00    +0.000 OA
ATOM     22  O   UNL     1      16.045 -10.045  32.201  0.00  0.00    +0.000 OA
ENDBRANCH  18  20
ENDBRANCH  13  14
ENDBRANCH   4  13
TORSDOF 3
ENDMDL
MODEL 6
REMARK VINA RESULT:      -6.2     18.660     20.432
REMARK  Name = 
REMARK  3 active torsions:
REMARK  status: ('A' for Active; 'I' for Inactive)
REMARK    1  A    between atoms: C_4  and  N_5
REMARK    2  A    between atoms: N_5  and  C_6
REMARK    3  A    between atoms: C_10  and  N_11
REMARK                            x       y       z     vdW  Elec       q    Type
REMARK                         _______ _______ _______ _____ _____    ______ ____
ROOT
ATOM      1  C   UNL     1      20.948  15.174  39.178  0.00  0.00    +0.000 C 
ATOM      2  C   UNL     1      21.664  13.944  38.761  0.00  0.00    +0.000 A 
ATOM      3  N   UNL     1      21.069  12.843  38.327  0.00  0.00    +0.000 NA
ATOM      4  C   UNL     1      21.665  11.723  37.944  0.00  0.00    +0.000 A 
ATOM      5  C   UNL     1      23.069  11.650  37.987  0.00  0.00    +0.000 A 
ATOM      6  C   UNL     1      23.845  10.596  37.638  0.00  0.00    +0.000 A 
ATOM      7  C   UNL     1      23.334   9.253  37.119  0.00  0.00    +0.000 C 
ATOM      8  C   UNL     1      25.199  10.754  37.762  0.00  0.00    +0.000 A 
ATOM      9  C   UNL     1      26.310   9.786  37.462  0.00  0.00    +0.000 C 
ATOM     10  S   UNL     1      25.346  12.345  38.355  0.00  0.00    +0.000 S 
ATOM     11  C   UNL     1      23.700  12.772  38.431  0.00  0.00    +0.000 A 
ATOM     12  N   UNL     1      23.027  13.889  38.808  0.00  0.00    +0.000 NA
ENDROOT
BRANCH   4  13
ATOM     13  N   UNL     1      20.861  10.656  37.513  0.00  0.00    +0.000 NA
BRANCH  13  14
ATOM     14  C   UNL     1      19.604  10.339  38.099  0.00  0.00    +0.000 A 
ATOM     15  C   UNL     1      19.622   9.596  39.268  0.00  0.00    +0.000 A 
ATOM     16  C   UNL     1      18.423   9.282  39.845  0.00  0.00    +0.000 A 
ATOM     17  C   UNL     1      17.249   9.697  39.272  0.00  0.00    +0.000 A 
ATOM     18  C   UNL     1      17.214  10.434  38.115  0.00  0.00    +0.000 A 
ATOM     19  C   UNL     1      18.418  10.754  37.529  0.00  0.00    +0.000 A 
BRANCH  18  20
ATOM     20  N   UNL     1      15.980  10.865  37.523  0.00  0.00    +0.000 N 
ATOM     21  O   UNL     1      15.912  11.010  36.305  0.00  0.00    +0.000 OA
ATOM     22  O   UNL     1      14.919  11.099  38.348  0.00  0.00    +0.000 OA
ENDBRANCH  18  20
ENDBRANCH  13  14
ENDBRANCH   4  13
TORSDOF 3
ENDMDL
MODEL 7
REMARK VINA RESULT:      -6.1     20.960     22.543
REMARK  Name = 
REMARK  3 active torsions:
REMARK  status: ('A' for Active; 'I' for Inactive)
REMARK    1  A    between atoms: C_4  and  N_5
REMARK    2  A    between atoms: N_5  and  C_6
REMARK    3  A    between atoms: C_10  and  N_11
REMARK                            x       y       z     vdW  Elec       q    Type
REMARK                         _______ _______ _______ _____ _____    ______ ____
ROOT
ATOM      1  C   UNL     1      27.118   0.225  16.074  0.00  0.00    +0.000 C 
ATOM      2  C   UNL     1      25.978   1.011  16.606  0.00  0.00    +0.000 A 
ATOM      3  N   UNL     1      26.101   2.125  17.310  0.00  0.00    +0.000 NA
ATOM      4  C   UNL     1      25.114   2.859  17.804  0.00  0.00    +0.000 A 
ATOM      5  C   UNL     1      23.786   2.452  17.584  0.00  0.00    +0.000 A 
ATOM      6  C   UNL     1      22.658   3.070  18.009  0.00  0.00    +0.000 A 
ATOM      7  C   UNL     1      22.609   4.358  18.828  0.00  0.00    +0.000 C 
ATOM      8  C   UNL     1      21.466   2.486  17.673  0.00  0.00    +0.000 A 
ATOM      9  C   UNL     1      20.062   2.921  17.990  0.00  0.00    +0.000 C 
ATOM     10  S   UNL     1      21.948   1.113  16.787  0.00  0.00    +0.000 S 
ATOM     11  C   UNL     1      23.638   1.307  16.861  0.00  0.00    +0.000 A 
ATOM     12  N   UNL     1      24.694   0.601  16.383  0.00  0.00    +0.000 NA
ENDROOT
BRANCH   4  13
ATOM     13  N   UNL     1      25.444   4.015  18.529  0.00  0.00    +0.000 NA
BRANCH  13  14
ATOM     14  C   UNL     1      26.295   5.037  18.024  0.00  0.00    +0.000 A 
ATOM     15  C   UNL     1      27.164   5.635  18.921  0.00  0.00    +0.000 A 
ATOM     16  C   UNL     1      27.990   6.620  18.453  0.00  0.00    +0.000 A 
ATOM     17  C   UNL     1      27.945   6.992  17.135  0.00  0.00    +0.000 A 
ATOM     18  C   UNL     1      27.089   6.410  16.234  0.00  0.00    +0.000 A 
ATOM     19  C   UNL     1      26.256   5.417  16.698  0.00  0.00    +0.000 A 
BRANCH  18  20
ATOM     20  N   UNL     1      27.050   6.805  14.855  0.00  0.00    +0.000 N 
ATOM     21  O   UNL     1      28.005   6.548  14.126  0.00  0.00    +0.000 OA
ATOM     22  O   UNL     1      25.941   7.457  14.405  0.00  0.00    +0.000 OA
ENDBRANCH  18  20
ENDBRANCH  13  14
ENDBRANCH   4  13
TORSDOF 3
ENDMDL
MODEL 8
REMARK VINA RESULT:      -6.1     15.182     16.306
REMARK  Name = 
REMARK  3 active torsions:
REMARK  status: ('A' for Active; 'I' for Inactive)
REMARK    1  A    between atoms: C_4  and  N_5
REMARK    2  A    between atoms: N_5  and  C_6
REMARK    3  A    between atoms: C_10  and  N_11
REMARK                            x       y       z     vdW  Elec       q    Type
REMARK                         _______ _______ _______ _____ _____    ______ ____
ROOT
ATOM      1  C   UNL     1      20.653  26.252  36.187  0.00  0.00    +0.000 C 
ATOM      2  C   UNL     1      20.296  24.927  36.751  0.00  0.00    +0.000 A 
ATOM      3  N   UNL     1      20.013  23.857  36.026  0.00  0.00    +0.000 NA
ATOM      4  C   UNL     1      19.689  22.656  36.485  0.00  0.00    +0.000 A 
ATOM      5  C   UNL     1      19.627  22.452  37.874  0.00  0.00    +0.000 A 
ATOM      6  C   UNL     1      19.316  21.303  38.521  0.00  0.00    +0.000 A 
ATOM      7  C   UNL     1      18.964  19.976  37.850  0.00  0.00    +0.000 C 
ATOM      8  C   UNL     1      19.320  21.340  39.889  0.00  0.00    +0.000 A 
ATOM      9  C   UNL     1      19.022  20.248  40.879  0.00  0.00    +0.000 C 
ATOM     10  S   UNL     1      19.749  22.953  40.228  0.00  0.00    +0.000 S 
ATOM     11  C   UNL     1      19.915  23.542  38.639  0.00  0.00    +0.000 A 
ATOM     12  N   UNL     1      20.240  24.746  38.103  0.00  0.00    +0.000 NA
ENDROOT
BRANCH   4  13
ATOM     13  N   UNL     1      19.421  21.639  35.554  0.00  0.00    +0.000 NA
BRANCH  13  14
ATOM     14  C   UNL     1      18.212  21.562  34.808  0.00  0.00    +0.000 A 
ATOM     15  C   UNL     1      18.203  20.722  33.708  0.00  0.00    +0.000 A 
ATOM     16  C   UNL     1      17.048  20.636  32.978  0.00  0.00    +0.000 A 
ATOM     17  C   UNL     1      15.945  21.365  33.339  0.00  0.00    +0.000 A 
ATOM     18  C   UNL     1      15.939  22.202  34.427  0.00  0.00    +0.000 A 
ATOM     19  C   UNL     1      17.097  22.292  35.165  0.00  0.00    +0.000 A 
BRANCH  18  20
ATOM     20  N   UNL     1      14.779  22.961  34.798  0.00  0.00    +0.000 N 
ATOM     21  O   UNL     1      14.054  23.423  33.920  0.00  0.00    +0.000 OA
ATOM     22  O   UNL     1      14.525  23.138  36.126  0.00  0.00    +0.000 OA
ENDBRANCH  18  20
ENDBRANCH  13  14
ENDBRANCH   4  13
TORSDOF 3
ENDMDL
MODEL 9
REMARK VINA RESULT:      -6.0     17.549     19.861
REMARK  Name = 
REMARK  3 active torsions:
REMARK  status: ('A' for Active; 'I' for Inactive)
REMARK    1  A    between atoms: C_4  and  N_5
REMARK    2  A    between atoms: N_5  and  C_6
REMARK    3  A    between atoms: C_10  and  N_11
REMARK                            x       y       z     vdW  Elec       q    Type
REMARK                         _______ _______ _______ _____ _____    ______ ____
ROOT
ATOM      1  C   UNL     1      23.572   9.185  36.474  0.00  0.00    +0.000 C 
ATOM      2  C   UNL     1      23.381  10.522  37.089  0.00  0.00    +0.000 A 
ATOM      3  N   UNL     1      22.238  10.957  37.594  0.00  0.00    +0.000 NA
ATOM      4  C   UNL     1      22.022  12.140  38.152  0.00  0.00    +0.000 A 
ATOM      5  C   UNL     1      23.083  13.057  38.236  0.00  0.00    +0.000 A 
ATOM      6  C   UNL     1      23.049  14.303  38.768  0.00  0.00    +0.000 A 
ATOM      7  C   UNL     1      21.823  14.966  39.393  0.00  0.00    +0.000 C 
ATOM      8  C   UNL     1      24.214  15.021  38.741  0.00  0.00    +0.000 A 
ATOM      9  C   UNL     1      24.496  16.410  39.243  0.00  0.00    +0.000 C 
ATOM     10  S   UNL     1      25.305  13.954  37.984  0.00  0.00    +0.000 S 
ATOM     11  C   UNL     1      24.269  12.629  37.721  0.00  0.00    +0.000 A 
ATOM     12  N   UNL     1      24.423  11.401  37.163  0.00  0.00    +0.000 NA
ENDROOT
BRANCH   4  13
ATOM     13  N   UNL     1      20.733  12.421  38.633  0.00  0.00    +0.000 NA
BRANCH  13  14
ATOM     14  C   UNL     1      19.685  11.460  38.667  0.00  0.00    +0.000 A 
ATOM     15  C   UNL     1      19.622  10.634  39.777  0.00  0.00    +0.000 A 
ATOM     16  C   UNL     1      18.620   9.703  39.826  0.00  0.00    +0.000 A 
ATOM     17  C   UNL     1      17.716   9.605  38.801  0.00  0.00    +0.000 A 
ATOM     18  C   UNL     1      17.765  10.416  37.695  0.00  0.00    +0.000 A 
ATOM     19  C   UNL     1      18.770  11.355  37.640  0.00  0.00    +0.000 A 
BRANCH  18  20
ATOM     20  N   UNL     1      16.812  10.307  36.627  0.00  0.00    +0.000 N 
ATOM     21  O   UNL     1      17.054   9.567  35.676  0.00  0.00    +0.000 OA
ATOM     22  O   UNL     1      15.663  11.036  36.713  0.00  0.00    +0.000 OA
ENDBRANCH  18  20
ENDBRANCH  13  14
ENDBRANCH   4  13
TORSDOF 3
ENDMDL
MODEL 10
REMARK VINA RESULT:      -5.9     27.778     29.526
REMARK  Name = 
REMARK  3 active torsions:
REMARK  status: ('A' for Active; 'I' for Inactive)
REMARK    1  A    between atoms: C_4  and  N_5
REMARK    2  A    between atoms: N_5  and  C_6
REMARK    3  A    between atoms: C_10  and  N_11
REMARK                            x       y       z     vdW  Elec       q    Type
REMARK                         _______ _______ _______ _____ _____    ______ ____
ROOT
ATOM      1  C   UNL     1      30.264  -7.187  35.816  0.00  0.00    +0.000 C 
ATOM      2  C   UNL     1      31.027  -6.758  34.618  0.00  0.00    +0.000 A 
ATOM      3  N   UNL     1      31.941  -5.801  34.616  0.00  0.00    +0.000 NA
ATOM      4  C   UNL     1      32.646  -5.385  33.574  0.00  0.00    +0.000 A 
ATOM      5  C   UNL     1      32.435  -5.991  32.323  0.00  0.00    +0.000 A 
ATOM      6  C   UNL     1      33.057  -5.701  31.155  0.00  0.00    +0.000 A 
ATOM      7  C   UNL     1      34.133  -4.632  30.967  0.00  0.00    +0.000 C 
ATOM      8  C   UNL     1      32.687  -6.428  30.057  0.00  0.00    +0.000 A 
ATOM      9  C   UNL     1      33.184  -6.345  28.639  0.00  0.00    +0.000 C 
ATOM     10  S   UNL     1      31.499  -7.480  30.676  0.00  0.00    +0.000 S 
ATOM     11  C   UNL     1      31.498  -6.979  32.303  0.00  0.00    +0.000 A 
ATOM     12  N   UNL     1      30.810  -7.358  33.411  0.00  0.00    +0.000 NA
ENDROOT
BRANCH   4  13
ATOM     13  N   UNL     1      33.576  -4.350  33.770  0.00  0.00    +0.000 NA
BRANCH  13  14
ATOM     14  C   UNL     1      33.203  -3.020  34.107  0.00  0.00    +0.000 A 
ATOM     15  C   UNL     1      32.305  -2.861  35.150  0.00  0.00    +0.000 A 
ATOM     16  C   UNL     1      31.935  -1.588  35.488  0.00  0.00    +0.000 A 
ATOM     17  C   UNL     1      32.446  -0.515  34.806  0.00  0.00    +0.000 A 
ATOM     18  C   UNL     1      33.337  -0.655  33.771  0.00  0.00    +0.000 A 
ATOM     19  C   UNL     1      33.713  -1.934  33.426  0.00  0.00    +0.000 A 
BRANCH  18  20
ATOM     20  N   UNL     1      33.867   0.475  33.064  0.00  0.00    +0.000 N 
ATOM     21  O   UNL     1      34.507   0.295  32.031  0.00  0.00    +0.000 OA
ATOM     22  O   UNL     1      33.637   1.718  33.575  0.00  0.00    +0.000 OA
ENDBRANCH  18  20
ENDBRANCH  13  14
ENDBRANCH   4  13
TORSDOF 3
ENDMDL
