MODEL 1
REMARK VINA RESULT:      -9.2      0.000      0.000
REMARK  Name = 
REMARK  6 active torsions:
REMARK  status: ('A' for Active; 'I' for Inactive)
REMARK    1  A    between atoms: C_2  and  C_18
REMARK    2  A    between atoms: N_3  and  N_4
REMARK    3  A    between atoms: C_5  and  C_6
REMARK    4  A    between atoms: C_9  and  N_10
REMARK    5  A    between atoms: C_18  and  C_20
REMARK    6  A    between atoms: C_18  and  C_26
REMARK                            x       y       z     vdW  Elec       q    Type
REMARK                         _______ _______ _______ _____ _____    ______ ____
ROOT
ATOM      1  O   UNL     1      38.818   4.388  18.613  0.00  0.00    +0.000 OA
ATOM      2  C   UNL     1      38.823   5.068  17.559  0.00  0.00    +0.000 C 
ATOM      3  N   UNL     1      38.209   4.455  16.408  0.00  0.00    +0.000 NA
ENDROOT
BRANCH   3   4
ATOM      4  N   UNL     1      37.630   3.248  16.342  0.00  0.00    +0.000 NA
ATOM      5  C   UNL     1      36.507   2.750  16.196  0.00  0.00    +0.000 C 
BRANCH   5   6
ATOM      6  C   UNL     1      36.191   1.319  16.167  0.00  0.00    +0.000 A 
ATOM      7  C   UNL     1      36.989   0.430  15.470  0.00  0.00    +0.000 A 
ATOM      8  C   UNL     1      36.674  -0.923  15.470  0.00  0.00    +0.000 A 
ATOM      9  C   UNL     1      35.584  -1.453  16.140  0.00  0.00    +0.000 A 
ATOM     10  C   UNL     1      34.799  -0.561  16.829  0.00  0.00    +0.000 A 
ATOM     11  F   UNL     1      33.712  -1.021  17.506  0.00  0.00    +0.000 F 
ATOM     12  C   UNL     1      35.111   0.801  16.833  0.00  0.00    +0.000 A 
BRANCH   9  13
ATOM     13  N   UNL     1      35.319  -2.845  16.130  0.00  0.00    +0.000 N 
ATOM     14  C   UNL     1      34.203  -3.553  15.540  0.00  0.00    +0.000 C 
ATOM     15  C   UNL     1      34.854  -4.740  14.894  0.00  0.00    +0.000 C 
ATOM     16  C   UNL     1      35.941  -5.095  15.876  0.00  0.00    +0.000 C 
ATOM     17  C   UNL     1      36.164  -3.855  16.718  0.00  0.00    +0.000 C 
ENDBRANCH   9  13
ENDBRANCH   5   6
ENDBRANCH   3   4
BRANCH   2  18
ATOM     18  C   UNL     1      39.384   6.400  17.413  0.00  0.00    +0.000 C 
ATOM     19  O   UNL     1      38.986   6.959  16.171  0.00  0.00    +0.000 OA
BRANCH  18  20
ATOM     20  C   UNL     1      38.764   7.246  18.498  0.00  0.00    +0.000 A 
ATOM     21  C   UNL     1      39.276   7.343  19.748  0.00  0.00    +0.000 A 
ATOM     22  C   UNL     1      38.675   8.128  20.733  0.00  0.00    +0.000 A 
ATOM     23  C   UNL     1      37.547   8.807  20.427  0.00  0.00    +0.000 A 
ATOM     24  C   UNL     1      37.004   8.725  19.167  0.00  0.00    +0.000 A 
ATOM     25  C   UNL     1      37.616   7.947  18.210  0.00  0.00    +0.000 A 
ENDBRANCH  18  20
BRANCH  18  26
ATOM     26  C   UNL     1      40.836   6.527  17.505  0.00  0.00    +0.000 A 
ATOM     27  C   UNL     1      41.581   6.635  16.341  0.00  0.00    +0.000 A 
ATOM     28  C   UNL     1      42.954   6.749  16.362  0.00  0.00    +0.000 A 
ATOM     29  C   UNL     1      43.626   6.758  17.565  0.00  0.00    +0.000 A 
ATOM     30  C   UNL     1      42.927   6.655  18.715  0.00  0.00    +0.000 A 
ATOM     31  C   UNL     1      41.532   6.539  18.690  0.00  0.00    +0.000 A 
ENDBRANCH  18  26
ENDBRANCH   2  18
TORSDOF 6
ENDMDL
MODEL 2
REMARK VINA RESULT:      -8.6      4.424      9.818
REMARK  Name = 
REMARK  6 active torsions:
REMARK  status: ('A' for Active; 'I' for Inactive)
REMARK    1  A    between atoms: C_2  and  C_18
REMARK    2  A    between atoms: N_3  and  N_4
REMARK    3  A    between atoms: C_5  and  C_6
REMARK    4  A    between atoms: C_9  and  N_10
REMARK    5  A    between atoms: C_18  and  C_20
REMARK    6  A    between atoms: C_18  and  C_26
REMARK                            x       y       z     vdW  Elec       q    Type
REMARK                         _______ _______ _______ _____ _____    ______ ____
ROOT
ATOM      1  O   UNL     1      36.079   0.522  14.421  0.00  0.00    +0.000 OA
ATOM      2  C   UNL     1      36.794   0.470  15.450  0.00  0.00    +0.000 C 
ATOM      3  N   UNL     1      37.130   1.735  16.051  0.00  0.00    +0.000 NA
ENDROOT
BRANCH   3   4
ATOM      4  N   UNL     1      36.758   2.955  15.638  0.00  0.00    +0.000 NA
ATOM      5  C   UNL     1      37.068   3.795  14.784  0.00  0.00    +0.000 C 
BRANCH   5   6
ATOM      6  C   UNL     1      36.432   5.099  14.581  0.00  0.00    +0.000 A 
ATOM      7  C   UNL     1      37.126   6.273  14.813  0.00  0.00    +0.000 A 
ATOM      8  C   UNL     1      36.502   7.495  14.600  0.00  0.00    +0.000 A 
ATOM      9  C   UNL     1      35.196   7.618  14.159  0.00  0.00    +0.000 A 
ATOM     10  C   UNL     1      34.515   6.447  13.931  0.00  0.00    +0.000 A 
ATOM     11  F   UNL     1      33.227   6.503  13.498  0.00  0.00    +0.000 F 
ATOM     12  C   UNL     1      35.138   5.214  14.143  0.00  0.00    +0.000 A 
BRANCH   9  13
ATOM     13  N   UNL     1      34.611   8.890  13.932  0.00  0.00    +0.000 N 
ATOM     14  C   UNL     1      34.011   9.797  14.886  0.00  0.00    +0.000 C 
ATOM     15  C   UNL     1      34.542  11.135  14.467  0.00  0.00    +0.000 C 
ATOM     16  C   UNL     1      34.556  11.028  12.964  0.00  0.00    +0.000 C 
ATOM     17  C   UNL     1      34.523   9.546  12.650  0.00  0.00    +0.000 C 
ENDBRANCH   9  13
ENDBRANCH   5   6
ENDBRANCH   3   4
BRANCH   2  18
ATOM     18  C   UNL     1      37.295  -0.744  16.073  0.00  0.00    +0.000 C 
ATOM     19  O   UNL     1      37.418  -0.552  17.474  0.00  0.00    +0.000 OA
BRANCH  18  20
ATOM     20  C   UNL     1      36.239  -1.800  15.861  0.00  0.00    +0.000 A 
ATOM     21  C   UNL     1      36.283  -2.703  14.852  0.00  0.00    +0.000 A 
ATOM     22  C   UNL     1      35.285  -3.663  14.677  0.00  0.00    +0.000 A 
ATOM     23  C   UNL     1      34.246  -3.689  15.542  0.00  0.00    +0.000 A 
ATOM     24  C   UNL     1      34.176  -2.784  16.573  0.00  0.00    +0.000 A 
ATOM     25  C   UNL     1      35.172  -1.846  16.728  0.00  0.00    +0.000 A 
ENDBRANCH  18  20
BRANCH  18  26
ATOM     26  C   UNL     1      38.571  -1.265  15.589  0.00  0.00    +0.000 A 
ATOM     27  C   UNL     1      39.058  -2.453  16.109  0.00  0.00    +0.000 A 
ATOM     28  C   UNL     1      40.258  -2.992  15.698  0.00  0.00    +0.000 A 
ATOM     29  C   UNL     1      41.012  -2.345  14.743  0.00  0.00    +0.000 A 
ATOM     30  C   UNL     1      40.563  -1.186  14.218  0.00  0.00    +0.000 A 
ATOM     31  C   UNL     1      39.342  -0.642  14.638  0.00  0.00    +0.000 A 
ENDBRANCH  18  26
ENDBRANCH   2  18
TORSDOF 6
ENDMDL
MODEL 3
REMARK VINA RESULT:      -8.6      3.208     10.285
REMARK  Name = 
REMARK  6 active torsions:
REMARK  status: ('A' for Active; 'I' for Inactive)
REMARK    1  A    between atoms: C_2  and  C_18
REMARK    2  A    between atoms: N_3  and  N_4
REMARK    3  A    between atoms: C_5  and  C_6
REMARK    4  A    between atoms: C_9  and  N_10
REMARK    5  A    between atoms: C_18  and  C_20
REMARK    6  A    between atoms: C_18  and  C_26
REMARK                            x       y       z     vdW  Elec       q    Type
REMARK                         _______ _______ _______ _____ _____    ______ ____
ROOT
ATOM      1  O   UNL     1      39.249   1.450  15.070  0.00  0.00    +0.000 OA
ATOM      2  C   UNL     1      38.043   1.133  15.207  0.00  0.00    +0.000 C 
ATOM      3  N   UNL     1      37.236   2.038  15.985  0.00  0.00    +0.000 NA
ENDROOT
BRANCH   3   4
ATOM      4  N   UNL     1      37.628   3.179  16.570  0.00  0.00    +0.000 NA
ATOM      5  C   UNL     1      37.963   4.329  16.259  0.00  0.00    +0.000 C 
BRANCH   5   6
ATOM      6  C   UNL     1      38.354   5.396  17.183  0.00  0.00    +0.000 A 
ATOM      7  C   UNL     1      37.906   6.692  17.003  0.00  0.00    +0.000 A 
ATOM      8  C   UNL     1      38.282   7.682  17.902  0.00  0.00    +0.000 A 
ATOM      9  C   UNL     1      39.097   7.450  18.996  0.00  0.00    +0.000 A 
ATOM     10  C   UNL     1      39.536   6.159  19.166  0.00  0.00    +0.000 A 
ATOM     11  F   UNL     1      40.343   5.868  20.223  0.00  0.00    +0.000 F 
ATOM     12  C   UNL     1      39.162   5.159  18.265  0.00  0.00    +0.000 A 
BRANCH   9  13
ATOM     13  N   UNL     1      39.432   8.489  19.899  0.00  0.00    +0.000 N 
ATOM     14  C   UNL     1      40.714   9.124  20.119  0.00  0.00    +0.000 C 
ATOM     15  C   UNL     1      40.362  10.579  20.220  0.00  0.00    +0.000 C 
ATOM     16  C   UNL     1      39.048  10.549  20.958  0.00  0.00    +0.000 C 
ATOM     17  C   UNL     1      38.507   9.144  20.791  0.00  0.00    +0.000 C 
ENDBRANCH   9  13
ENDBRANCH   5   6
ENDBRANCH   3   4
BRANCH   2  18
ATOM     18  C   UNL     1      37.410  -0.049  14.648  0.00  0.00    +0.000 C 
ATOM     19  O   UNL     1      36.803   0.269  13.405  0.00  0.00    +0.000 OA
BRANCH  18  20
ATOM     20  C   UNL     1      38.518  -1.032  14.361  0.00  0.00    +0.000 A 
ATOM     21  C   UNL     1      39.313  -1.558  15.323  0.00  0.00    +0.000 A 
ATOM     22  C   UNL     1      40.336  -2.459  15.025  0.00  0.00    +0.000 A 
ATOM     23  C   UNL     1      40.536  -2.814  13.736  0.00  0.00    +0.000 A 
ATOM     24  C   UNL     1      39.746  -2.295  12.739  0.00  0.00    +0.000 A 
ATOM     25  C   UNL     1      38.740  -1.408  13.056  0.00  0.00    +0.000 A 
ENDBRANCH  18  20
BRANCH  18  26
ATOM     26  C   UNL     1      36.403  -0.718  15.469  0.00  0.00    +0.000 A 
ATOM     27  C   UNL     1      36.023  -2.012  15.152  0.00  0.00    +0.000 A 
ATOM     28  C   UNL     1      35.073  -2.693  15.883  0.00  0.00    +0.000 A 
ATOM     29  C   UNL     1      34.472  -2.087  16.965  0.00  0.00    +0.000 A 
ATOM     30  C   UNL     1      34.823  -0.827  17.298  0.00  0.00    +0.000 A 
ATOM     31  C   UNL     1      35.788  -0.138  16.552  0.00  0.00    +0.000 A 
ENDBRANCH  18  26
ENDBRANCH   2  18
TORSDOF 6
ENDMDL
MODEL 4
REMARK VINA RESULT:      -8.5      3.339     10.323
REMARK  Name = 
REMARK  6 active torsions:
REMARK  status: ('A' for Active; 'I' for Inactive)
REMARK    1  A    between atoms: C_2  and  C_18
REMARK    2  A    between atoms: N_3  and  N_4
REMARK    3  A    between atoms: C_5  and  C_6
REMARK    4  A    between atoms: C_9  and  N_10
REMARK    5  A    between atoms: C_18  and  C_20
REMARK    6  A    between atoms: C_18  and  C_26
REMARK                            x       y       z     vdW  Elec       q    Type
REMARK                         _______ _______ _______ _____ _____    ______ ____
ROOT
ATOM      1  O   UNL     1      39.277   1.411  15.012  0.00  0.00    +0.000 OA
ATOM      2  C   UNL     1      38.077   1.079  15.161  0.00  0.00    +0.000 C 
ATOM      3  N   UNL     1      37.269   1.966  15.958  0.00  0.00    +0.000 NA
ENDROOT
BRANCH   3   4
ATOM      4  N   UNL     1      37.656   3.105  16.550  0.00  0.00    +0.000 NA
ATOM      5  C   UNL     1      38.010   4.251  16.245  0.00  0.00    +0.000 C 
BRANCH   5   6
ATOM      6  C   UNL     1      38.386   5.318  17.177  0.00  0.00    +0.000 A 
ATOM      7  C   UNL     1      38.994   5.026  18.384  0.00  0.00    +0.000 A 
ATOM      8  C   UNL     1      39.351   6.057  19.243  0.00  0.00    +0.000 A 
ATOM      9  C   UNL     1      39.132   7.395  18.961  0.00  0.00    +0.000 A 
ATOM     10  C   UNL     1      38.527   7.674  17.759  0.00  0.00    +0.000 A 
ATOM     11  F   UNL     1      38.283   8.971  17.426  0.00  0.00    +0.000 F 
ATOM     12  C   UNL     1      38.166   6.641  16.892  0.00  0.00    +0.000 A 
BRANCH   9  13
ATOM     13  N   UNL     1      39.537   8.413  19.860  0.00  0.00    +0.000 N 
ATOM     14  C   UNL     1      40.851   8.988  20.049  0.00  0.00    +0.000 C 
ATOM     15  C   UNL     1      40.570  10.457  20.164  0.00  0.00    +0.000 C 
ATOM     16  C   UNL     1      39.275  10.484  20.934  0.00  0.00    +0.000 C 
ATOM     17  C   UNL     1      38.664   9.106  20.776  0.00  0.00    +0.000 C 
ENDBRANCH   9  13
ENDBRANCH   5   6
ENDBRANCH   3   4
BRANCH   2  18
ATOM     18  C   UNL     1      37.449  -0.105  14.597  0.00  0.00    +0.000 C 
ATOM     19  O   UNL     1      36.839   0.216  13.356  0.00  0.00    +0.000 OA
BRANCH  18  20
ATOM     20  C   UNL     1      38.563  -1.080  14.305  0.00  0.00    +0.000 A 
ATOM     21  C   UNL     1      39.329  -1.644  15.270  0.00  0.00    +0.000 A 
ATOM     22  C   UNL     1      40.357  -2.537  14.967  0.00  0.00    +0.000 A 
ATOM     23  C   UNL     1      40.593  -2.845  13.671  0.00  0.00    +0.000 A 
ATOM     24  C   UNL     1      39.832  -2.287  12.673  0.00  0.00    +0.000 A 
ATOM     25  C   UNL     1      38.821  -1.409  12.994  0.00  0.00    +0.000 A 
ENDBRANCH  18  20
BRANCH  18  26
ATOM     26  C   UNL     1      36.447  -0.782  15.416  0.00  0.00    +0.000 A 
ATOM     27  C   UNL     1      36.038  -2.059  15.066  0.00  0.00    +0.000 A 
ATOM     28  C   UNL     1      35.091  -2.747  15.794  0.00  0.00    +0.000 A 
ATOM     29  C   UNL     1      34.521  -2.166  16.906  0.00  0.00    +0.000 A 
ATOM     30  C   UNL     1      34.900  -0.923  17.271  0.00  0.00    +0.000 A 
ATOM     31  C   UNL     1      35.862  -0.227  16.529  0.00  0.00    +0.000 A 
ENDBRANCH  18  26
ENDBRANCH   2  18
TORSDOF 6
ENDMDL
MODEL 5
REMARK VINA RESULT:      -8.5     23.174     26.180
REMARK  Name = 
REMARK  6 active torsions:
REMARK  status: ('A' for Active; 'I' for Inactive)
REMARK    1  A    between atoms: C_2  and  C_18
REMARK    2  A    between atoms: N_3  and  N_4
REMARK    3  A    between atoms: C_5  and  C_6
REMARK    4  A    between atoms: C_9  and  N_10
REMARK    5  A    between atoms: C_18  and  C_20
REMARK    6  A    between atoms: C_18  and  C_26
REMARK                            x       y       z     vdW  Elec       q    Type
REMARK                         _______ _______ _______ _____ _____    ______ ____
ROOT
ATOM      1  O   UNL     1      13.003  -1.234  27.679  0.00  0.00    +0.000 OA
ATOM      2  C   UNL     1      13.084  -0.264  28.470  0.00  0.00    +0.000 C 
ATOM      3  N   UNL     1      14.317   0.481  28.433  0.00  0.00    +0.000 NA
ENDROOT
BRANCH   3   4
ATOM      4  N   UNL     1      15.378   0.257  27.645  0.00  0.00    +0.000 NA
ATOM      5  C   UNL     1      16.610   0.175  27.726  0.00  0.00    +0.000 C 
BRANCH   5   6
ATOM      6  C   UNL     1      17.534  -0.096  26.621  0.00  0.00    +0.000 A 
ATOM      7  C   UNL     1      17.924  -1.389  26.322  0.00  0.00    +0.000 A 
ATOM      8  C   UNL     1      18.791  -1.618  25.262  0.00  0.00    +0.000 A 
ATOM      9  C   UNL     1      19.303  -0.610  24.463  0.00  0.00    +0.000 A 
ATOM     10  C   UNL     1      18.909   0.670  24.768  0.00  0.00    +0.000 A 
ATOM     11  F   UNL     1      19.380   1.705  24.020  0.00  0.00    +0.000 F 
ATOM     12  C   UNL     1      18.037   0.907  25.834  0.00  0.00    +0.000 A 
BRANCH   9  13
ATOM     13  N   UNL     1      20.166  -0.897  23.376  0.00  0.00    +0.000 N 
ATOM     14  C   UNL     1      20.211  -2.077  22.539  0.00  0.00    +0.000 C 
ATOM     15  C   UNL     1      20.384  -1.512  21.160  0.00  0.00    +0.000 C 
ATOM     16  C   UNL     1      21.300  -0.338  21.397  0.00  0.00    +0.000 C 
ATOM     17  C   UNL     1      21.190  -0.014  22.873  0.00  0.00    +0.000 C 
ENDBRANCH   9  13
ENDBRANCH   5   6
ENDBRANCH   3   4
BRANCH   2  18
ATOM     18  C   UNL     1      12.050   0.161  29.399  0.00  0.00    +0.000 C 
ATOM     19  O   UNL     1      11.060  -0.849  29.514  0.00  0.00    +0.000 OA
BRANCH  18  20
ATOM     20  C   UNL     1      12.714   0.286  30.748  0.00  0.00    +0.000 A 
ATOM     21  C   UNL     1      12.778   1.450  31.439  0.00  0.00    +0.000 A 
ATOM     22  C   UNL     1      13.406   1.535  32.683  0.00  0.00    +0.000 A 
ATOM     23  C   UNL     1      13.967   0.423  33.208  0.00  0.00    +0.000 A 
ATOM     24  C   UNL     1      13.918  -0.770  32.528  0.00  0.00    +0.000 A 
ATOM     25  C   UNL     1      13.291  -0.833  31.303  0.00  0.00    +0.000 A 
ENDBRANCH  18  20
BRANCH  18  26
ATOM     26  C   UNL     1      11.364   1.416  29.105  0.00  0.00    +0.000 A 
ATOM     27  C   UNL     1      11.856   2.238  28.104  0.00  0.00    +0.000 A 
ATOM     28  C   UNL     1      11.257   3.438  27.785  0.00  0.00    +0.000 A 
ATOM     29  C   UNL     1      10.135   3.851  28.470  0.00  0.00    +0.000 A 
ATOM     30  C   UNL     1       9.633   3.071  29.451  0.00  0.00    +0.000 A 
ATOM     31  C   UNL     1      10.244   1.853  29.772  0.00  0.00    +0.000 A 
ENDBRANCH  18  26
ENDBRANCH   2  18
TORSDOF 6
ENDMDL
MODEL 6
REMARK VINA RESULT:      -8.3     23.437     26.665
REMARK  Name = 
REMARK  6 active torsions:
REMARK  status: ('A' for Active; 'I' for Inactive)
REMARK    1  A    between atoms: C_2  and  C_18
REMARK    2  A    between atoms: N_3  and  N_4
REMARK    3  A    between atoms: C_5  and  C_6
REMARK    4  A    between atoms: C_9  and  N_10
REMARK    5  A    between atoms: C_18  and  C_20
REMARK    6  A    between atoms: C_18  and  C_26
REMARK                            x       y       z     vdW  Elec       q    Type
REMARK                         _______ _______ _______ _____ _____    ______ ____
ROOT
ATOM      1  O   UNL     1      12.640  -0.765  26.890  0.00  0.00    +0.000 OA
ATOM      2  C   UNL     1      12.771   0.092  27.796  0.00  0.00    +0.000 C 
ATOM      3  N   UNL     1      14.089   0.652  27.951  0.00  0.00    +0.000 NA
ENDROOT
BRANCH   3   4
ATOM      4  N   UNL     1      15.183   0.366  27.231  0.00  0.00    +0.000 NA
ATOM      5  C   UNL     1      16.409   0.275  27.376  0.00  0.00    +0.000 C 
BRANCH   5   6
ATOM      6  C   UNL     1      17.380  -0.077  26.337  0.00  0.00    +0.000 A 
ATOM      7  C   UNL     1      17.756  -1.393  26.132  0.00  0.00    +0.000 A 
ATOM      8  C   UNL     1      18.669  -1.700  25.132  0.00  0.00    +0.000 A 
ATOM      9  C   UNL     1      19.243  -0.750  24.305  0.00  0.00    +0.000 A 
ATOM     10  C   UNL     1      18.863   0.553  24.516  0.00  0.00    +0.000 A 
ATOM     11  F   UNL     1      19.394   1.533  23.736  0.00  0.00    +0.000 F 
ATOM     12  C   UNL     1      17.944   0.868  25.521  0.00  0.00    +0.000 A 
BRANCH   9  13
ATOM     13  N   UNL     1      20.152  -1.117  23.281  0.00  0.00    +0.000 N 
ATOM     14  C   UNL     1      20.186  -2.325  22.486  0.00  0.00    +0.000 C 
ATOM     15  C   UNL     1      20.468  -1.816  21.103  0.00  0.00    +0.000 C 
ATOM     16  C   UNL     1      21.427  -0.682  21.358  0.00  0.00    +0.000 C 
ATOM     17  C   UNL     1      21.248  -0.303  22.814  0.00  0.00    +0.000 C 
ENDBRANCH   9  13
ENDBRANCH   5   6
ENDBRANCH   3   4
BRANCH   2  18
ATOM     18  C   UNL     1      11.716   0.557  28.682  0.00  0.00    +0.000 C 
ATOM     19  O   UNL     1      12.261   0.885  29.951  0.00  0.00    +0.000 OA
BRANCH  18  20
ATOM     20  C   UNL     1      11.189   1.838  28.082  0.00  0.00    +0.000 A 
ATOM     21  C   UNL     1      11.355   2.172  26.780  0.00  0.00    +0.000 A 
ATOM     22  C   UNL     1      10.862   3.368  26.256  0.00  0.00    +0.000 A 
ATOM     23  C   UNL     1      10.202   4.216  27.077  0.00  0.00    +0.000 A 
ATOM     24  C   UNL     1      10.021   3.903  28.402  0.00  0.00    +0.000 A 
ATOM     25  C   UNL     1      10.513   2.716  28.898  0.00  0.00    +0.000 A 
ENDBRANCH  18  20
BRANCH  18  26
ATOM     26  C   UNL     1      10.589  -0.343  28.907  0.00  0.00    +0.000 A 
ATOM     27  C   UNL     1      10.507  -1.039  30.103  0.00  0.00    +0.000 A 
ATOM     28  C   UNL     1       9.472  -1.909  30.372  0.00  0.00    +0.000 A 
ATOM     29  C   UNL     1       8.479  -2.107  29.437  0.00  0.00    +0.000 A 
ATOM     30  C   UNL     1       8.532  -1.442  28.264  0.00  0.00    +0.000 A 
ATOM     31  C   UNL     1       9.585  -0.560  27.994  0.00  0.00    +0.000 A 
ENDBRANCH  18  26
ENDBRANCH   2  18
TORSDOF 6
ENDMDL
MODEL 7
REMARK VINA RESULT:      -8.1      5.529      9.833
REMARK  Name = 
REMARK  6 active torsions:
REMARK  status: ('A' for Active; 'I' for Inactive)
REMARK    1  A    between atoms: C_2  and  C_18
REMARK    2  A    between atoms: N_3  and  N_4
REMARK    3  A    between atoms: C_5  and  C_6
REMARK    4  A    between atoms: C_9  and  N_10
REMARK    5  A    between atoms: C_18  and  C_20
REMARK    6  A    between atoms: C_18  and  C_26
REMARK                            x       y       z     vdW  Elec       q    Type
REMARK                         _______ _______ _______ _____ _____    ______ ____
ROOT
ATOM      1  O   UNL     1      36.412   0.267  13.722  0.00  0.00    +0.000 OA
ATOM      2  C   UNL     1      36.847   0.387  14.892  0.00  0.00    +0.000 C 
ATOM      3  N   UNL     1      36.868   1.725  15.425  0.00  0.00    +0.000 NA
ENDROOT
BRANCH   3   4
ATOM      4  N   UNL     1      36.469   2.849  14.813  0.00  0.00    +0.000 NA
ATOM      5  C   UNL     1      35.468   3.573  14.734  0.00  0.00    +0.000 C 
BRANCH   5   6
ATOM      6  C   UNL     1      35.346   4.797  13.938  0.00  0.00    +0.000 A 
ATOM      7  C   UNL     1      36.124   4.993  12.811  0.00  0.00    +0.000 A 
ATOM      8  C   UNL     1      35.979   6.157  12.068  0.00  0.00    +0.000 A 
ATOM      9  C   UNL     1      35.081   7.160  12.389  0.00  0.00    +0.000 A 
ATOM     10  C   UNL     1      34.312   6.956  13.509  0.00  0.00    +0.000 A 
ATOM     11  F   UNL     1      33.413   7.908  13.878  0.00  0.00    +0.000 F 
ATOM     12  C   UNL     1      34.454   5.787  14.261  0.00  0.00    +0.000 A 
BRANCH   9  13
ATOM     13  N   UNL     1      34.952   8.319  11.584  0.00  0.00    +0.000 N 
ATOM     14  C   UNL     1      35.289   9.690  11.903  0.00  0.00    +0.000 C 
ATOM     15  C   UNL     1      35.959  10.178  10.652  0.00  0.00    +0.000 C 
ATOM     16  C   UNL     1      35.161   9.503   9.567  0.00  0.00    +0.000 C 
ATOM     17  C   UNL     1      34.454   8.338  10.230  0.00  0.00    +0.000 C 
ENDBRANCH   9  13
ENDBRANCH   5   6
ENDBRANCH   3   4
BRANCH   2  18
ATOM     18  C   UNL     1      37.318  -0.698  15.736  0.00  0.00    +0.000 C 
ATOM     19  O   UNL     1      37.349  -0.278  17.091  0.00  0.00    +0.000 OA
BRANCH  18  20
ATOM     20  C   UNL     1      36.287  -1.795  15.636  0.00  0.00    +0.000 A 
ATOM     21  C   UNL     1      35.214  -1.884  16.457  0.00  0.00    +0.000 A 
ATOM     22  C   UNL     1      34.281  -2.916  16.345  0.00  0.00    +0.000 A 
ATOM     23  C   UNL     1      34.459  -3.853  15.386  0.00  0.00    +0.000 A 
ATOM     24  C   UNL     1      35.539  -3.789  14.540  0.00  0.00    +0.000 A 
ATOM     25  C   UNL     1      36.446  -2.760  14.668  0.00  0.00    +0.000 A 
ENDBRANCH  18  20
BRANCH  18  26
ATOM     26  C   UNL     1      38.627  -1.267  15.424  0.00  0.00    +0.000 A 
ATOM     27  C   UNL     1      39.483  -0.574  14.585  0.00  0.00    +0.000 A 
ATOM     28  C   UNL     1      40.728  -1.062  14.247  0.00  0.00    +0.000 A 
ATOM     29  C   UNL     1      41.151  -2.273  14.748  0.00  0.00    +0.000 A 
ATOM     30  C   UNL     1      40.338  -2.972  15.568  0.00  0.00    +0.000 A 
ATOM     31  C   UNL     1      39.074  -2.473  15.909  0.00  0.00    +0.000 A 
ENDBRANCH  18  26
ENDBRANCH   2  18
TORSDOF 6
ENDMDL
MODEL 8
REMARK VINA RESULT:      -8.0     24.417     27.058
REMARK  Name = 
REMARK  6 active torsions:
REMARK  status: ('A' for Active; 'I' for Inactive)
REMARK    1  A    between atoms: C_2  and  C_18
REMARK    2  A    between atoms: N_3  and  N_4
REMARK    3  A    between atoms: C_5  and  C_6
REMARK    4  A    between atoms: C_9  and  N_10
REMARK    5  A    between atoms: C_18  and  C_20
REMARK    6  A    between atoms: C_18  and  C_26
REMARK                            x       y       z     vdW  Elec       q    Type
REMARK                         _______ _______ _______ _____ _____    ______ ____
ROOT
ATOM      1  O   UNL     1      27.682  15.251  37.417  0.00  0.00    +0.000 OA
ATOM      2  C   UNL     1      26.483  15.602  37.313  0.00  0.00    +0.000 C 
ATOM      3  N   UNL     1      25.555  14.959  38.208  0.00  0.00    +0.000 NA
ENDROOT
BRANCH   3   4
ATOM      4  N   UNL     1      25.833  14.037  39.141  0.00  0.00    +0.000 NA
ATOM      5  C   UNL     1      25.833  13.914  40.372  0.00  0.00    +0.000 C 
BRANCH   5   6
ATOM      6  C   UNL     1      26.209  12.713  41.122  0.00  0.00    +0.000 A 
ATOM      7  C   UNL     1      25.812  12.542  42.436  0.00  0.00    +0.000 A 
ATOM      8  C   UNL     1      26.173  11.387  43.119  0.00  0.00    +0.000 A 
ATOM      9  C   UNL     1      26.923  10.370  42.556  0.00  0.00    +0.000 A 
ATOM     10  C   UNL     1      27.312  10.550  41.250  0.00  0.00    +0.000 A 
ATOM     11  F   UNL     1      28.054   9.585  40.641  0.00  0.00    +0.000 F 
ATOM     12  C   UNL     1      26.952  11.709  40.558  0.00  0.00    +0.000 A 
BRANCH   9  13
ATOM     13  N   UNL     1      27.244   9.199  43.287  0.00  0.00    +0.000 N 
ATOM     14  C   UNL     1      26.683   7.871  43.167  0.00  0.00    +0.000 C 
ATOM     15  C   UNL     1      27.889   6.981  43.245  0.00  0.00    +0.000 C 
ATOM     16  C   UNL     1      28.752   7.685  44.260  0.00  0.00    +0.000 C 
ATOM     17  C   UNL     1      28.251   9.114  44.317  0.00  0.00    +0.000 C 
ENDBRANCH   9  13
ENDBRANCH   5   6
ENDBRANCH   3   4
BRANCH   2  18
ATOM     18  C   UNL     1      25.968  16.591  36.381  0.00  0.00    +0.000 C 
ATOM     19  O   UNL     1      24.792  17.186  36.908  0.00  0.00    +0.000 OA
BRANCH  18  20
ATOM     20  C   UNL     1      27.012  17.677  36.290  0.00  0.00    +0.000 A 
ATOM     21  C   UNL     1      28.005  17.678  35.369  0.00  0.00    +0.000 A 
ATOM     22  C   UNL     1      28.961  18.694  35.316  0.00  0.00    +0.000 A 
ATOM     23  C   UNL     1      28.891  19.703  36.213  0.00  0.00    +0.000 A 
ATOM     24  C   UNL     1      27.895  19.725  37.160  0.00  0.00    +0.000 A 
ATOM     25  C   UNL     1      26.960  18.714  37.193  0.00  0.00    +0.000 A 
ENDBRANCH  18  20
BRANCH  18  26
ATOM     26  C   UNL     1      25.659  16.136  35.027  0.00  0.00    +0.000 A 
ATOM     27  C   UNL     1      25.086  17.022  34.130  0.00  0.00    +0.000 A 
ATOM     28  C   UNL     1      24.765  16.650  32.842  0.00  0.00    +0.000 A 
ATOM     29  C   UNL     1      25.013  15.364  32.415  0.00  0.00    +0.000 A 
ATOM     30  C   UNL     1      25.571  14.479  33.267  0.00  0.00    +0.000 A 
ATOM     31  C   UNL     1      25.895  14.860  34.575  0.00  0.00    +0.000 A 
ENDBRANCH  18  26
ENDBRANCH   2  18
TORSDOF 6
ENDMDL
MODEL 9
REMARK VINA RESULT:      -7.9     21.726     24.934
REMARK  Name = 
REMARK  6 active torsions:
REMARK  status: ('A' for Active; 'I' for Inactive)
REMARK    1  A    between atoms: C_2  and  C_18
REMARK    2  A    between atoms: N_3  and  N_4
REMARK    3  A    between atoms: C_5  and  C_6
REMARK    4  A    between atoms: C_9  and  N_10
REMARK    5  A    between atoms: C_18  and  C_20
REMARK    6  A    between atoms: C_18  and  C_26
REMARK                            x       y       z     vdW  Elec       q    Type
REMARK                         _______ _______ _______ _____ _____    ______ ____
ROOT
ATOM      1  O   UNL     1      27.962  15.412  37.459  0.00  0.00    +0.000 OA
ATOM      2  C   UNL     1      27.969  16.073  36.394  0.00  0.00    +0.000 C 
ATOM      3  N   UNL     1      29.133  15.918  35.560  0.00  0.00    +0.000 NA
ENDROOT
BRANCH   3   4
ATOM      4  N   UNL     1      30.201  15.141  35.792  0.00  0.00    +0.000 NA
ATOM      5  C   UNL     1      30.586  13.984  35.586  0.00  0.00    +0.000 C 
BRANCH   5   6
ATOM      6  C   UNL     1      31.876  13.416  35.987  0.00  0.00    +0.000 A 
ATOM      7  C   UNL     1      31.940  12.353  36.870  0.00  0.00    +0.000 A 
ATOM      8  C   UNL     1      33.175  11.826  37.225  0.00  0.00    +0.000 A 
ATOM      9  C   UNL     1      34.378  12.308  36.738  0.00  0.00    +0.000 A 
ATOM     10  C   UNL     1      34.303  13.363  35.862  0.00  0.00    +0.000 A 
ATOM     11  F   UNL     1      35.452  13.883  35.351  0.00  0.00    +0.000 F 
ATOM     12  C   UNL     1      33.064  13.898  35.502  0.00  0.00    +0.000 A 
BRANCH   9  13
ATOM     13  N   UNL     1      35.613  11.720  37.110  0.00  0.00    +0.000 N 
ATOM     14  C   UNL     1      36.339  11.843  38.356  0.00  0.00    +0.000 C 
ATOM     15  C   UNL     1      36.791  10.439  38.629  0.00  0.00    +0.000 C 
ATOM     16  C   UNL     1      37.120   9.925  37.251  0.00  0.00    +0.000 C 
ATOM     17  C   UNL     1      36.394  10.835  36.281  0.00  0.00    +0.000 C 
ENDBRANCH   9  13
ENDBRANCH   5   6
ENDBRANCH   3   4
BRANCH   2  18
ATOM     18  C   UNL     1      26.912  16.963  35.943  0.00  0.00    +0.000 C 
ATOM     19  O   UNL     1      27.475  18.160  35.427  0.00  0.00    +0.000 OA
BRANCH  18  20
ATOM     20  C   UNL     1      26.227  16.265  34.794  0.00  0.00    +0.000 A 
ATOM     21  C   UNL     1      26.260  14.923  34.614  0.00  0.00    +0.000 A 
ATOM     22  C   UNL     1      25.623  14.307  33.536  0.00  0.00    +0.000 A 
ATOM     23  C   UNL     1      24.956  15.076  32.647  0.00  0.00    +0.000 A 
ATOM     24  C   UNL     1      24.907  16.440  32.804  0.00  0.00    +0.000 A 
ATOM     25  C   UNL     1      25.541  17.027  33.877  0.00  0.00    +0.000 A 
ENDBRANCH  18  20
BRANCH  18  26
ATOM     26  C   UNL     1      25.897  17.344  36.921  0.00  0.00    +0.000 A 
ATOM     27  C   UNL     1      25.838  18.656  37.360  0.00  0.00    +0.000 A 
ATOM     28  C   UNL     1      24.908  19.075  38.287  0.00  0.00    +0.000 A 
ATOM     29  C   UNL     1      24.000  18.176  38.806  0.00  0.00    +0.000 A 
ATOM     30  C   UNL     1      24.033  16.891  38.397  0.00  0.00    +0.000 A 
ATOM     31  C   UNL     1      24.980  16.470  37.455  0.00  0.00    +0.000 A 
ENDBRANCH  18  26
ENDBRANCH   2  18
TORSDOF 6
ENDMDL
MODEL 10
REMARK VINA RESULT:      -7.8      6.427      9.921
REMARK  Name = 
REMARK  6 active torsions:
REMARK  status: ('A' for Active; 'I' for Inactive)
REMARK    1  A    between atoms: C_2  and  C_18
REMARK    2  A    between atoms: N_3  and  N_4
REMARK    3  A    between atoms: C_5  and  C_6
REMARK    4  A    between atoms: C_9  and  N_10
REMARK    5  A    between atoms: C_18  and  C_20
REMARK    6  A    between atoms: C_18  and  C_26
REMARK                            x       y       z     vdW  Elec       q    Type
REMARK                         _______ _______ _______ _____ _____    ______ ____
ROOT
ATOM      1  O   UNL     1      35.939   0.875  13.076  0.00  0.00    +0.000 OA
ATOM      2  C   UNL     1      37.013   1.235  13.614  0.00  0.00    +0.000 C 
ATOM      3  N   UNL     1      37.586   2.462  13.123  0.00  0.00    +0.000 NA
ENDROOT
BRANCH   3   4
ATOM      4  N   UNL     1      37.096   3.261  12.164  0.00  0.00    +0.000 NA
ATOM      5  C   UNL     1      37.429   3.730  11.069  0.00  0.00    +0.000 C 
BRANCH   5   6
ATOM      6  C   UNL     1      36.622   4.617  10.226  0.00  0.00    +0.000 A 
ATOM      7  C   UNL     1      36.393   4.319   8.895  0.00  0.00    +0.000 A 
ATOM      8  C   UNL     1      35.614   5.171   8.123  0.00  0.00    +0.000 A 
ATOM      9  C   UNL     1      35.038   6.330   8.611  0.00  0.00    +0.000 A 
ATOM     10  C   UNL     1      35.271   6.618   9.934  0.00  0.00    +0.000 A 
ATOM     11  F   UNL     1      34.733   7.746  10.473  0.00  0.00    +0.000 F 
ATOM     12  C   UNL     1      36.054   5.764  10.716  0.00  0.00    +0.000 A 
BRANCH   9  13
ATOM     13  N   UNL     1      34.230   7.155   7.789  0.00  0.00    +0.000 N 
ATOM     14  C   UNL     1      34.425   8.542   7.422  0.00  0.00    +0.000 C 
ATOM     15  C   UNL     1      34.091   8.558   5.959  0.00  0.00    +0.000 C 
ATOM     16  C   UNL     1      32.944   7.585   5.872  0.00  0.00    +0.000 C 
ATOM     17  C   UNL     1      33.021   6.734   7.124  0.00  0.00    +0.000 C 
ENDBRANCH   9  13
ENDBRANCH   5   6
ENDBRANCH   3   4
BRANCH   2  18
ATOM     18  C   UNL     1      37.708   0.527  14.677  0.00  0.00    +0.000 C 
ATOM     19  O   UNL     1      38.484   1.440  15.438  0.00  0.00    +0.000 OA
BRANCH  18  20
ATOM     20  C   UNL     1      36.642  -0.020  15.593  0.00  0.00    +0.000 A 
ATOM     21  C   UNL     1      36.196  -1.297  15.535  0.00  0.00    +0.000 A 
ATOM     22  C   UNL     1      35.202  -1.772  16.392  0.00  0.00    +0.000 A 
ATOM     23  C   UNL     1      34.670  -0.927  17.305  0.00  0.00    +0.000 A 
ATOM     24  C   UNL     1      35.102   0.374  17.384  0.00  0.00    +0.000 A 
ATOM     25  C   UNL     1      36.086   0.821  16.530  0.00  0.00    +0.000 A 
ENDBRANCH  18  20
BRANCH  18  26
ATOM     26  C   UNL     1      38.585  -0.572  14.283  0.00  0.00    +0.000 A 
ATOM     27  C   UNL     1      39.587  -0.981  15.148  0.00  0.00    +0.000 A 
ATOM     28  C   UNL     1      40.451  -2.007  14.831  0.00  0.00    +0.000 A 
ATOM     29  C   UNL     1      40.332  -2.659  13.623  0.00  0.00    +0.000 A 
ATOM     30  C   UNL     1      39.365  -2.283  12.761  0.00  0.00    +0.000 A 
ATOM     31  C   UNL     1      38.489  -1.240  13.086  0.00  0.00    +0.000 A 
ENDBRANCH  18  26
ENDBRANCH   2  18
TORSDOF 6
ENDMDL
