MODEL 1
REMARK VINA RESULT:      -7.0      0.000      0.000
REMARK  Name = 
REMARK  2 active torsions:
REMARK  status: ('A' for Active; 'I' for Inactive)
REMARK    1  A    between atoms: C_13  and  C_14
REMARK    2  A    between atoms: C_14  and  N_15
REMARK                            x       y       z     vdW  Elec       q    Type
REMARK                         _______ _______ _______ _____ _____    ______ ____
ROOT
ATOM      1  C   UNL     1      20.710   9.354  40.605  0.00  0.00    +0.000 C 
ATOM      2  N   UNL     1      19.314   9.502  40.253  0.00  0.00    +0.000 N 
ATOM      3  C   UNL     1      18.886   9.884  39.059  0.00  0.00    +0.000 A 
ATOM      4  C   UNL     1      17.512   9.916  39.078  0.00  0.00    +0.000 A 
ATOM      5  C   UNL     1      17.114   9.530  40.359  0.00  0.00    +0.000 A 
ATOM      6  C   UNL     1      15.847   9.415  40.850  0.00  0.00    +0.000 A 
ATOM      7  C   UNL     1      15.701   9.010  42.178  0.00  0.00    +0.000 A 
ATOM      8  C   UNL     1      16.839   8.746  42.927  0.00  0.00    +0.000 A 
ATOM      9  C   UNL     1      18.126   8.871  42.399  0.00  0.00    +0.000 A 
ATOM     10  C   UNL     1      18.263   9.279  41.065  0.00  0.00    +0.000 A 
ATOM     11  C   UNL     1      16.833  10.305  37.891  0.00  0.00    +0.000 C 
ATOM     12  O   UNL     1      15.803  11.015  37.983  0.00  0.00    +0.000 OA
ATOM     13  C   UNL     1      17.256   9.918  36.458  0.00  0.00    +0.000 C 
ATOM     14  C   UNL     1      18.841   9.800  36.579  0.00  0.00    +0.000 C 
ATOM     15  C   UNL     1      19.449  10.279  37.755  0.00  0.00    +0.000 C 
ENDROOT
BRANCH  13  16
ATOM     16  C   UNL     1      17.282  11.432  35.865  0.00  0.00    +0.000 C 
BRANCH  16  17
ATOM     17  N   UNL     1      16.545  11.336  34.627  0.00  0.00    +0.000 N 
ATOM     18  C   UNL     1      16.946  10.603  33.563  0.00  0.00    +0.000 A 
ATOM     19  C   UNL     1      16.006  10.757  32.585  0.00  0.00    +0.000 A 
ATOM     20  N   UNL     1      15.049  11.571  33.046  0.00  0.00    +0.000 NA
ATOM     21  C   UNL     1      15.384  11.932  34.319  0.00  0.00    +0.000 A 
ATOM     22  N   UNL     1      14.641  12.787  35.185  0.00  0.00    +0.000 NA
ENDBRANCH  16  17
ENDBRANCH  13  16
TORSDOF 2
ENDMDL
MODEL 2
REMARK VINA RESULT:      -6.6     18.665     20.583
REMARK  Name = 
REMARK  2 active torsions:
REMARK  status: ('A' for Active; 'I' for Inactive)
REMARK    1  A    between atoms: C_13  and  C_14
REMARK    2  A    between atoms: C_14  and  N_15
REMARK                            x       y       z     vdW  Elec       q    Type
REMARK                         _______ _______ _______ _____ _____    ______ ____
ROOT
ATOM      1  C   UNL     1      34.193   1.912  38.048  0.00  0.00    +0.000 C 
ATOM      2  N   UNL     1      33.974   1.567  36.659  0.00  0.00    +0.000 N 
ATOM      3  C   UNL     1      33.851   0.326  36.215  0.00  0.00    +0.000 A 
ATOM      4  C   UNL     1      33.654   0.368  34.854  0.00  0.00    +0.000 A 
ATOM      5  C   UNL     1      33.663   1.714  34.484  0.00  0.00    +0.000 A 
ATOM      6  C   UNL     1      33.508   2.246  33.238  0.00  0.00    +0.000 A 
ATOM      7  C   UNL     1      33.558   3.637  33.118  0.00  0.00    +0.000 A 
ATOM      8  C   UNL     1      33.760   4.401  34.258  0.00  0.00    +0.000 A 
ATOM      9  C   UNL     1      33.916   3.830  35.523  0.00  0.00    +0.000 A 
ATOM     10  C   UNL     1      33.865   2.433  35.635  0.00  0.00    +0.000 A 
ATOM     11  C   UNL     1      33.497  -0.863  34.160  0.00  0.00    +0.000 C 
ATOM     12  O   UNL     1      34.011  -0.991  33.024  0.00  0.00    +0.000 OA
ATOM     13  C   UNL     1      32.725  -2.090  34.691  0.00  0.00    +0.000 C 
ATOM     14  C   UNL     1      32.926  -1.976  36.268  0.00  0.00    +0.000 C 
ATOM     15  C   UNL     1      33.870  -1.049  36.747  0.00  0.00    +0.000 C 
ENDROOT
BRANCH  13  16
ATOM     16  C   UNL     1      33.930  -3.162  34.482  0.00  0.00    +0.000 C 
BRANCH  16  17
ATOM     17  N   UNL     1      33.334  -4.208  33.685  0.00  0.00    +0.000 N 
ATOM     18  C   UNL     1      33.601  -4.404  32.373  0.00  0.00    +0.000 A 
ATOM     19  C   UNL     1      32.856  -5.471  31.962  0.00  0.00    +0.000 A 
ATOM     20  N   UNL     1      32.147  -5.917  33.006  0.00  0.00    +0.000 NA
ATOM     21  C   UNL     1      32.445  -5.130  34.080  0.00  0.00    +0.000 A 
ATOM     22  N   UNL     1      31.917  -5.255  35.399  0.00  0.00    +0.000 NA
ENDBRANCH  16  17
ENDBRANCH  13  16
TORSDOF 2
ENDMDL
MODEL 3
REMARK VINA RESULT:      -6.4      3.091      5.431
REMARK  Name = 
REMARK  2 active torsions:
REMARK  status: ('A' for Active; 'I' for Inactive)
REMARK    1  A    between atoms: C_13  and  C_14
REMARK    2  A    between atoms: C_14  and  N_15
REMARK                            x       y       z     vdW  Elec       q    Type
REMARK                         _______ _______ _______ _____ _____    ______ ____
ROOT
ATOM      1  C   UNL     1      15.298   9.129  41.013  0.00  0.00    +0.000 C 
ATOM      2  N   UNL     1      15.741   9.855  39.841  0.00  0.00    +0.000 N 
ATOM      3  C   UNL     1      17.010   9.976  39.480  0.00  0.00    +0.000 A 
ATOM      4  C   UNL     1      17.066  10.724  38.327  0.00  0.00    +0.000 A 
ATOM      5  C   UNL     1      15.751  11.058  37.997  0.00  0.00    +0.000 A 
ATOM      6  C   UNL     1      15.310  11.793  36.936  0.00  0.00    +0.000 A 
ATOM      7  C   UNL     1      13.933  11.997  36.817  0.00  0.00    +0.000 A 
ATOM      8  C   UNL     1      13.090  11.448  37.773  0.00  0.00    +0.000 A 
ATOM      9  C   UNL     1      13.569  10.699  38.851  0.00  0.00    +0.000 A 
ATOM     10  C   UNL     1      14.953  10.500  38.962  0.00  0.00    +0.000 A 
ATOM     11  C   UNL     1      18.341  10.984  37.757  0.00  0.00    +0.000 C 
ATOM     12  O   UNL     1      18.563  12.108  37.248  0.00  0.00    +0.000 OA
ATOM     13  C   UNL     1      19.511   9.978  37.700  0.00  0.00    +0.000 C 
ATOM     14  C   UNL     1      19.284   9.101  39.011  0.00  0.00    +0.000 C 
ATOM     15  C   UNL     1      18.342   9.555  39.953  0.00  0.00    +0.000 C 
ENDROOT
BRANCH  13  16
ATOM     16  C   UNL     1      20.618  10.954  38.385  0.00  0.00    +0.000 C 
BRANCH  16  17
ATOM     17  N   UNL     1      21.790  10.787  37.559  0.00  0.00    +0.000 N 
ATOM     18  C   UNL     1      21.867   9.924  36.519  0.00  0.00    +0.000 A 
ATOM     19  C   UNL     1      23.118  10.040  35.986  0.00  0.00    +0.000 A 
ATOM     20  N   UNL     1      23.792  10.958  36.689  0.00  0.00    +0.000 NA
ATOM     21  C   UNL     1      22.965  11.424  37.670  0.00  0.00    +0.000 A 
ATOM     22  N   UNL     1      23.276  12.416  38.645  0.00  0.00    +0.000 NA
ENDBRANCH  16  17
ENDBRANCH  13  16
TORSDOF 2
ENDMDL
MODEL 4
REMARK VINA RESULT:      -6.3     22.091     23.670
REMARK  Name = 
REMARK  2 active torsions:
REMARK  status: ('A' for Active; 'I' for Inactive)
REMARK    1  A    between atoms: C_13  and  C_14
REMARK    2  A    between atoms: C_14  and  N_15
REMARK                            x       y       z     vdW  Elec       q    Type
REMARK                         _______ _______ _______ _____ _____    ______ ____
ROOT
ATOM      1  C   UNL     1      18.613 -10.298  27.173  0.00  0.00    +0.000 C 
ATOM      2  N   UNL     1      19.371  -9.196  26.619  0.00  0.00    +0.000 N 
ATOM      3  C   UNL     1      20.523  -9.336  25.982  0.00  0.00    +0.000 A 
ATOM      4  C   UNL     1      20.960  -8.091  25.593  0.00  0.00    +0.000 A 
ATOM      5  C   UNL     1      20.004  -7.172  26.029  0.00  0.00    +0.000 A 
ATOM      6  C   UNL     1      20.007  -5.816  25.875  0.00  0.00    +0.000 A 
ATOM      7  C   UNL     1      18.931  -5.102  26.405  0.00  0.00    +0.000 A 
ATOM      8  C   UNL     1      17.921  -5.797  27.056  0.00  0.00    +0.000 A 
ATOM      9  C   UNL     1      17.943  -7.187  27.200  0.00  0.00    +0.000 A 
ATOM     10  C   UNL     1      19.028  -7.896  26.664  0.00  0.00    +0.000 A 
ATOM     11  C   UNL     1      22.191  -8.002  24.888  0.00  0.00    +0.000 C 
ATOM     12  O   UNL     1      22.960  -7.040  25.125  0.00  0.00    +0.000 OA
ATOM     13  C   UNL     1      22.680  -9.006  23.822  0.00  0.00    +0.000 C 
ATOM     14  C   UNL     1      22.029 -10.378  24.307  0.00  0.00    +0.000 C 
ATOM     15  C   UNL     1      21.449 -10.414  25.588  0.00  0.00    +0.000 C 
ENDROOT
BRANCH  13  16
ATOM     16  C   UNL     1      24.127  -9.299  24.504  0.00  0.00    +0.000 C 
BRANCH  16  17
ATOM     17  N   UNL     1      25.035  -9.362  23.383  0.00  0.00    +0.000 N 
ATOM     18  C   UNL     1      25.317 -10.496  22.701  0.00  0.00    +0.000 A 
ATOM     19  C   UNL     1      26.211 -10.171  21.722  0.00  0.00    +0.000 A 
ATOM     20  N   UNL     1      26.469  -8.861  21.807  0.00  0.00    +0.000 NA
ATOM     21  C   UNL     1      25.737  -8.356  22.842  0.00  0.00    +0.000 A 
ATOM     22  N   UNL     1      25.707  -7.000  23.282  0.00  0.00    +0.000 NA
ENDBRANCH  16  17
ENDBRANCH  13  16
TORSDOF 2
ENDMDL
MODEL 5
REMARK VINA RESULT:      -6.2     18.833     20.341
REMARK  Name = 
REMARK  2 active torsions:
REMARK  status: ('A' for Active; 'I' for Inactive)
REMARK    1  A    between atoms: C_13  and  C_14
REMARK    2  A    between atoms: C_14  and  N_15
REMARK                            x       y       z     vdW  Elec       q    Type
REMARK                         _______ _______ _______ _____ _____    ______ ____
ROOT
ATOM      1  C   UNL     1      33.961  22.361  29.214  0.00  0.00    +0.000 C 
ATOM      2  N   UNL     1      32.543  22.382  29.502  0.00  0.00    +0.000 N 
ATOM      3  C   UNL     1      31.607  22.632  28.600  0.00  0.00    +0.000 A 
ATOM      4  C   UNL     1      30.379  22.570  29.217  0.00  0.00    +0.000 A 
ATOM      5  C   UNL     1      30.614  22.264  30.558  0.00  0.00    +0.000 A 
ATOM      6  C   UNL     1      29.701  22.102  31.558  0.00  0.00    +0.000 A 
ATOM      7  C   UNL     1      30.183  21.799  32.833  0.00  0.00    +0.000 A 
ATOM      8  C   UNL     1      31.553  21.678  33.020  0.00  0.00    +0.000 A 
ATOM      9  C   UNL     1      32.467  21.849  31.977  0.00  0.00    +0.000 A 
ATOM     10  C   UNL     1      31.973  22.154  30.700  0.00  0.00    +0.000 A 
ATOM     11  C   UNL     1      29.219  22.810  28.430  0.00  0.00    +0.000 C 
ATOM     12  O   UNL     1      28.266  23.452  28.932  0.00  0.00    +0.000 OA
ATOM     13  C   UNL     1      29.019  22.336  26.975  0.00  0.00    +0.000 C 
ATOM     14  C   UNL     1      30.504  22.340  26.396  0.00  0.00    +0.000 C 
ATOM     15  C   UNL     1      31.509  22.956  27.165  0.00  0.00    +0.000 C 
ENDROOT
BRANCH  13  16
ATOM     16  C   UNL     1      28.636  23.794  26.364  0.00  0.00    +0.000 C 
BRANCH  16  17
ATOM     17  N   UNL     1      27.625  23.505  25.376  0.00  0.00    +0.000 N 
ATOM     18  C   UNL     1      26.320  23.297  25.666  0.00  0.00    +0.000 A 
ATOM     19  C   UNL     1      25.674  23.050  24.489  0.00  0.00    +0.000 A 
ATOM     20  N   UNL     1      26.571  23.108  23.498  0.00  0.00    +0.000 NA
ATOM     21  C   UNL     1      27.787  23.391  24.050  0.00  0.00    +0.000 A 
ATOM     22  N   UNL     1      29.022  23.547  23.354  0.00  0.00    +0.000 NA
ENDBRANCH  16  17
ENDBRANCH  13  16
TORSDOF 2
ENDMDL
MODEL 6
REMARK VINA RESULT:      -6.0     23.298     26.407
REMARK  Name = 
REMARK  2 active torsions:
REMARK  status: ('A' for Active; 'I' for Inactive)
REMARK    1  A    between atoms: C_13  and  C_14
REMARK    2  A    between atoms: C_14  and  N_15
REMARK                            x       y       z     vdW  Elec       q    Type
REMARK                         _______ _______ _______ _____ _____    ______ ____
ROOT
ATOM      1  C   UNL     1      29.416  30.283  21.737  0.00  0.00    +0.000 C 
ATOM      2  N   UNL     1      29.498  29.009  21.055  0.00  0.00    +0.000 N 
ATOM      3  C   UNL     1      29.118  27.857  21.587  0.00  0.00    +0.000 A 
ATOM      4  C   UNL     1      29.333  26.859  20.666  0.00  0.00    +0.000 A 
ATOM      5  C   UNL     1      29.870  27.465  19.529  0.00  0.00    +0.000 A 
ATOM      6  C   UNL     1      30.246  26.876  18.358  0.00  0.00    +0.000 A 
ATOM      7  C   UNL     1      30.765  27.699  17.356  0.00  0.00    +0.000 A 
ATOM      8  C   UNL     1      30.870  29.062  17.597  0.00  0.00    +0.000 A 
ATOM      9  C   UNL     1      30.477  29.640  18.807  0.00  0.00    +0.000 A 
ATOM     10  C   UNL     1      29.958  28.805  19.807  0.00  0.00    +0.000 A 
ATOM     11  C   UNL     1      28.996  25.526  21.029  0.00  0.00    +0.000 C 
ATOM     12  O   UNL     1      29.739  24.587  20.657  0.00  0.00    +0.000 OA
ATOM     13  C   UNL     1      27.760  25.117  21.859  0.00  0.00    +0.000 C 
ATOM     14  C   UNL     1      27.537  26.381  22.804  0.00  0.00    +0.000 C 
ATOM     15  C   UNL     1      28.552  27.354  22.853  0.00  0.00    +0.000 C 
ENDROOT
BRANCH  13  16
ATOM     16  C   UNL     1      28.572  24.259  22.976  0.00  0.00    +0.000 C 
BRANCH  16  17
ATOM     17  N   UNL     1      27.537  23.728  23.831  0.00  0.00    +0.000 N 
ATOM     18  C   UNL     1      26.298  23.395  23.401  0.00  0.00    +0.000 A 
ATOM     19  C   UNL     1      25.601  22.938  24.482  0.00  0.00    +0.000 A 
ATOM     20  N   UNL     1      26.402  22.992  25.552  0.00  0.00    +0.000 NA
ATOM     21  C   UNL     1      27.609  23.485  25.147  0.00  0.00    +0.000 A 
ATOM     22  N   UNL     1      28.756  23.704  25.965  0.00  0.00    +0.000 NA
ENDBRANCH  16  17
ENDBRANCH  13  16
TORSDOF 2
ENDMDL
MODEL 7
REMARK VINA RESULT:      -5.8     11.418     13.454
REMARK  Name = 
REMARK  2 active torsions:
REMARK  status: ('A' for Active; 'I' for Inactive)
REMARK    1  A    between atoms: C_13  and  C_14
REMARK    2  A    between atoms: C_14  and  N_15
REMARK                            x       y       z     vdW  Elec       q    Type
REMARK                         _______ _______ _______ _____ _____    ______ ____
ROOT
ATOM      1  C   UNL     1      16.122  23.792  37.109  0.00  0.00    +0.000 C 
ATOM      2  N   UNL     1      17.059  22.910  36.446  0.00  0.00    +0.000 N 
ATOM      3  C   UNL     1      18.266  22.626  36.910  0.00  0.00    +0.000 A 
ATOM      4  C   UNL     1      18.879  21.761  36.033  0.00  0.00    +0.000 A 
ATOM      5  C   UNL     1      17.974  21.527  34.996  0.00  0.00    +0.000 A 
ATOM      6  C   UNL     1      18.139  20.738  33.896  0.00  0.00    +0.000 A 
ATOM      7  C   UNL     1      17.082  20.665  32.987  0.00  0.00    +0.000 A 
ATOM      8  C   UNL     1      15.926  21.390  33.244  0.00  0.00    +0.000 A 
ATOM      9  C   UNL     1      15.784  22.191  34.379  0.00  0.00    +0.000 A 
ATOM     10  C   UNL     1      16.851  22.259  35.286  0.00  0.00    +0.000 A 
ATOM     11  C   UNL     1      20.196  21.321  36.335  0.00  0.00    +0.000 C 
ATOM     12  O   UNL     1      21.023  21.188  35.401  0.00  0.00    +0.000 OA
ATOM     13  C   UNL     1      20.717  20.977  37.746  0.00  0.00    +0.000 C 
ATOM     14  C   UNL     1      19.867  21.948  38.681  0.00  0.00    +0.000 C 
ATOM     15  C   UNL     1      19.119  22.967  38.064  0.00  0.00    +0.000 C 
ENDROOT
BRANCH  13  16
ATOM     16  C   UNL     1      22.020  21.948  37.697  0.00  0.00    +0.000 C 
BRANCH  16  17
ATOM     17  N   UNL     1      23.112  21.089  38.092  0.00  0.00    +0.000 N 
ATOM     18  C   UNL     1      23.058  19.737  38.068  0.00  0.00    +0.000 A 
ATOM     19  C   UNL     1      24.263  19.274  38.510  0.00  0.00    +0.000 A 
ATOM     20  N   UNL     1      25.039  20.326  38.799  0.00  0.00    +0.000 NA
ATOM     21  C   UNL     1      24.321  21.458  38.538  0.00  0.00    +0.000 A 
ATOM     22  N   UNL     1      24.765  22.803  38.702  0.00  0.00    +0.000 NA
ENDBRANCH  16  17
ENDBRANCH  13  16
TORSDOF 2
ENDMDL
MODEL 8
REMARK VINA RESULT:      -5.7     18.200     19.889
REMARK  Name = 
REMARK  2 active torsions:
REMARK  status: ('A' for Active; 'I' for Inactive)
REMARK    1  A    between atoms: C_13  and  C_14
REMARK    2  A    between atoms: C_14  and  N_15
REMARK                            x       y       z     vdW  Elec       q    Type
REMARK                         _______ _______ _______ _____ _____    ______ ____
ROOT
ATOM      1  C   UNL     1      34.739   3.710  38.964  0.00  0.00    +0.000 C 
ATOM      2  N   UNL     1      34.361   3.270  37.638  0.00  0.00    +0.000 N 
ATOM      3  C   UNL     1      34.184   2.002  37.301  0.00  0.00    +0.000 A 
ATOM      4  C   UNL     1      33.831   1.949  35.972  0.00  0.00    +0.000 A 
ATOM      5  C   UNL     1      33.800   3.266  35.509  0.00  0.00    +0.000 A 
ATOM      6  C   UNL     1      33.502   3.711  34.254  0.00  0.00    +0.000 A 
ATOM      7  C   UNL     1      33.540   5.089  34.030  0.00  0.00    +0.000 A 
ATOM      8  C   UNL     1      33.875   5.930  35.082  0.00  0.00    +0.000 A 
ATOM      9  C   UNL     1      34.175   5.447  36.358  0.00  0.00    +0.000 A 
ATOM     10  C   UNL     1      34.135   4.062  36.574  0.00  0.00    +0.000 A 
ATOM     11  C   UNL     1      33.592   0.674  35.391  0.00  0.00    +0.000 C 
ATOM     12  O   UNL     1      33.971   0.461  34.214  0.00  0.00    +0.000 OA
ATOM     13  C   UNL     1      32.885  -0.504  36.093  0.00  0.00    +0.000 C 
ATOM     14  C   UNL     1      33.267  -0.281  37.625  0.00  0.00    +0.000 C 
ATOM     15  C   UNL     1      34.263   0.668  37.923  0.00  0.00    +0.000 C 
ENDROOT
BRANCH  13  16
ATOM     16  C   UNL     1      34.056  -1.600  35.824  0.00  0.00    +0.000 C 
BRANCH  16  17
ATOM     17  N   UNL     1      33.336  -2.823  35.556  0.00  0.00    +0.000 N 
ATOM     18  C   UNL     1      32.738  -3.106  34.376  0.00  0.00    +0.000 A 
ATOM     19  C   UNL     1      32.159  -4.336  34.498  0.00  0.00    +0.000 A 
ATOM     20  N   UNL     1      32.400  -4.794  35.732  0.00  0.00    +0.000 NA
ATOM     21  C   UNL     1      33.134  -3.851  36.393  0.00  0.00    +0.000 A 
ATOM     22  N   UNL     1      33.613  -3.931  37.733  0.00  0.00    +0.000 NA
ENDBRANCH  16  17
ENDBRANCH  13  16
TORSDOF 2
ENDMDL
MODEL 9
REMARK VINA RESULT:      -5.6     21.137     22.914
REMARK  Name = 
REMARK  2 active torsions:
REMARK  status: ('A' for Active; 'I' for Inactive)
REMARK    1  A    between atoms: C_13  and  C_14
REMARK    2  A    between atoms: C_14  and  N_15
REMARK                            x       y       z     vdW  Elec       q    Type
REMARK                         _______ _______ _______ _____ _____    ______ ____
ROOT
ATOM      1  C   UNL     1      13.874 -12.306  27.994  0.00  0.00    +0.000 C 
ATOM      2  N   UNL     1      14.063 -11.103  27.211  0.00  0.00    +0.000 N 
ATOM      3  C   UNL     1      15.207 -10.441  27.134  0.00  0.00    +0.000 A 
ATOM      4  C   UNL     1      15.029  -9.356  26.308  0.00  0.00    +0.000 A 
ATOM      5  C   UNL     1      13.701  -9.388  25.879  0.00  0.00    +0.000 A 
ATOM      6  C   UNL     1      13.062  -8.514  25.048  0.00  0.00    +0.000 A 
ATOM      7  C   UNL     1      11.717  -8.756  24.764  0.00  0.00    +0.000 A 
ATOM      8  C   UNL     1      11.101  -9.862  25.333  0.00  0.00    +0.000 A 
ATOM      9  C   UNL     1      11.778 -10.741  26.181  0.00  0.00    +0.000 A 
ATOM     10  C   UNL     1      13.129 -10.490  26.461  0.00  0.00    +0.000 A 
ATOM     11  C   UNL     1      16.137  -8.495  26.081  0.00  0.00    +0.000 C 
ATOM     12  O   UNL     1      15.942  -7.259  26.004  0.00  0.00    +0.000 OA
ATOM     13  C   UNL     1      17.600  -8.957  25.911  0.00  0.00    +0.000 C 
ATOM     14  C   UNL     1      17.662 -10.269  26.813  0.00  0.00    +0.000 C 
ATOM     15  C   UNL     1      16.578 -10.530  27.671  0.00  0.00    +0.000 C 
ENDROOT
BRANCH  13  16
ATOM     16  C   UNL     1      18.228  -7.983  27.052  0.00  0.00    +0.000 C 
BRANCH  16  17
ATOM     17  N   UNL     1      19.254  -7.244  26.356  0.00  0.00    +0.000 N 
ATOM     18  C   UNL     1      20.356  -7.810  25.810  0.00  0.00    +0.000 A 
ATOM     19  C   UNL     1      21.091  -6.808  25.246  0.00  0.00    +0.000 A 
ATOM     20  N   UNL     1      20.448  -5.651  25.445  0.00  0.00    +0.000 NA
ATOM     21  C   UNL     1      19.303  -5.922  26.137  0.00  0.00    +0.000 A 
ATOM     22  N   UNL     1      18.319  -4.979  26.556  0.00  0.00    +0.000 NA
ENDBRANCH  16  17
ENDBRANCH  13  16
TORSDOF 2
ENDMDL
MODEL 10
REMARK VINA RESULT:      -5.5     19.474     20.643
REMARK  Name = 
REMARK  2 active torsions:
REMARK  status: ('A' for Active; 'I' for Inactive)
REMARK    1  A    between atoms: C_13  and  C_14
REMARK    2  A    between atoms: C_14  and  N_15
REMARK                            x       y       z     vdW  Elec       q    Type
REMARK                         _______ _______ _______ _____ _____    ______ ____
ROOT
ATOM      1  C   UNL     1      29.628  23.760  32.250  0.00  0.00    +0.000 C 
ATOM      2  N   UNL     1      30.207  23.319  30.999  0.00  0.00    +0.000 N 
ATOM      3  C   UNL     1      29.532  23.220  29.864  0.00  0.00    +0.000 A 
ATOM      4  C   UNL     1      30.389  22.775  28.884  0.00  0.00    +0.000 A 
ATOM      5  C   UNL     1      31.637  22.605  29.484  0.00  0.00    +0.000 A 
ATOM      6  C   UNL     1      32.798  22.177  28.909  0.00  0.00    +0.000 A 
ATOM      7  C   UNL     1      33.929  22.085  29.723  0.00  0.00    +0.000 A 
ATOM      8  C   UNL     1      33.819  22.429  31.063  0.00  0.00    +0.000 A 
ATOM      9  C   UNL     1      32.618  22.864  31.627  0.00  0.00    +0.000 A 
ATOM     10  C   UNL     1      31.487  22.954  30.802  0.00  0.00    +0.000 A 
ATOM     11  C   UNL     1      29.872  22.592  27.572  0.00  0.00    +0.000 C 
ATOM     12  O   UNL     1      30.268  21.616  26.893  0.00  0.00    +0.000 OA
ATOM     13  C   UNL     1      28.842  23.515  26.887  0.00  0.00    +0.000 C 
ATOM     14  C   UNL     1      27.982  24.057  28.115  0.00  0.00    +0.000 C 
ATOM     15  C   UNL     1      28.161  23.439  29.366  0.00  0.00    +0.000 C 
ENDROOT
BRANCH  13  16
ATOM     16  C   UNL     1      27.786  22.342  26.494  0.00  0.00    +0.000 C 
BRANCH  16  17
ATOM     17  N   UNL     1      27.212  22.791  25.248  0.00  0.00    +0.000 N 
ATOM     18  C   UNL     1      25.897  23.061  25.074  0.00  0.00    +0.000 A 
ATOM     19  C   UNL     1      25.730  23.451  23.777  0.00  0.00    +0.000 A 
ATOM     20  N   UNL     1      26.922  23.420  23.171  0.00  0.00    +0.000 NA
ATOM     21  C   UNL     1      27.847  23.008  24.087  0.00  0.00    +0.000 A 
ATOM     22  N   UNL     1      29.245  22.839  23.868  0.00  0.00    +0.000 NA
ENDBRANCH  16  17
ENDBRANCH  13  16
TORSDOF 2
ENDMDL
