MODEL 1
REMARK VINA RESULT:      -6.8      0.000      0.000
REMARK  Name = 
REMARK  3 active torsions:
REMARK  status: ('A' for Active; 'I' for Inactive)
REMARK    1  A    between atoms: C_2  and  C_3
REMARK    2  A    between atoms: C_3  and  N_4
REMARK    3  A    between atoms: C_7  and  C_8
REMARK                            x       y       z     vdW  Elec       q    Type
REMARK                         _______ _______ _______ _____ _____    ______ ____
ROOT
ATOM      1  C   UNL     1      33.132  -2.315  34.249  0.00  0.00    +0.000 A 
ATOM      2  C   UNL     1      32.262  -2.162  35.299  0.00  0.00    +0.000 A 
ATOM      3  N   UNL     1      31.996  -0.858  35.496  0.00  0.00    +0.000 NA
ATOM      4  C   UNL     1      32.683  -0.163  34.588  0.00  0.00    +0.000 A 
ATOM      5  C   UNL     1      32.741   1.210  34.381  0.00  0.00    +0.000 A 
ATOM      6  C   UNL     1      33.532   1.715  33.363  0.00  0.00    +0.000 A 
ATOM      7  C   UNL     1      33.633   3.188  33.095  0.00  0.00    +0.000 C 
ATOM      8  C   UNL     1      34.246   0.844  32.576  0.00  0.00    +0.000 A 
ATOM      9  C   UNL     1      34.175  -0.535  32.799  0.00  0.00    +0.000 A 
ATOM     10  C   UNL     1      33.391  -1.039  33.807  0.00  0.00    +0.000 A 
ENDROOT
BRANCH   1  14
ATOM     11  N   UNL     1      33.985  -5.663  30.724  0.00  0.00    +0.000 NA
ATOM     12  C   UNL     1      34.051  -5.098  32.058  0.00  0.00    +0.000 A 
ATOM     13  N   UNL     1      33.533  -3.953  32.468  0.00  0.00    +0.000 NA
ATOM     14  C   UNL     1      33.682  -3.587  33.703  0.00  0.00    +0.000 A 
ATOM     15  C   UNL     1      34.385  -4.434  34.527  0.00  0.00    +0.000 A 
ATOM     16  S   UNL     1      34.789  -5.709  33.466  0.00  0.00    +0.000 S 
BRANCH  11  17
ATOM     17  C   UNL     1      34.653  -6.944  30.580  0.00  0.00    +0.000 C 
BRANCH  17  19
ATOM     18  C   UNL     1      34.108  -6.552  28.273  0.00  0.00    +0.000 C 
ATOM     19  C   UNL     1      34.631  -7.394  29.165  0.00  0.00    +0.000 C 
ENDBRANCH  17  19
ENDBRANCH  11  17
ENDBRANCH   1  14
TORSDOF 3
ENDMDL
MODEL 2
REMARK VINA RESULT:      -6.6     20.676     22.117
REMARK  Name = 
REMARK  3 active torsions:
REMARK  status: ('A' for Active; 'I' for Inactive)
REMARK    1  A    between atoms: C_2  and  C_3
REMARK    2  A    between atoms: C_3  and  N_4
REMARK    3  A    between atoms: C_7  and  C_8
REMARK                            x       y       z     vdW  Elec       q    Type
REMARK                         _______ _______ _______ _____ _____    ______ ____
ROOT
ATOM      1  C   UNL     1      17.760  10.772  36.754  0.00  0.00    +0.000 A 
ATOM      2  C   UNL     1      17.975   9.490  37.194  0.00  0.00    +0.000 A 
ATOM      3  N   UNL     1      18.900   9.483  38.170  0.00  0.00    +0.000 NA
ATOM      4  C   UNL     1      19.290  10.742  38.369  0.00  0.00    +0.000 A 
ATOM      5  C   UNL     1      20.221  11.253  39.266  0.00  0.00    +0.000 A 
ATOM      6  C   UNL     1      20.466  12.614  39.297  0.00  0.00    +0.000 A 
ATOM      7  C   UNL     1      21.461  13.218  40.244  0.00  0.00    +0.000 C 
ATOM      8  C   UNL     1      19.781  13.437  38.437  0.00  0.00    +0.000 A 
ATOM      9  C   UNL     1      18.846  12.907  37.541  0.00  0.00    +0.000 A 
ATOM     10  C   UNL     1      18.600  11.557  37.508  0.00  0.00    +0.000 A 
ENDROOT
BRANCH   1  14
ATOM     11  N   UNL     1      16.312  11.500  32.092  0.00  0.00    +0.000 NA
ATOM     12  C   UNL     1      16.194  11.539  33.537  0.00  0.00    +0.000 A 
ATOM     13  N   UNL     1      17.079  11.116  34.423  0.00  0.00    +0.000 NA
ATOM     14  C   UNL     1      16.820  11.222  35.689  0.00  0.00    +0.000 A 
ATOM     15  C   UNL     1      15.613  11.781  36.038  0.00  0.00    +0.000 A 
ATOM     16  S   UNL     1      14.924  12.120  34.513  0.00  0.00    +0.000 S 
BRANCH  11  17
ATOM     17  C   UNL     1      15.167  12.041  31.381  0.00  0.00    +0.000 C 
BRANCH  17  19
ATOM     18  C   UNL     1      16.653  13.531  30.220  0.00  0.00    +0.000 C 
ATOM     19  C   UNL     1      15.477  13.386  30.832  0.00  0.00    +0.000 C 
ENDBRANCH  17  19
ENDBRANCH  11  17
ENDBRANCH   1  14
TORSDOF 3
ENDMDL
MODEL 3
REMARK VINA RESULT:      -6.4     18.354     21.295
REMARK  Name = 
REMARK  3 active torsions:
REMARK  status: ('A' for Active; 'I' for Inactive)
REMARK    1  A    between atoms: C_2  and  C_3
REMARK    2  A    between atoms: C_3  and  N_4
REMARK    3  A    between atoms: C_7  and  C_8
REMARK                            x       y       z     vdW  Elec       q    Type
REMARK                         _______ _______ _______ _____ _____    ______ ____
ROOT
ATOM      1  C   UNL     1      16.618  11.211  36.448  0.00  0.00    +0.000 A 
ATOM      2  C   UNL     1      15.562  11.945  36.926  0.00  0.00    +0.000 A 
ATOM      3  N   UNL     1      14.754  12.312  35.914  0.00  0.00    +0.000 NA
ATOM      4  C   UNL     1      15.273  11.827  34.786  0.00  0.00    +0.000 A 
ATOM      5  C   UNL     1      14.812  11.934  33.479  0.00  0.00    +0.000 A 
ATOM      6  C   UNL     1      15.524  11.340  32.451  0.00  0.00    +0.000 A 
ATOM      7  C   UNL     1      15.072  11.424  31.023  0.00  0.00    +0.000 C 
ATOM      8  C   UNL     1      16.677  10.654  32.746  0.00  0.00    +0.000 A 
ATOM      9  C   UNL     1      17.127  10.556  34.067  0.00  0.00    +0.000 A 
ATOM     10  C   UNL     1      16.423  11.143  35.088  0.00  0.00    +0.000 A 
ENDROOT
BRANCH   1  14
ATOM     11  N   UNL     1      21.349  10.159  37.381  0.00  0.00    +0.000 NA
ATOM     12  C   UNL     1      19.919  10.153  37.621  0.00  0.00    +0.000 A 
ATOM     13  N   UNL     1      18.981  10.710  36.874  0.00  0.00    +0.000 NA
ATOM     14  C   UNL     1      17.738  10.615  37.229  0.00  0.00    +0.000 A 
ATOM     15  C   UNL     1      17.467   9.924  38.387  0.00  0.00    +0.000 A 
ATOM     16  S   UNL     1      19.028   9.454  38.893  0.00  0.00    +0.000 S 
BRANCH  11  17
ATOM     17  C   UNL     1      22.129   9.458  38.385  0.00  0.00    +0.000 C 
BRANCH  17  19
ATOM     18  C   UNL     1      23.581   9.051  36.514  0.00  0.00    +0.000 C 
ATOM     19  C   UNL     1      23.453   9.061  37.841  0.00  0.00    +0.000 C 
ENDBRANCH  17  19
ENDBRANCH  11  17
ENDBRANCH   1  14
TORSDOF 3
ENDMDL
MODEL 4
REMARK VINA RESULT:      -6.4     20.591     22.761
REMARK  Name = 
REMARK  3 active torsions:
REMARK  status: ('A' for Active; 'I' for Inactive)
REMARK    1  A    between atoms: C_2  and  C_3
REMARK    2  A    between atoms: C_3  and  N_4
REMARK    3  A    between atoms: C_7  and  C_8
REMARK                            x       y       z     vdW  Elec       q    Type
REMARK                         _______ _______ _______ _____ _____    ______ ____
ROOT
ATOM      1  C   UNL     1      17.243  10.544  35.510  0.00  0.00    +0.000 A 
ATOM      2  C   UNL     1      17.751   9.868  34.429  0.00  0.00    +0.000 A 
ATOM      3  N   UNL     1      17.168  10.298  33.295  0.00  0.00    +0.000 NA
ATOM      4  C   UNL     1      16.288  11.244  33.626  0.00  0.00    +0.000 A 
ATOM      5  C   UNL     1      15.442  11.991  32.815  0.00  0.00    +0.000 A 
ATOM      6  C   UNL     1      14.602  12.932  33.385  0.00  0.00    +0.000 A 
ATOM      7  C   UNL     1      13.668  13.765  32.558  0.00  0.00    +0.000 C 
ATOM      8  C   UNL     1      14.623  13.108  34.748  0.00  0.00    +0.000 A 
ATOM      9  C   UNL     1      15.482  12.348  35.549  0.00  0.00    +0.000 A 
ATOM     10  C   UNL     1      16.316  11.414  34.986  0.00  0.00    +0.000 A 
ENDROOT
BRANCH   1  14
ATOM     11  N   UNL     1      16.336   9.678  40.284  0.00  0.00    +0.000 NA
ATOM     12  C   UNL     1      17.155   9.974  39.123  0.00  0.00    +0.000 A 
ATOM     13  N   UNL     1      16.748  10.109  37.873  0.00  0.00    +0.000 NA
ATOM     14  C   UNL     1      17.612  10.375  36.943  0.00  0.00    +0.000 A 
ATOM     15  C   UNL     1      18.927  10.503  37.327  0.00  0.00    +0.000 A 
ATOM     16  S   UNL     1      18.835  10.230  39.009  0.00  0.00    +0.000 S 
BRANCH  11  17
ATOM     17  C   UNL     1      17.074   9.591  41.531  0.00  0.00    +0.000 C 
BRANCH  17  19
ATOM     18  C   UNL     1      15.709   7.700  42.113  0.00  0.00    +0.000 C 
ATOM     19  C   UNL     1      16.311   8.810  42.540  0.00  0.00    +0.000 C 
ENDBRANCH  17  19
ENDBRANCH  11  17
ENDBRANCH   1  14
TORSDOF 3
ENDMDL
MODEL 5
REMARK VINA RESULT:      -6.3     20.636     22.663
REMARK  Name = 
REMARK  3 active torsions:
REMARK  status: ('A' for Active; 'I' for Inactive)
REMARK    1  A    between atoms: C_2  and  C_3
REMARK    2  A    between atoms: C_3  and  N_4
REMARK    3  A    between atoms: C_7  and  C_8
REMARK                            x       y       z     vdW  Elec       q    Type
REMARK                         _______ _______ _______ _____ _____    ______ ____
ROOT
ATOM      1  C   UNL     1      17.434  10.425  37.565  0.00  0.00    +0.000 A 
ATOM      2  C   UNL     1      18.749  10.045  37.466  0.00  0.00    +0.000 A 
ATOM      3  N   UNL     1      19.141   9.424  38.593  0.00  0.00    +0.000 NA
ATOM      4  C   UNL     1      18.097   9.396  39.423  0.00  0.00    +0.000 A 
ATOM      5  C   UNL     1      17.996   8.866  40.704  0.00  0.00    +0.000 A 
ATOM      6  C   UNL     1      16.795   8.952  41.387  0.00  0.00    +0.000 A 
ATOM      7  C   UNL     1      16.630   8.398  42.771  0.00  0.00    +0.000 C 
ATOM      8  C   UNL     1      15.724   9.564  40.782  0.00  0.00    +0.000 A 
ATOM      9  C   UNL     1      15.844  10.092  39.492  0.00  0.00    +0.000 A 
ATOM     10  C   UNL     1      17.032  10.007  38.812  0.00  0.00    +0.000 A 
ENDROOT
BRANCH   1  14
ATOM     11  N   UNL     1      15.882  11.428  32.988  0.00  0.00    +0.000 NA
ATOM     12  C   UNL     1      15.930  11.568  34.431  0.00  0.00    +0.000 A 
ATOM     13  N   UNL     1      16.692  10.892  35.274  0.00  0.00    +0.000 NA
ATOM     14  C   UNL     1      16.615  11.137  36.545  0.00  0.00    +0.000 A 
ATOM     15  C   UNL     1      15.726  12.108  36.944  0.00  0.00    +0.000 A 
ATOM     16  S   UNL     1      15.054  12.608  35.456  0.00  0.00    +0.000 S 
BRANCH  11  17
ATOM     17  C   UNL     1      14.940  12.315  32.330  0.00  0.00    +0.000 C 
BRANCH  17  19
ATOM     18  C   UNL     1      16.150  13.301  30.503  0.00  0.00    +0.000 C 
ATOM     19  C   UNL     1      15.232  12.409  30.877  0.00  0.00    +0.000 C 
ENDBRANCH  17  19
ENDBRANCH  11  17
ENDBRANCH   1  14
TORSDOF 3
ENDMDL
MODEL 6
REMARK VINA RESULT:      -6.1     27.150     30.993
REMARK  Name = 
REMARK  3 active torsions:
REMARK  status: ('A' for Active; 'I' for Inactive)
REMARK    1  A    between atoms: C_2  and  C_3
REMARK    2  A    between atoms: C_3  and  N_4
REMARK    3  A    between atoms: C_7  and  C_8
REMARK                            x       y       z     vdW  Elec       q    Type
REMARK                         _______ _______ _______ _____ _____    ______ ____
ROOT
ATOM      1  C   UNL     1      28.865  24.838  21.890  0.00  0.00    +0.000 A 
ATOM      2  C   UNL     1      27.810  23.969  21.765  0.00  0.00    +0.000 A 
ATOM      3  N   UNL     1      27.821  23.076  22.771  0.00  0.00    +0.000 NA
ATOM      4  C   UNL     1      28.870  23.352  23.547  0.00  0.00    +0.000 A 
ATOM      5  C   UNL     1      29.308  22.721  24.705  0.00  0.00    +0.000 A 
ATOM      6  C   UNL     1      30.438  23.188  25.353  0.00  0.00    +0.000 A 
ATOM      7  C   UNL     1      30.956  22.545  26.606  0.00  0.00    +0.000 C 
ATOM      8  C   UNL     1      31.106  24.272  24.837  0.00  0.00    +0.000 A 
ATOM      9  C   UNL     1      30.650  24.896  23.670  0.00  0.00    +0.000 A 
ATOM     10  C   UNL     1      29.530  24.435  23.025  0.00  0.00    +0.000 A 
ENDROOT
BRANCH   1  14
ATOM     11  N   UNL     1      30.702  26.886  17.792  0.00  0.00    +0.000 NA
ATOM     12  C   UNL     1      30.072  26.872  19.099  0.00  0.00    +0.000 A 
ATOM     13  N   UNL     1      29.789  25.814  19.838  0.00  0.00    +0.000 NA
ATOM     14  C   UNL     1      29.220  25.972  20.992  0.00  0.00    +0.000 A 
ATOM     15  C   UNL     1      28.941  27.261  21.383  0.00  0.00    +0.000 A 
ATOM     16  S   UNL     1      29.519  28.168  20.057  0.00  0.00    +0.000 S 
BRANCH  11  17
ATOM     17  C   UNL     1      30.883  28.211  17.227  0.00  0.00    +0.000 C 
BRANCH  17  19
ATOM     18  C   UNL     1      29.494  27.262  15.511  0.00  0.00    +0.000 C 
ATOM     19  C   UNL     1      30.174  28.330  15.927  0.00  0.00    +0.000 C 
ENDBRANCH  17  19
ENDBRANCH  11  17
ENDBRANCH   1  14
TORSDOF 3
ENDMDL
MODEL 7
REMARK VINA RESULT:      -6.0      1.876      7.071
REMARK  Name = 
REMARK  3 active torsions:
REMARK  status: ('A' for Active; 'I' for Inactive)
REMARK    1  A    between atoms: C_2  and  C_3
REMARK    2  A    between atoms: C_3  and  N_4
REMARK    3  A    between atoms: C_7  and  C_8
REMARK                            x       y       z     vdW  Elec       q    Type
REMARK                         _______ _______ _______ _____ _____    ______ ____
ROOT
ATOM      1  C   UNL     1      34.022  -4.497  33.650  0.00  0.00    +0.000 A 
ATOM      2  C   UNL     1      34.552  -5.419  34.519  0.00  0.00    +0.000 A 
ATOM      3  N   UNL     1      34.896  -6.538  33.856  0.00  0.00    +0.000 NA
ATOM      4  C   UNL     1      34.594  -6.356  32.570  0.00  0.00    +0.000 A 
ATOM      5  C   UNL     1      34.758  -7.216  31.490  0.00  0.00    +0.000 A 
ATOM      6  C   UNL     1      34.369  -6.809  30.226  0.00  0.00    +0.000 A 
ATOM      7  C   UNL     1      34.522  -7.695  29.026  0.00  0.00    +0.000 C 
ATOM      8  C   UNL     1      33.826  -5.557  30.064  0.00  0.00    +0.000 A 
ATOM      9  C   UNL     1      33.669  -4.704  31.163  0.00  0.00    +0.000 A 
ATOM     10  C   UNL     1      34.055  -5.105  32.417  0.00  0.00    +0.000 A 
ENDROOT
BRANCH   1  14
ATOM     11  N   UNL     1      33.831   0.413  33.196  0.00  0.00    +0.000 NA
ATOM     12  C   UNL     1      33.461  -0.883  33.732  0.00  0.00    +0.000 A 
ATOM     13  N   UNL     1      33.960  -2.059  33.393  0.00  0.00    +0.000 NA
ATOM     14  C   UNL     1      33.518  -3.133  33.970  0.00  0.00    +0.000 A 
ATOM     15  C   UNL     1      32.536  -2.976  34.921  0.00  0.00    +0.000 A 
ATOM     16  S   UNL     1      32.311  -1.284  34.923  0.00  0.00    +0.000 S 
BRANCH  11  17
ATOM     17  C   UNL     1      33.102   1.530  33.771  0.00  0.00    +0.000 C 
BRANCH  17  19
ATOM     18  C   UNL     1      33.786   3.820  34.025  0.00  0.00    +0.000 C 
ATOM     19  C   UNL     1      33.557   2.815  33.179  0.00  0.00    +0.000 C 
ENDBRANCH  17  19
ENDBRANCH  11  17
ENDBRANCH   1  14
TORSDOF 3
ENDMDL
MODEL 8
REMARK VINA RESULT:      -5.9     16.696     19.598
REMARK  Name = 
REMARK  3 active torsions:
REMARK  status: ('A' for Active; 'I' for Inactive)
REMARK    1  A    between atoms: C_2  and  C_3
REMARK    2  A    between atoms: C_3  and  N_4
REMARK    3  A    between atoms: C_7  and  C_8
REMARK                            x       y       z     vdW  Elec       q    Type
REMARK                         _______ _______ _______ _____ _____    ______ ____
ROOT
ATOM      1  C   UNL     1      20.129   9.650  37.989  0.00  0.00    +0.000 A 
ATOM      2  C   UNL     1      20.203   9.168  39.272  0.00  0.00    +0.000 A 
ATOM      3  N   UNL     1      21.488   9.010  39.636  0.00  0.00    +0.000 NA
ATOM      4  C   UNL     1      22.250   9.382  38.607  0.00  0.00    +0.000 A 
ATOM      5  C   UNL     1      23.635   9.404  38.490  0.00  0.00    +0.000 A 
ATOM      6  C   UNL     1      24.215   9.836  37.311  0.00  0.00    +0.000 A 
ATOM      7  C   UNL     1      25.704   9.879  37.129  0.00  0.00    +0.000 C 
ATOM      8  C   UNL     1      23.406  10.237  36.275  0.00  0.00    +0.000 A 
ATOM      9  C   UNL     1      22.014  10.209  36.410  0.00  0.00    +0.000 A 
ATOM     10  C   UNL     1      21.435   9.782  37.579  0.00  0.00    +0.000 A 
ENDROOT
BRANCH   1  14
ATOM     11  N   UNL     1      17.442  10.046  33.868  0.00  0.00    +0.000 NA
ATOM     12  C   UNL     1      17.704  10.131  35.292  0.00  0.00    +0.000 A 
ATOM     13  N   UNL     1      18.830   9.832  35.917  0.00  0.00    +0.000 NA
ATOM     14  C   UNL     1      18.902   9.963  37.205  0.00  0.00    +0.000 A 
ATOM     15  C   UNL     1      17.777  10.416  37.854  0.00  0.00    +0.000 A 
ATOM     16  S   UNL     1      16.681  10.625  36.562  0.00  0.00    +0.000 S 
BRANCH  11  17
ATOM     17  C   UNL     1      16.101  10.446  33.479  0.00  0.00    +0.000 C 
BRANCH  17  19
ATOM     18  C   UNL     1      15.179  10.954  31.319  0.00  0.00    +0.000 C 
ATOM     19  C   UNL     1      16.130  11.223  32.213  0.00  0.00    +0.000 C 
ENDBRANCH  17  19
ENDBRANCH  11  17
ENDBRANCH   1  14
TORSDOF 3
ENDMDL
MODEL 9
REMARK VINA RESULT:      -5.8     16.465     17.968
REMARK  Name = 
REMARK  3 active torsions:
REMARK  status: ('A' for Active; 'I' for Inactive)
REMARK    1  A    between atoms: C_2  and  C_3
REMARK    2  A    between atoms: C_3  and  N_4
REMARK    3  A    between atoms: C_7  and  C_8
REMARK                            x       y       z     vdW  Elec       q    Type
REMARK                         _______ _______ _______ _____ _____    ______ ____
ROOT
ATOM      1  C   UNL     1      18.073  -7.811  27.270  0.00  0.00    +0.000 A 
ATOM      2  C   UNL     1      17.502  -6.569  27.146  0.00  0.00    +0.000 A 
ATOM      3  N   UNL     1      18.313  -5.751  26.450  0.00  0.00    +0.000 NA
ATOM      4  C   UNL     1      19.404  -6.445  26.122  0.00  0.00    +0.000 A 
ATOM      5  C   UNL     1      20.527  -6.048  25.406  0.00  0.00    +0.000 A 
ATOM      6  C   UNL     1      21.551  -6.951  25.182  0.00  0.00    +0.000 A 
ATOM      7  C   UNL     1      22.785  -6.576  24.417  0.00  0.00    +0.000 C 
ATOM      8  C   UNL     1      21.435  -8.229  25.674  0.00  0.00    +0.000 A 
ATOM      9  C   UNL     1      20.297  -8.612  26.392  0.00  0.00    +0.000 A 
ATOM     10  C   UNL     1      19.280  -7.719  26.616  0.00  0.00    +0.000 A 
ENDROOT
BRANCH   1  14
ATOM     11  N   UNL     1      17.366 -10.816  31.120  0.00  0.00    +0.000 NA
ATOM     12  C   UNL     1      17.213 -10.357  29.753  0.00  0.00    +0.000 A 
ATOM     13  N   UNL     1      17.748  -9.277  29.208  0.00  0.00    +0.000 NA
ATOM     14  C   UNL     1      17.512  -9.004  27.963  0.00  0.00    +0.000 A 
ATOM     15  C   UNL     1      16.702  -9.874  27.272  0.00  0.00    +0.000 A 
ATOM     16  S   UNL     1      16.330 -11.037  28.465  0.00  0.00    +0.000 S 
BRANCH  11  17
ATOM     17  C   UNL     1      16.652 -12.044  31.424  0.00  0.00    +0.000 C 
BRANCH  17  19
ATOM     18  C   UNL     1      14.273 -11.791  31.650  0.00  0.00    +0.000 C 
ATOM     19  C   UNL     1      15.457 -11.765  32.261  0.00  0.00    +0.000 C 
ENDBRANCH  17  19
ENDBRANCH  11  17
ENDBRANCH   1  14
TORSDOF 3
ENDMDL
MODEL 10
REMARK VINA RESULT:      -5.8     17.892     21.295
REMARK  Name = 
REMARK  3 active torsions:
REMARK  status: ('A' for Active; 'I' for Inactive)
REMARK    1  A    between atoms: C_2  and  C_3
REMARK    2  A    between atoms: C_3  and  N_4
REMARK    3  A    between atoms: C_7  and  C_8
REMARK                            x       y       z     vdW  Elec       q    Type
REMARK                         _______ _______ _______ _____ _____    ______ ____
ROOT
ATOM      1  C   UNL     1      20.320  11.897  38.272  0.00  0.00    +0.000 A 
ATOM      2  C   UNL     1      20.760  12.884  39.117  0.00  0.00    +0.000 A 
ATOM      3  N   UNL     1      22.105  12.919  39.133  0.00  0.00    +0.000 NA
ATOM      4  C   UNL     1      22.544  11.965  38.310  0.00  0.00    +0.000 A 
ATOM      5  C   UNL     1      23.846  11.604  37.986  0.00  0.00    +0.000 A 
ATOM      6  C   UNL     1      24.067  10.569  37.095  0.00  0.00    +0.000 A 
ATOM      7  C   UNL     1      25.451  10.136  36.710  0.00  0.00    +0.000 C 
ATOM      8  C   UNL     1      22.989   9.917  36.546  0.00  0.00    +0.000 A 
ATOM      9  C   UNL     1      21.685  10.295  36.883  0.00  0.00    +0.000 A 
ATOM     10  C   UNL     1      21.462  11.321  37.766  0.00  0.00    +0.000 A 
ENDROOT
BRANCH   1  14
ATOM     11  N   UNL     1      15.911  12.476  36.131  0.00  0.00    +0.000 NA
ATOM     12  C   UNL     1      16.903  11.826  36.965  0.00  0.00    +0.000 A 
ATOM     13  N   UNL     1      18.144  12.223  37.188  0.00  0.00    +0.000 NA
ATOM     14  C   UNL     1      18.911  11.524  37.965  0.00  0.00    +0.000 A 
ATOM     15  C   UNL     1      18.372  10.387  38.521  0.00  0.00    +0.000 A 
ATOM     16  S   UNL     1      16.787  10.398  37.886  0.00  0.00    +0.000 S 
BRANCH  11  17
ATOM     17  C   UNL     1      14.629  11.797  36.082  0.00  0.00    +0.000 C 
BRANCH  17  19
ATOM     18  C   UNL     1      12.578  12.997  36.437  0.00  0.00    +0.000 C 
ATOM     19  C   UNL     1      13.655  12.446  36.997  0.00  0.00    +0.000 C 
ENDBRANCH  17  19
ENDBRANCH  11  17
ENDBRANCH   1  14
TORSDOF 3
ENDMDL
