MODEL 1
REMARK VINA RESULT:      -7.7      0.000      0.000
REMARK  Name = 
REMARK  1 active torsions:
REMARK  status: ('A' for Active; 'I' for Inactive)
REMARK    1  A    between atoms: C_8  and  N_9
REMARK                            x       y       z     vdW  Elec       q    Type
REMARK                         _______ _______ _______ _____ _____    ______ ____
ROOT
ATOM      1  N   UNL     1      15.150  12.084  35.834  0.00  0.00    +0.000 N 
ATOM      2  C   UNL     1      14.200  11.338  36.645  0.00  0.00    +0.000 C 
ATOM      3  C   UNL     1      14.603  11.301  38.101  0.00  0.00    +0.000 C 
ATOM      4  C   UNL     1      16.025  10.904  38.255  0.00  0.00    +0.000 A 
ATOM      5  C   UNL     1      16.430  10.069  39.276  0.00  0.00    +0.000 A 
ATOM      6  C   UNL     1      17.768   9.704  39.408  0.00  0.00    +0.000 A 
ATOM      7  O   UNL     1      18.136   8.861  40.451  0.00  0.00    +0.000 OA
ATOM      8  C   UNL     1      18.673  10.201  38.491  0.00  0.00    +0.000 A 
ATOM      9  C   UNL     1      18.240  11.042  37.468  0.00  0.00    +0.000 A 
ATOM     10  C   UNL     1      16.928  11.406  37.330  0.00  0.00    +0.000 A 
ATOM     11  C   UNL     1      16.523  12.300  36.228  0.00  0.00    +0.000 C 
ENDROOT
BRANCH   1  19
ATOM     12  C   UNL     1      15.970  10.804  33.506  0.00  0.00    +0.000 C 
ATOM     13  C   UNL     1      15.119  12.022  33.426  0.00  0.00    +0.000 A 
ATOM     14  C   UNL     1      14.707  12.559  32.227  0.00  0.00    +0.000 A 
ATOM     15  C   UNL     1      13.909  13.704  32.170  0.00  0.00    +0.000 A 
ATOM     16  O   UNL     1      13.540  14.178  30.926  0.00  0.00    +0.000 OA
ATOM     17  C   UNL     1      13.522  14.311  33.343  0.00  0.00    +0.000 A 
ATOM     18  C   UNL     1      13.929  13.778  34.527  0.00  0.00    +0.000 A 
ATOM     19  C   UNL     1      14.728  12.635  34.590  0.00  0.00    +0.000 A 
ENDBRANCH   1  19
TORSDOF 1
ENDMDL
MODEL 2
REMARK VINA RESULT:      -7.3      1.223      6.967
REMARK  Name = 
REMARK  1 active torsions:
REMARK  status: ('A' for Active; 'I' for Inactive)
REMARK    1  A    between atoms: C_8  and  N_9
REMARK                            x       y       z     vdW  Elec       q    Type
REMARK                         _______ _______ _______ _____ _____    ______ ____
ROOT
ATOM      1  N   UNL     1      16.632  11.034  35.750  0.00  0.00    +0.000 N 
ATOM      2  C   UNL     1      16.023  12.349  35.884  0.00  0.00    +0.000 C 
ATOM      3  C   UNL     1      14.829  12.517  34.973  0.00  0.00    +0.000 C 
ATOM      4  C   UNL     1      15.149  12.100  33.585  0.00  0.00    +0.000 A 
ATOM      5  C   UNL     1      14.670  12.800  32.497  0.00  0.00    +0.000 A 
ATOM      6  C   UNL     1      14.979  12.397  31.199  0.00  0.00    +0.000 A 
ATOM      7  O   UNL     1      14.477  13.129  30.130  0.00  0.00    +0.000 OA
ATOM      8  C   UNL     1      15.776  11.280  31.036  0.00  0.00    +0.000 A 
ATOM      9  C   UNL     1      16.247  10.590  32.150  0.00  0.00    +0.000 A 
ATOM     10  C   UNL     1      15.950  10.978  33.429  0.00  0.00    +0.000 A 
ATOM     11  C   UNL     1      16.476  10.210  34.574  0.00  0.00    +0.000 C 
ENDROOT
BRANCH   1  19
ATOM     12  C   UNL     1      15.434  10.782  38.246  0.00  0.00    +0.000 C 
ATOM     13  C   UNL     1      16.855  10.382  38.058  0.00  0.00    +0.000 A 
ATOM     14  C   UNL     1      17.624   9.881  39.084  0.00  0.00    +0.000 A 
ATOM     15  C   UNL     1      18.957   9.510  38.891  0.00  0.00    +0.000 A 
ATOM     16  O   UNL     1      19.658   9.016  39.973  0.00  0.00    +0.000 OA
ATOM     17  C   UNL     1      19.516   9.649  37.641  0.00  0.00    +0.000 A 
ATOM     18  C   UNL     1      18.754  10.144  36.628  0.00  0.00    +0.000 A 
ATOM     19  C   UNL     1      17.422  10.517  36.816  0.00  0.00    +0.000 A 
ENDBRANCH   1  19
TORSDOF 1
ENDMDL
MODEL 3
REMARK VINA RESULT:      -7.1      3.036      6.086
REMARK  Name = 
REMARK  1 active torsions:
REMARK  status: ('A' for Active; 'I' for Inactive)
REMARK    1  A    between atoms: C_8  and  N_9
REMARK                            x       y       z     vdW  Elec       q    Type
REMARK                         _______ _______ _______ _____ _____    ______ ____
ROOT
ATOM      1  N   UNL     1      17.003  11.353  37.170  0.00  0.00    +0.000 N 
ATOM      2  C   UNL     1      16.473  11.931  35.945  0.00  0.00    +0.000 C 
ATOM      3  C   UNL     1      15.218  12.736  36.193  0.00  0.00    +0.000 C 
ATOM      4  C   UNL     1      14.244  11.974  37.013  0.00  0.00    +0.000 A 
ATOM      5  C   UNL     1      12.890  12.032  36.755  0.00  0.00    +0.000 A 
ATOM      6  C   UNL     1      11.987  11.310  37.533  0.00  0.00    +0.000 A 
ATOM      7  O   UNL     1      10.630  11.395  37.242  0.00  0.00    +0.000 OA
ATOM      8  C   UNL     1      12.485  10.540  38.565  0.00  0.00    +0.000 A 
ATOM      9  C   UNL     1      13.856  10.498  38.806  0.00  0.00    +0.000 A 
ATOM     10  C   UNL     1      14.752  11.203  38.047  0.00  0.00    +0.000 A 
ATOM     11  C   UNL     1      16.195  11.122  38.346  0.00  0.00    +0.000 C 
ENDROOT
BRANCH   1  19
ATOM     12  C   UNL     1      17.828   9.134  35.714  0.00  0.00    +0.000 C 
ATOM     13  C   UNL     1      18.812   9.899  36.527  0.00  0.00    +0.000 A 
ATOM     14  C   UNL     1      20.143   9.554  36.595  0.00  0.00    +0.000 A 
ATOM     15  C   UNL     1      21.054  10.283  37.363  0.00  0.00    +0.000 A 
ATOM     16  O   UNL     1      22.371   9.869  37.376  0.00  0.00    +0.000 OA
ATOM     17  C   UNL     1      20.609  11.376  38.070  0.00  0.00    +0.000 A 
ATOM     18  C   UNL     1      19.293  11.716  38.002  0.00  0.00    +0.000 A 
ATOM     19  C   UNL     1      18.378  10.990  37.236  0.00  0.00    +0.000 A 
ENDBRANCH   1  19
TORSDOF 1
ENDMDL
MODEL 4
REMARK VINA RESULT:      -6.9     28.439     31.218
REMARK  Name = 
REMARK  1 active torsions:
REMARK  status: ('A' for Active; 'I' for Inactive)
REMARK    1  A    between atoms: C_8  and  N_9
REMARK                            x       y       z     vdW  Elec       q    Type
REMARK                         _______ _______ _______ _____ _____    ______ ____
ROOT
ATOM      1  N   UNL     1      31.720  21.606  11.274  0.00  0.00    +0.000 N 
ATOM      2  C   UNL     1      30.773  20.810  10.508  0.00  0.00    +0.000 C 
ATOM      3  C   UNL     1      29.519  21.585  10.174  0.00  0.00    +0.000 C 
ATOM      4  C   UNL     1      28.965  22.254  11.376  0.00  0.00    +0.000 A 
ATOM      5  C   UNL     1      27.605  22.319  11.597  0.00  0.00    +0.000 A 
ATOM      6  C   UNL     1      27.098  22.950  12.732  0.00  0.00    +0.000 A 
ATOM      7  O   UNL     1      25.721  22.995  12.919  0.00  0.00    +0.000 OA
ATOM      8  C   UNL     1      27.993  23.508  13.623  0.00  0.00    +0.000 A 
ATOM      9  C   UNL     1      29.363  23.430  13.377  0.00  0.00    +0.000 A 
ATOM     10  C   UNL     1      29.871  22.811  12.266  0.00  0.00    +0.000 A 
ATOM     11  C   UNL     1      31.330  22.757  12.055  0.00  0.00    +0.000 C 
ENDROOT
BRANCH   1  19
ATOM     12  C   UNL     1      33.344  22.762   9.338  0.00  0.00    +0.000 C 
ATOM     13  C   UNL     1      33.923  21.808  10.322  0.00  0.00    +0.000 A 
ATOM     14  C   UNL     1      35.255  21.462  10.322  0.00  0.00    +0.000 A 
ATOM     15  C   UNL     1      35.783  20.565  11.253  0.00  0.00    +0.000 A 
ATOM     16  O   UNL     1      37.130  20.271  11.184  0.00  0.00    +0.000 OA
ATOM     17  C   UNL     1      34.948  20.012  12.198  0.00  0.00    +0.000 A 
ATOM     18  C   UNL     1      33.632  20.356  12.197  0.00  0.00    +0.000 A 
ATOM     19  C   UNL     1      33.099  21.252  11.268  0.00  0.00    +0.000 A 
ENDBRANCH   1  19
TORSDOF 1
ENDMDL
MODEL 5
REMARK VINA RESULT:      -6.8      1.718      7.067
REMARK  Name = 
REMARK  1 active torsions:
REMARK  status: ('A' for Active; 'I' for Inactive)
REMARK    1  A    between atoms: C_8  and  N_9
REMARK                            x       y       z     vdW  Elec       q    Type
REMARK                         _______ _______ _______ _____ _____    ______ ____
ROOT
ATOM      1  N   UNL     1      17.389  10.283  36.596  0.00  0.00    +0.000 N 
ATOM      2  C   UNL     1      17.719   9.238  35.641  0.00  0.00    +0.000 C 
ATOM      3  C   UNL     1      17.915   9.785  34.245  0.00  0.00    +0.000 C 
ATOM      4  C   UNL     1      16.795  10.677  33.855  0.00  0.00    +0.000 A 
ATOM      5  C   UNL     1      16.284  10.667  32.574  0.00  0.00    +0.000 A 
ATOM      6  C   UNL     1      15.231  11.510  32.222  0.00  0.00    +0.000 A 
ATOM      7  O   UNL     1      14.744  11.471  30.921  0.00  0.00    +0.000 OA
ATOM      8  C   UNL     1      14.718  12.352  33.190  0.00  0.00    +0.000 A 
ATOM      9  C   UNL     1      15.252  12.343  34.476  0.00  0.00    +0.000 A 
ATOM     10  C   UNL     1      16.286  11.519  34.832  0.00  0.00    +0.000 A 
ATOM     11  C   UNL     1      16.813  11.551  36.210  0.00  0.00    +0.000 C 
ENDROOT
BRANCH   1  19
ATOM     12  C   UNL     1      20.037  10.202  37.440  0.00  0.00    +0.000 C 
ATOM     13  C   UNL     1      18.935  10.024  38.425  0.00  0.00    +0.000 A 
ATOM     14  C   UNL     1      19.169   9.817  39.766  0.00  0.00    +0.000 A 
ATOM     15  C   UNL     1      18.123   9.652  40.678  0.00  0.00    +0.000 A 
ATOM     16  O   UNL     1      18.444   9.448  42.005  0.00  0.00    +0.000 OA
ATOM     17  C   UNL     1      16.825   9.699  40.223  0.00  0.00    +0.000 A 
ATOM     18  C   UNL     1      16.596   9.904  38.898  0.00  0.00    +0.000 A 
ATOM     19  C   UNL     1      17.638  10.069  37.982  0.00  0.00    +0.000 A 
ENDBRANCH   1  19
TORSDOF 1
ENDMDL
MODEL 6
REMARK VINA RESULT:      -6.8      1.384      2.213
REMARK  Name = 
REMARK  1 active torsions:
REMARK  status: ('A' for Active; 'I' for Inactive)
REMARK    1  A    between atoms: C_8  and  N_9
REMARK                            x       y       z     vdW  Elec       q    Type
REMARK                         _______ _______ _______ _____ _____    ______ ____
ROOT
ATOM      1  N   UNL     1      16.081  11.224  34.270  0.00  0.00    +0.000 N 
ATOM      2  C   UNL     1      17.422  10.792  33.906  0.00  0.00    +0.000 C 
ATOM      3  C   UNL     1      17.885   9.617  34.736  0.00  0.00    +0.000 C 
ATOM      4  C   UNL     1      17.664   9.861  36.183  0.00  0.00    +0.000 A 
ATOM      5  C   UNL     1      18.587   9.461  37.127  0.00  0.00    +0.000 A 
ATOM      6  C   UNL     1      18.366   9.698  38.483  0.00  0.00    +0.000 A 
ATOM      7  O   UNL     1      19.320   9.279  39.403  0.00  0.00    +0.000 OA
ATOM      8  C   UNL     1      17.200  10.341  38.851  0.00  0.00    +0.000 A 
ATOM      9  C   UNL     1      16.283  10.735  37.879  0.00  0.00    +0.000 A 
ATOM     10  C   UNL     1      16.491  10.508  36.545  0.00  0.00    +0.000 A 
ATOM     11  C   UNL     1      15.487  10.947  35.558  0.00  0.00    +0.000 C 
ENDROOT
BRANCH   1  19
ATOM     12  C   UNL     1      16.014  10.302  31.649  0.00  0.00    +0.000 C 
ATOM     13  C   UNL     1      15.251  11.522  32.029  0.00  0.00    +0.000 A 
ATOM     14  C   UNL     1      14.495  12.233  31.125  0.00  0.00    +0.000 A 
ATOM     15  C   UNL     1      13.785  13.377  31.498  0.00  0.00    +0.000 A 
ATOM     16  O   UNL     1      13.051  14.032  30.529  0.00  0.00    +0.000 OA
ATOM     17  C   UNL     1      13.841  13.803  32.806  0.00  0.00    +0.000 A 
ATOM     18  C   UNL     1      14.588  13.098  33.698  0.00  0.00    +0.000 A 
ATOM     19  C   UNL     1      15.301  11.955  33.330  0.00  0.00    +0.000 A 
ENDBRANCH   1  19
TORSDOF 1
ENDMDL
MODEL 7
REMARK VINA RESULT:      -6.7      1.971      7.017
REMARK  Name = 
REMARK  1 active torsions:
REMARK  status: ('A' for Active; 'I' for Inactive)
REMARK    1  A    between atoms: C_8  and  N_9
REMARK                            x       y       z     vdW  Elec       q    Type
REMARK                         _______ _______ _______ _____ _____    ______ ____
ROOT
ATOM      1  N   UNL     1      17.816  11.427  37.115  0.00  0.00    +0.000 N 
ATOM      2  C   UNL     1      16.875  12.535  37.165  0.00  0.00    +0.000 C 
ATOM      3  C   UNL     1      15.597  12.229  36.418  0.00  0.00    +0.000 C 
ATOM      4  C   UNL     1      15.881  11.694  35.064  0.00  0.00    +0.000 A 
ATOM      5  C   UNL     1      15.116  12.055  33.975  0.00  0.00    +0.000 A 
ATOM      6  C   UNL     1      15.394  11.545  32.708  0.00  0.00    +0.000 A 
ATOM      7  O   UNL     1      14.599  11.933  31.636  0.00  0.00    +0.000 OA
ATOM      8  C   UNL     1      16.455  10.670  32.577  0.00  0.00    +0.000 A 
ATOM      9  C   UNL     1      17.214  10.320  33.692  0.00  0.00    +0.000 A 
ATOM     10  C   UNL     1      16.948  10.816  34.940  0.00  0.00    +0.000 A 
ATOM     11  C   UNL     1      17.784  10.413  36.087  0.00  0.00    +0.000 C 
ENDROOT
BRANCH   1  19
ATOM     12  C   UNL     1      17.368   9.668  39.220  0.00  0.00    +0.000 C 
ATOM     13  C   UNL     1      18.628  10.458  39.165  0.00  0.00    +0.000 A 
ATOM     14  C   UNL     1      19.606  10.357  40.128  0.00  0.00    +0.000 A 
ATOM     15  C   UNL     1      20.784  11.106  40.062  0.00  0.00    +0.000 A 
ATOM     16  O   UNL     1      21.714  10.946  41.069  0.00  0.00    +0.000 OA
ATOM     17  C   UNL     1      20.971  11.967  39.004  0.00  0.00    +0.000 A 
ATOM     18  C   UNL     1      20.003  12.064  38.053  0.00  0.00    +0.000 A 
ATOM     19  C   UNL     1      18.824  11.319  38.115  0.00  0.00    +0.000 A 
ENDBRANCH   1  19
TORSDOF 1
ENDMDL
MODEL 8
REMARK VINA RESULT:      -6.6     18.974     20.476
REMARK  Name = 
REMARK  1 active torsions:
REMARK  status: ('A' for Active; 'I' for Inactive)
REMARK    1  A    between atoms: C_8  and  N_9
REMARK                            x       y       z     vdW  Elec       q    Type
REMARK                         _______ _______ _______ _____ _____    ______ ____
ROOT
ATOM      1  N   UNL     1      27.961  23.854  25.208  0.00  0.00    +0.000 N 
ATOM      2  C   UNL     1      28.815  23.023  26.043  0.00  0.00    +0.000 C 
ATOM      3  C   UNL     1      28.031  22.294  27.109  0.00  0.00    +0.000 C 
ATOM      4  C   UNL     1      27.128  23.219  27.839  0.00  0.00    +0.000 A 
ATOM      5  C   UNL     1      26.938  23.109  29.201  0.00  0.00    +0.000 A 
ATOM      6  C   UNL     1      26.088  23.984  29.874  0.00  0.00    +0.000 A 
ATOM      7  O   UNL     1      25.923  23.841  31.247  0.00  0.00    +0.000 OA
ATOM      8  C   UNL     1      25.444  24.961  29.140  0.00  0.00    +0.000 A 
ATOM      9  C   UNL     1      25.652  25.051  27.765  0.00  0.00    +0.000 A 
ATOM     10  C   UNL     1      26.485  24.196  27.095  0.00  0.00    +0.000 A 
ATOM     11  C   UNL     1      26.669  24.337  25.638  0.00  0.00    +0.000 C 
ENDROOT
BRANCH   1  19
ATOM     12  C   UNL     1      29.529  26.136  24.961  0.00  0.00    +0.000 C 
ATOM     13  C   UNL     1      29.174  25.341  23.753  0.00  0.00    +0.000 A 
ATOM     14  C   UNL     1      29.595  25.689  22.489  0.00  0.00    +0.000 A 
ATOM     15  C   UNL     1      29.253  24.932  21.366  0.00  0.00    +0.000 A 
ATOM     16  O   UNL     1      29.716  25.350  20.134  0.00  0.00    +0.000 OA
ATOM     17  C   UNL     1      28.475  23.808  21.527  0.00  0.00    +0.000 A 
ATOM     18  C   UNL     1      28.061  23.466  22.777  0.00  0.00    +0.000 A 
ATOM     19  C   UNL     1      28.399  24.219  23.903  0.00  0.00    +0.000 A 
ENDBRANCH   1  19
TORSDOF 1
ENDMDL
MODEL 9
REMARK VINA RESULT:      -6.5      1.946      2.992
REMARK  Name = 
REMARK  1 active torsions:
REMARK  status: ('A' for Active; 'I' for Inactive)
REMARK    1  A    between atoms: C_8  and  N_9
REMARK                            x       y       z     vdW  Elec       q    Type
REMARK                         _______ _______ _______ _____ _____    ______ ____
ROOT
ATOM      1  N   UNL     1      17.252  11.247  36.225  0.00  0.00    +0.000 N 
ATOM      2  C   UNL     1      17.343   9.915  36.803  0.00  0.00    +0.000 C 
ATOM      3  C   UNL     1      17.614   9.959  38.289  0.00  0.00    +0.000 C 
ATOM      4  C   UNL     1      18.743  10.870  38.603  0.00  0.00    +0.000 A 
ATOM      5  C   UNL     1      19.670  10.554  39.574  0.00  0.00    +0.000 A 
ATOM      6  C   UNL     1      20.726  11.419  39.858  0.00  0.00    +0.000 A 
ATOM      7  O   UNL     1      21.639  11.066  40.844  0.00  0.00    +0.000 OA
ATOM      8  C   UNL     1      20.815  12.597  39.141  0.00  0.00    +0.000 A 
ATOM      9  C   UNL     1      19.865  12.893  38.165  0.00  0.00    +0.000 A 
ATOM     10  C   UNL     1      18.825  12.050  37.879  0.00  0.00    +0.000 A 
ATOM     11  C   UNL     1      17.848  12.413  36.834  0.00  0.00    +0.000 C 
ENDROOT
BRANCH   1  19
ATOM     12  C   UNL     1      14.790  12.533  36.330  0.00  0.00    +0.000 C 
ATOM     13  C   UNL     1      15.330  12.064  35.025  0.00  0.00    +0.000 A 
ATOM     14  C   UNL     1      14.654  12.241  33.838  0.00  0.00    +0.000 A 
ATOM     15  C   UNL     1      15.176  11.794  32.621  0.00  0.00    +0.000 A 
ATOM     16  O   UNL     1      14.433  12.011  31.477  0.00  0.00    +0.000 OA
ATOM     17  C   UNL     1      16.398  11.162  32.608  0.00  0.00    +0.000 A 
ATOM     18  C   UNL     1      17.064  10.989  33.782  0.00  0.00    +0.000 A 
ATOM     19  C   UNL     1      16.548  11.433  35.001  0.00  0.00    +0.000 A 
ENDBRANCH   1  19
TORSDOF 1
ENDMDL
MODEL 10
REMARK VINA RESULT:      -6.5     19.483     21.653
REMARK  Name = 
REMARK  1 active torsions:
REMARK  status: ('A' for Active; 'I' for Inactive)
REMARK    1  A    between atoms: C_8  and  N_9
REMARK                            x       y       z     vdW  Elec       q    Type
REMARK                         _______ _______ _______ _____ _____    ______ ____
ROOT
ATOM      1  N   UNL     1      28.017  23.971  25.447  0.00  0.00    +0.000 N 
ATOM      2  C   UNL     1      27.801  22.969  24.415  0.00  0.00    +0.000 C 
ATOM      3  C   UNL     1      28.865  23.020  23.343  0.00  0.00    +0.000 C 
ATOM      4  C   UNL     1      29.069  24.406  22.854  0.00  0.00    +0.000 A 
ATOM      5  C   UNL     1      29.291  24.670  21.519  0.00  0.00    +0.000 A 
ATOM      6  C   UNL     1      29.481  25.977  21.073  0.00  0.00    +0.000 A 
ATOM      7  O   UNL     1      29.701  26.202  19.720  0.00  0.00    +0.000 OA
ATOM      8  C   UNL     1      29.441  26.995  22.006  0.00  0.00    +0.000 A 
ATOM      9  C   UNL     1      29.216  26.703  23.349  0.00  0.00    +0.000 A 
ATOM     10  C   UNL     1      29.028  25.423  23.796  0.00  0.00    +0.000 A 
ATOM     11  C   UNL     1      28.793  25.170  25.231  0.00  0.00    +0.000 C 
ENDROOT
BRANCH   1  19
ATOM     12  C   UNL     1      29.358  22.309  27.227  0.00  0.00    +0.000 C 
ATOM     13  C   UNL     1      28.086  22.966  27.635  0.00  0.00    +0.000 A 
ATOM     14  C   UNL     1      27.528  22.788  28.881  0.00  0.00    +0.000 A 
ATOM     15  C   UNL     1      26.334  23.412  29.249  0.00  0.00    +0.000 A 
ATOM     16  O   UNL     1      25.842  23.180  30.518  0.00  0.00    +0.000 OA
ATOM     17  C   UNL     1      25.698  24.229  28.341  0.00  0.00    +0.000 A 
ATOM     18  C   UNL     1      26.251  24.404  27.111  0.00  0.00    +0.000 A 
ATOM     19  C   UNL     1      27.445  23.782  26.738  0.00  0.00    +0.000 A 
ENDBRANCH   1  19
TORSDOF 1
ENDMDL
