MODEL 1
REMARK VINA RESULT:      -6.0      0.000      0.000
REMARK  Name = 
REMARK  5 active torsions:
REMARK  status: ('A' for Active; 'I' for Inactive)
REMARK    1  A    between atoms: C_2  and  N_3
REMARK    2  A    between atoms: C_2  and  C_13
REMARK    3  A    between atoms: N_3  and  N_4
REMARK    4  A    between atoms: C_5  and  C_7
REMARK    5  A    between atoms: C_16  and  C_17
REMARK                            x       y       z     vdW  Elec       q    Type
REMARK                         _______ _______ _______ _____ _____    ______ ____
ROOT
ATOM      1  N   UNL     1      17.696  10.705  37.163  0.00  0.00    +0.000 NA
ENDROOT
BRANCH   1   2
ATOM      2  N   UNL     1      18.915  11.297  37.395  0.00  0.00    +0.000 NA
ATOM      3  C   UNL     1      20.037  10.600  37.938  0.00  0.00    +0.000 C 
ATOM      4  O   UNL     1      19.915   9.389  38.224  0.00  0.00    +0.000 OA
BRANCH   3   5
ATOM      5  C   UNL     1      21.313  11.291  38.156  0.00  0.00    +0.000 A 
ATOM      6  C   UNL     1      21.617  12.244  39.102  0.00  0.00    +0.000 A 
ATOM      7  C   UNL     1      22.936  12.592  38.921  0.00  0.00    +0.000 A 
ATOM      8  O   UNL     1      23.409  11.889  37.921  0.00  0.00    +0.000 OA
ATOM      9  C   UNL     1      22.479  11.100  37.434  0.00  0.00    +0.000 A 
ATOM     10  C   UNL     1      22.569  10.143  36.311  0.00  0.00    +0.000 C 
ENDBRANCH   3   5
ENDBRANCH   1   2
BRANCH   1  12
ATOM     11  C   UNL     1      17.554   8.931  35.629  0.00  0.00    +0.000 C 
ATOM     12  C   UNL     1      17.237  10.144  35.961  0.00  0.00    +0.000 C 
BRANCH  12  13
ATOM     13  C   UNL     1      16.382  10.916  35.048  0.00  0.00    +0.000 A 
ATOM     14  C   UNL     1      15.432  11.859  35.315  0.00  0.00    +0.000 A 
ATOM     15  C   UNL     1      14.790  12.417  34.302  0.00  0.00    +0.000 A 
ATOM     16  C   UNL     1      15.112  12.019  33.038  0.00  0.00    +0.000 A 
ATOM     17  S   UNL     1      16.323  10.858  33.320  0.00  0.00    +0.000 S 
BRANCH  16  18
ATOM     18  C   UNL     1      14.516  12.519  31.747  0.00  0.00    +0.000 C 
ATOM     19  C   UNL     1      13.806  13.844  32.027  0.00  0.00    +0.000 C 
ENDBRANCH  16  18
ENDBRANCH  12  13
ENDBRANCH   1  12
TORSDOF 5
ENDMDL
MODEL 2
REMARK VINA RESULT:      -5.8     21.209     23.512
REMARK  Name = 
REMARK  5 active torsions:
REMARK  status: ('A' for Active; 'I' for Inactive)
REMARK    1  A    between atoms: C_2  and  N_3
REMARK    2  A    between atoms: C_2  and  C_13
REMARK    3  A    between atoms: N_3  and  N_4
REMARK    4  A    between atoms: C_5  and  C_7
REMARK    5  A    between atoms: C_16  and  C_17
REMARK                            x       y       z     vdW  Elec       q    Type
REMARK                         _______ _______ _______ _____ _____    ______ ____
ROOT
ATOM      1  N   UNL     1      22.454  -7.923  25.298  0.00  0.00    +0.000 NA
ENDROOT
BRANCH   1   2
ATOM      2  N   UNL     1      21.270  -7.546  25.887  0.00  0.00    +0.000 NA
ATOM      3  C   UNL     1      19.986  -7.921  25.384  0.00  0.00    +0.000 C 
ATOM      4  O   UNL     1      19.924  -8.625  24.353  0.00  0.00    +0.000 OA
BRANCH   3   5
ATOM      5  C   UNL     1      18.761  -7.489  26.065  0.00  0.00    +0.000 A 
ATOM      6  C   UNL     1      17.702  -8.261  26.487  0.00  0.00    +0.000 A 
ATOM      7  C   UNL     1      16.790  -7.415  27.076  0.00  0.00    +0.000 A 
ATOM      8  O   UNL     1      17.267  -6.196  27.015  0.00  0.00    +0.000 OA
ATOM      9  C   UNL     1      18.439  -6.191  26.422  0.00  0.00    +0.000 A 
ATOM     10  C   UNL     1      19.330  -5.046  26.139  0.00  0.00    +0.000 C 
ENDBRANCH   3   5
ENDBRANCH   1   2
BRANCH   1  12
ATOM     11  C   UNL     1      22.675  -6.169  23.750  0.00  0.00    +0.000 C 
ATOM     12  C   UNL     1      23.163  -7.237  24.299  0.00  0.00    +0.000 C 
BRANCH  12  13
ATOM     13  C   UNL     1      24.482  -7.711  23.854  0.00  0.00    +0.000 A 
ATOM     14  C   UNL     1      25.504  -7.038  23.249  0.00  0.00    +0.000 A 
ATOM     15  C   UNL     1      26.606  -7.700  22.943  0.00  0.00    +0.000 A 
ATOM     16  C   UNL     1      26.666  -9.028  23.249  0.00  0.00    +0.000 A 
ATOM     17  S   UNL     1      25.147  -9.303  23.967  0.00  0.00    +0.000 S 
BRANCH  16  18
ATOM     18  C   UNL     1      27.816  -9.970  22.997  0.00  0.00    +0.000 C 
ATOM     19  C   UNL     1      28.666 -10.040  24.267  0.00  0.00    +0.000 C 
ENDBRANCH  16  18
ENDBRANCH  12  13
ENDBRANCH   1  12
TORSDOF 5
ENDMDL
MODEL 3
REMARK VINA RESULT:      -5.7     21.713     23.196
REMARK  Name = 
REMARK  5 active torsions:
REMARK  status: ('A' for Active; 'I' for Inactive)
REMARK    1  A    between atoms: C_2  and  N_3
REMARK    2  A    between atoms: C_2  and  C_13
REMARK    3  A    between atoms: N_3  and  N_4
REMARK    4  A    between atoms: C_5  and  C_7
REMARK    5  A    between atoms: C_16  and  C_17
REMARK                            x       y       z     vdW  Elec       q    Type
REMARK                         _______ _______ _______ _____ _____    ______ ____
ROOT
ATOM      1  N   UNL     1      29.489  24.162  21.367  0.00  0.00    +0.000 NA
ENDROOT
BRANCH   1   2
ATOM      2  N   UNL     1      29.517  25.159  20.421  0.00  0.00    +0.000 NA
ATOM      3  C   UNL     1      29.549  26.550  20.745  0.00  0.00    +0.000 C 
ATOM      4  O   UNL     1      29.548  26.891  21.948  0.00  0.00    +0.000 OA
BRANCH   3   5
ATOM      5  C   UNL     1      29.583  27.565  19.686  0.00  0.00    +0.000 A 
ATOM      6  C   UNL     1      30.641  27.921  18.879  0.00  0.00    +0.000 A 
ATOM      7  C   UNL     1      30.194  28.912  18.035  0.00  0.00    +0.000 A 
ATOM      8  O   UNL     1      28.934  29.147  18.313  0.00  0.00    +0.000 OA
ATOM      9  C   UNL     1      28.527  28.368  19.289  0.00  0.00    +0.000 A 
ATOM     10  C   UNL     1      27.193  28.293  19.920  0.00  0.00    +0.000 C 
ENDBRANCH   3   5
ENDBRANCH   1   2
BRANCH   1  12
ATOM     11  C   UNL     1      27.202  23.990  21.881  0.00  0.00    +0.000 C 
ATOM     12  C   UNL     1      28.439  23.852  22.246  0.00  0.00    +0.000 C 
BRANCH  12  13
ATOM     13  C   UNL     1      28.715  23.359  23.603  0.00  0.00    +0.000 A 
ATOM     14  C   UNL     1      29.854  22.824  24.133  0.00  0.00    +0.000 A 
ATOM     15  C   UNL     1      29.848  22.451  25.402  0.00  0.00    +0.000 A 
ATOM     16  C   UNL     1      28.700  22.619  26.117  0.00  0.00    +0.000 A 
ATOM     17  S   UNL     1      27.652  23.307  24.966  0.00  0.00    +0.000 S 
BRANCH  16  18
ATOM     18  C   UNL     1      28.470  22.270  27.566  0.00  0.00    +0.000 C 
ATOM     19  C   UNL     1      27.236  23.031  28.053  0.00  0.00    +0.000 C 
ENDBRANCH  16  18
ENDBRANCH  12  13
ENDBRANCH   1  12
TORSDOF 5
ENDMDL
MODEL 4
REMARK VINA RESULT:      -5.7      1.864      2.862
REMARK  Name = 
REMARK  5 active torsions:
REMARK  status: ('A' for Active; 'I' for Inactive)
REMARK    1  A    between atoms: C_2  and  N_3
REMARK    2  A    between atoms: C_2  and  C_13
REMARK    3  A    between atoms: N_3  and  N_4
REMARK    4  A    between atoms: C_5  and  C_7
REMARK    5  A    between atoms: C_16  and  C_17
REMARK                            x       y       z     vdW  Elec       q    Type
REMARK                         _______ _______ _______ _____ _____    ______ ____
ROOT
ATOM      1  N   UNL     1      19.203  10.737  38.669  0.00  0.00    +0.000 NA
ENDROOT
BRANCH   1   2
ATOM      2  N   UNL     1      20.358  10.854  37.933  0.00  0.00    +0.000 NA
ATOM      3  C   UNL     1      21.528  10.070  38.173  0.00  0.00    +0.000 C 
ATOM      4  O   UNL     1      21.513   9.233  39.102  0.00  0.00    +0.000 OA
BRANCH   3   5
ATOM      5  C   UNL     1      22.727  10.241  37.346  0.00  0.00    +0.000 A 
ATOM      6  C   UNL     1      23.202   9.417  36.350  0.00  0.00    +0.000 A 
ATOM      7  C   UNL     1      24.350   9.993  35.857  0.00  0.00    +0.000 A 
ATOM      8  O   UNL     1      24.563  11.106  36.517  0.00  0.00    +0.000 OA
ATOM      9  C   UNL     1      23.622  11.295  37.413  0.00  0.00    +0.000 A 
ATOM     10  C   UNL     1      23.465  12.409  38.372  0.00  0.00    +0.000 C 
ENDBRANCH   3   5
ENDBRANCH   1   2
BRANCH   1  12
ATOM     11  C   UNL     1      17.013   9.976  39.052  0.00  0.00    +0.000 C 
ATOM     12  C   UNL     1      17.943  10.317  38.215  0.00  0.00    +0.000 C 
BRANCH  12  13
ATOM     13  C   UNL     1      17.644  10.256  36.777  0.00  0.00    +0.000 A 
ATOM     14  C   UNL     1      17.870   9.262  35.869  0.00  0.00    +0.000 A 
ATOM     15  C   UNL     1      17.503   9.454  34.614  0.00  0.00    +0.000 A 
ATOM     16  C   UNL     1      16.916  10.641  34.289  0.00  0.00    +0.000 A 
ATOM     17  S   UNL     1      16.899  11.459  35.781  0.00  0.00    +0.000 S 
BRANCH  16  18
ATOM     18  C   UNL     1      16.419  11.070  32.931  0.00  0.00    +0.000 C 
ATOM     19  C   UNL     1      15.051  10.427  32.696  0.00  0.00    +0.000 C 
ENDBRANCH  16  18
ENDBRANCH  12  13
ENDBRANCH   1  12
TORSDOF 5
ENDMDL
MODEL 5
REMARK VINA RESULT:      -5.6      3.300      4.423
REMARK  Name = 
REMARK  5 active torsions:
REMARK  status: ('A' for Active; 'I' for Inactive)
REMARK    1  A    between atoms: C_2  and  N_3
REMARK    2  A    between atoms: C_2  and  C_13
REMARK    3  A    between atoms: N_3  and  N_4
REMARK    4  A    between atoms: C_5  and  C_7
REMARK    5  A    between atoms: C_16  and  C_17
REMARK                            x       y       z     vdW  Elec       q    Type
REMARK                         _______ _______ _______ _____ _____    ______ ____
ROOT
ATOM      1  N   UNL     1      13.614  12.352  36.430  0.00  0.00    +0.000 NA
ENDROOT
BRANCH   1   2
ATOM      2  N   UNL     1      14.605  11.428  36.663  0.00  0.00    +0.000 NA
ATOM      3  C   UNL     1      15.935  11.781  37.049  0.00  0.00    +0.000 C 
ATOM      4  O   UNL     1      16.224  12.991  37.180  0.00  0.00    +0.000 OA
BRANCH   3   5
ATOM      5  C   UNL     1      16.945  10.745  37.288  0.00  0.00    +0.000 A 
ATOM      6  C   UNL     1      17.336  10.195  38.488  0.00  0.00    +0.000 A 
ATOM      7  C   UNL     1      18.306   9.259  38.211  0.00  0.00    +0.000 A 
ATOM      8  O   UNL     1      18.496   9.241  36.914  0.00  0.00    +0.000 OA
ATOM      9  C   UNL     1      17.707  10.108  36.323  0.00  0.00    +0.000 A 
ATOM     10  C   UNL     1      17.586  10.421  34.883  0.00  0.00    +0.000 C 
ENDBRANCH   3   5
ENDBRANCH   1   2
BRANCH   1  12
ATOM     11  C   UNL     1      12.990  14.446  35.564  0.00  0.00    +0.000 C 
ATOM     12  C   UNL     1      13.554  13.292  35.388  0.00  0.00    +0.000 C 
BRANCH  12  13
ATOM     13  C   UNL     1      14.135  12.992  34.072  0.00  0.00    +0.000 A 
ATOM     14  C   UNL     1      14.956  11.975  33.680  0.00  0.00    +0.000 A 
ATOM     15  C   UNL     1      15.347  11.925  32.417  0.00  0.00    +0.000 A 
ATOM     16  C   UNL     1      14.907  12.897  31.569  0.00  0.00    +0.000 A 
ATOM     17  S   UNL     1      13.945  13.862  32.589  0.00  0.00    +0.000 S 
BRANCH  16  18
ATOM     18  C   UNL     1      15.220  13.035  30.100  0.00  0.00    +0.000 C 
ATOM     19  C   UNL     1      16.529  13.813  29.960  0.00  0.00    +0.000 C 
ENDBRANCH  16  18
ENDBRANCH  12  13
ENDBRANCH   1  12
TORSDOF 5
ENDMDL
MODEL 6
REMARK VINA RESULT:      -5.6     21.229     23.301
REMARK  Name = 
REMARK  5 active torsions:
REMARK  status: ('A' for Active; 'I' for Inactive)
REMARK    1  A    between atoms: C_2  and  N_3
REMARK    2  A    between atoms: C_2  and  C_13
REMARK    3  A    between atoms: N_3  and  N_4
REMARK    4  A    between atoms: C_5  and  C_7
REMARK    5  A    between atoms: C_16  and  C_17
REMARK                            x       y       z     vdW  Elec       q    Type
REMARK                         _______ _______ _______ _____ _____    ______ ____
ROOT
ATOM      1  N   UNL     1      19.883  -9.962  24.176  0.00  0.00    +0.000 NA
ENDROOT
BRANCH   1   2
ATOM      2  N   UNL     1      19.390  -8.736  24.555  0.00  0.00    +0.000 NA
ATOM      3  C   UNL     1      19.728  -8.099  25.789  0.00  0.00    +0.000 C 
ATOM      4  O   UNL     1      20.509  -8.680  26.574  0.00  0.00    +0.000 OA
BRANCH   3   5
ATOM      5  C   UNL     1      19.171  -6.786  26.131  0.00  0.00    +0.000 A 
ATOM      6  C   UNL     1      19.755  -5.547  25.988  0.00  0.00    +0.000 A 
ATOM      7  C   UNL     1      18.849  -4.615  26.439  0.00  0.00    +0.000 A 
ATOM      8  O   UNL     1      17.772  -5.251  26.835  0.00  0.00    +0.000 OA
ATOM      9  C   UNL     1      17.918  -6.546  26.670  0.00  0.00    +0.000 A 
ATOM     10  C   UNL     1      16.966  -7.633  26.979  0.00  0.00    +0.000 C 
ENDBRANCH   3   5
ENDBRANCH   1   2
BRANCH   1  12
ATOM     11  C   UNL     1      20.760 -11.264  22.427  0.00  0.00    +0.000 C 
ATOM     12  C   UNL     1      20.852 -10.223  23.194  0.00  0.00    +0.000 C 
BRANCH  12  13
ATOM     13  C   UNL     1      21.995  -9.318  23.007  0.00  0.00    +0.000 A 
ATOM     14  C   UNL     1      22.417  -8.646  21.896  0.00  0.00    +0.000 A 
ATOM     15  C   UNL     1      23.492  -7.882  21.987  0.00  0.00    +0.000 A 
ATOM     16  C   UNL     1      24.127  -7.803  23.191  0.00  0.00    +0.000 A 
ATOM     17  S   UNL     1      23.177  -8.822  24.169  0.00  0.00    +0.000 S 
BRANCH  16  18
ATOM     18  C   UNL     1      25.357  -6.997  23.522  0.00  0.00    +0.000 C 
ATOM     19  C   UNL     1      26.551  -7.626  22.801  0.00  0.00    +0.000 C 
ENDBRANCH  16  18
ENDBRANCH  12  13
ENDBRANCH   1  12
TORSDOF 5
ENDMDL
MODEL 7
REMARK VINA RESULT:      -5.6     17.704     19.186
REMARK  Name = 
REMARK  5 active torsions:
REMARK  status: ('A' for Active; 'I' for Inactive)
REMARK    1  A    between atoms: C_2  and  N_3
REMARK    2  A    between atoms: C_2  and  C_13
REMARK    3  A    between atoms: N_3  and  N_4
REMARK    4  A    between atoms: C_5  and  C_7
REMARK    5  A    between atoms: C_16  and  C_17
REMARK                            x       y       z     vdW  Elec       q    Type
REMARK                         _______ _______ _______ _____ _____    ______ ____
ROOT
ATOM      1  N   UNL     1      27.009  22.623  25.448  0.00  0.00    +0.000 NA
ENDROOT
BRANCH   1   2
ATOM      2  N   UNL     1      26.517  23.183  26.603  0.00  0.00    +0.000 NA
ATOM      3  C   UNL     1      27.217  23.162  27.848  0.00  0.00    +0.000 C 
ATOM      4  O   UNL     1      28.335  22.604  27.903  0.00  0.00    +0.000 OA
BRANCH   3   5
ATOM      5  C   UNL     1      26.637  23.784  29.043  0.00  0.00    +0.000 A 
ATOM      6  C   UNL     1      26.329  25.110  29.252  0.00  0.00    +0.000 A 
ATOM      7  C   UNL     1      25.802  25.212  30.519  0.00  0.00    +0.000 A 
ATOM      8  O   UNL     1      25.791  24.014  31.053  0.00  0.00    +0.000 OA
ATOM      9  C   UNL     1      26.278  23.132  30.211  0.00  0.00    +0.000 A 
ATOM     10  C   UNL     1      26.453  21.676  30.393  0.00  0.00    +0.000 C 
ENDBRANCH   3   5
ENDBRANCH   1   2
BRANCH   1  12
ATOM     11  C   UNL     1      27.145  23.717  23.373  0.00  0.00    +0.000 C 
ATOM     12  C   UNL     1      27.737  23.265  24.434  0.00  0.00    +0.000 C 
BRANCH  12  13
ATOM     13  C   UNL     1      29.192  23.445  24.552  0.00  0.00    +0.000 A 
ATOM     14  C   UNL     1      30.205  22.537  24.441  0.00  0.00    +0.000 A 
ATOM     15  C   UNL     1      31.451  22.955  24.591  0.00  0.00    +0.000 A 
ATOM     16  C   UNL     1      31.659  24.278  24.851  0.00  0.00    +0.000 A 
ATOM     17  S   UNL     1      30.073  24.897  24.876  0.00  0.00    +0.000 S 
BRANCH  16  18
ATOM     18  C   UNL     1      32.983  24.969  25.053  0.00  0.00    +0.000 C 
ATOM     19  C   UNL     1      33.455  24.693  26.482  0.00  0.00    +0.000 C 
ENDBRANCH  16  18
ENDBRANCH  12  13
ENDBRANCH   1  12
TORSDOF 5
ENDMDL
MODEL 8
REMARK VINA RESULT:      -5.5      3.250      8.046
REMARK  Name = 
REMARK  5 active torsions:
REMARK  status: ('A' for Active; 'I' for Inactive)
REMARK    1  A    between atoms: C_2  and  N_3
REMARK    2  A    between atoms: C_2  and  C_13
REMARK    3  A    between atoms: N_3  and  N_4
REMARK    4  A    between atoms: C_5  and  C_7
REMARK    5  A    between atoms: C_16  and  C_17
REMARK                            x       y       z     vdW  Elec       q    Type
REMARK                         _______ _______ _______ _____ _____    ______ ____
ROOT
ATOM      1  N   UNL     1      19.739   9.558  36.748  0.00  0.00    +0.000 NA
ENDROOT
BRANCH   1   2
ATOM      2  N   UNL     1      18.828  10.293  36.028  0.00  0.00    +0.000 NA
ATOM      3  C   UNL     1      17.726   9.713  35.326  0.00  0.00    +0.000 C 
ATOM      4  O   UNL     1      17.575   8.472  35.360  0.00  0.00    +0.000 OA
BRANCH   3   5
ATOM      5  C   UNL     1      16.786  10.557  34.580  0.00  0.00    +0.000 A 
ATOM      6  C   UNL     1      16.651  10.684  33.216  0.00  0.00    +0.000 A 
ATOM      7  C   UNL     1      15.636  11.584  32.989  0.00  0.00    +0.000 A 
ATOM      8  O   UNL     1      15.179  11.984  34.151  0.00  0.00    +0.000 OA
ATOM      9  C   UNL     1      15.833  11.399  35.127  0.00  0.00    +0.000 A 
ATOM     10  C   UNL     1      15.654  11.552  36.586  0.00  0.00    +0.000 C 
ENDBRANCH   3   5
ENDBRANCH   1   2
BRANCH   1  12
ATOM     11  C   UNL     1      20.345  10.531  38.799  0.00  0.00    +0.000 C 
ATOM     12  C   UNL     1      20.698  10.041  37.652  0.00  0.00    +0.000 C 
BRANCH  12  13
ATOM     13  C   UNL     1      22.130   9.999  37.322  0.00  0.00    +0.000 A 
ATOM     14  C   UNL     1      22.755   9.934  36.110  0.00  0.00    +0.000 A 
ATOM     15  C   UNL     1      24.077   9.908  36.078  0.00  0.00    +0.000 A 
ATOM     16  C   UNL     1      24.750   9.948  37.264  0.00  0.00    +0.000 A 
ATOM     17  S   UNL     1      23.484  10.022  38.398  0.00  0.00    +0.000 S 
BRANCH  16  18
ATOM     18  C   UNL     1      26.244   9.933  37.463  0.00  0.00    +0.000 C 
ATOM     19  C   UNL     1      26.584   8.823  38.459  0.00  0.00    +0.000 C 
ENDBRANCH  16  18
ENDBRANCH  12  13
ENDBRANCH   1  12
TORSDOF 5
ENDMDL
MODEL 9
REMARK VINA RESULT:      -5.5     17.664     19.271
REMARK  Name = 
REMARK  5 active torsions:
REMARK  status: ('A' for Active; 'I' for Inactive)
REMARK    1  A    between atoms: C_2  and  N_3
REMARK    2  A    between atoms: C_2  and  C_13
REMARK    3  A    between atoms: N_3  and  N_4
REMARK    4  A    between atoms: C_5  and  C_7
REMARK    5  A    between atoms: C_16  and  C_17
REMARK                            x       y       z     vdW  Elec       q    Type
REMARK                         _______ _______ _______ _____ _____    ______ ____
ROOT
ATOM      1  N   UNL     1      26.052  23.481  26.294  0.00  0.00    +0.000 NA
ENDROOT
BRANCH   1   2
ATOM      2  N   UNL     1      26.985  23.849  25.354  0.00  0.00    +0.000 NA
ATOM      3  C   UNL     1      26.895  23.494  23.974  0.00  0.00    +0.000 C 
ATOM      4  O   UNL     1      25.922  22.809  23.589  0.00  0.00    +0.000 OA
BRANCH   3   5
ATOM      5  C   UNL     1      27.924  23.925  23.021  0.00  0.00    +0.000 A 
ATOM      6  C   UNL     1      27.771  24.697  21.891  0.00  0.00    +0.000 A 
ATOM      7  C   UNL     1      29.017  24.840  21.324  0.00  0.00    +0.000 A 
ATOM      8  O   UNL     1      29.880  24.189  22.066  0.00  0.00    +0.000 OA
ATOM      9  C   UNL     1      29.275  23.629  23.088  0.00  0.00    +0.000 A 
ATOM     10  C   UNL     1      29.853  22.806  24.171  0.00  0.00    +0.000 C 
ENDBRANCH   3   5
ENDBRANCH   1   2
BRANCH   1  12
ATOM     11  C   UNL     1      25.125  24.918  27.906  0.00  0.00    +0.000 C 
ATOM     12  C   UNL     1      25.939  23.952  27.612  0.00  0.00    +0.000 C 
BRANCH  12  13
ATOM     13  C   UNL     1      26.739  23.359  28.693  0.00  0.00    +0.000 A 
ATOM     14  C   UNL     1      26.403  22.423  29.628  0.00  0.00    +0.000 A 
ATOM     15  C   UNL     1      27.316  22.049  30.508  0.00  0.00    +0.000 A 
ATOM     16  C   UNL     1      28.552  22.621  30.436  0.00  0.00    +0.000 A 
ATOM     17  S   UNL     1      28.385  23.681  29.114  0.00  0.00    +0.000 S 
BRANCH  16  18
ATOM     18  C   UNL     1      29.737  22.346  31.327  0.00  0.00    +0.000 C 
ATOM     19  C   UNL     1      31.001  22.374  30.466  0.00  0.00    +0.000 C 
ENDBRANCH  16  18
ENDBRANCH  12  13
ENDBRANCH   1  12
TORSDOF 5
ENDMDL
MODEL 10
REMARK VINA RESULT:      -5.4      3.093      7.809
REMARK  Name = 
REMARK  5 active torsions:
REMARK  status: ('A' for Active; 'I' for Inactive)
REMARK    1  A    between atoms: C_2  and  N_3
REMARK    2  A    between atoms: C_2  and  C_13
REMARK    3  A    between atoms: N_3  and  N_4
REMARK    4  A    between atoms: C_5  and  C_7
REMARK    5  A    between atoms: C_16  and  C_17
REMARK                            x       y       z     vdW  Elec       q    Type
REMARK                         _______ _______ _______ _____ _____    ______ ____
ROOT
ATOM      1  N   UNL     1      19.456  11.145  38.023  0.00  0.00    +0.000 NA
ENDROOT
BRANCH   1   2
ATOM      2  N   UNL     1      18.252  11.620  37.561  0.00  0.00    +0.000 NA
ATOM      3  C   UNL     1      17.233  10.781  37.013  0.00  0.00    +0.000 C 
ATOM      4  O   UNL     1      17.438   9.550  36.943  0.00  0.00    +0.000 OA
BRANCH   3   5
ATOM      5  C   UNL     1      15.966  11.352  36.543  0.00  0.00    +0.000 A 
ATOM      6  C   UNL     1      14.859  11.700  37.284  0.00  0.00    +0.000 A 
ATOM      7  C   UNL     1      13.922  12.197  36.407  0.00  0.00    +0.000 A 
ATOM      8  O   UNL     1      14.430  12.155  35.199  0.00  0.00    +0.000 OA
ATOM      9  C   UNL     1      15.646  11.659  35.231  0.00  0.00    +0.000 A 
ATOM     10  C   UNL     1      16.583  11.430  34.111  0.00  0.00    +0.000 C 
ENDBRANCH   3   5
ENDBRANCH   1   2
BRANCH   1  12
ATOM     11  C   UNL     1      20.775  13.054  38.400  0.00  0.00    +0.000 C 
ATOM     12  C   UNL     1      20.690  11.815  38.026  0.00  0.00    +0.000 C 
BRANCH  12  13
ATOM     13  C   UNL     1      21.920  11.126  37.610  0.00  0.00    +0.000 A 
ATOM     14  C   UNL     1      22.096  10.059  36.777  0.00  0.00    +0.000 A 
ATOM     15  C   UNL     1      23.324   9.620  36.560  0.00  0.00    +0.000 A 
ATOM     16  C   UNL     1      24.356  10.258  37.181  0.00  0.00    +0.000 A 
ATOM     17  S   UNL     1      23.553  11.472  38.064  0.00  0.00    +0.000 S 
BRANCH  16  18
ATOM     18  C   UNL     1      25.824   9.933  37.076  0.00  0.00    +0.000 C 
ATOM     19  C   UNL     1      26.251   9.219  38.360  0.00  0.00    +0.000 C 
ENDBRANCH  16  18
ENDBRANCH  12  13
ENDBRANCH   1  12
TORSDOF 5
ENDMDL
