MODEL 1
REMARK VINA RESULT:      -6.2      0.000      0.000
REMARK  Name = 
REMARK  2 active torsions:
REMARK  status: ('A' for Active; 'I' for Inactive)
REMARK    1  A    between atoms: C_5  and  C_6
REMARK    2  A    between atoms: C_6  and  C_10
REMARK                            x       y       z     vdW  Elec       q    Type
REMARK                         _______ _______ _______ _____ _____    ______ ____
ROOT
ATOM      1  C   UNL     1      18.598  10.162  38.668  0.00  0.00    +0.000 C 
ATOM      2  C   UNL     1      19.509  10.975  39.128  0.00  0.00    +0.000 C 
ATOM      3 CL   UNL     1      20.176  10.742  40.711  0.00  0.00    +0.000 Cl
ATOM      4 CL   UNL     1      20.058  12.296  38.146  0.00  0.00    +0.000 Cl
ENDROOT
BRANCH   1   9
ATOM      5  O   UNL     1      16.240  10.422  33.594  0.00  0.00    +0.000 OA
ATOM      6  C   UNL     1      16.845  10.356  34.829  0.00  0.00    +0.000 A 
ATOM      7  C   UNL     1      16.305  11.091  35.865  0.00  0.00    +0.000 A 
ATOM      8  C   UNL     1      16.868  11.056  37.124  0.00  0.00    +0.000 A 
ATOM      9  C   UNL     1      17.975  10.281  37.348  0.00  0.00    +0.000 A 
ATOM     10  C   UNL     1      18.496   9.555  36.289  0.00  0.00    +0.000 A 
ATOM     11  C   UNL     1      17.960   9.568  35.022  0.00  0.00    +0.000 A 
ENDBRANCH   1   9
BRANCH   1  12
ATOM     12  C   UNL     1      18.147   9.064  39.518  0.00  0.00    +0.000 A 
ATOM     13  C   UNL     1      18.848   7.879  39.500  0.00  0.00    +0.000 A 
ATOM     14  C   UNL     1      18.476   6.795  40.258  0.00  0.00    +0.000 A 
ATOM     15  C   UNL     1      17.344   6.912  41.066  0.00  0.00    +0.000 A 
ATOM     16  O   UNL     1      16.926   5.871  41.840  0.00  0.00    +0.000 OA
ATOM     17  C   UNL     1      16.650   8.098  41.076  0.00  0.00    +0.000 A 
ATOM     18  C   UNL     1      17.025   9.202  40.308  0.00  0.00    +0.000 A 
ENDBRANCH   1  12
TORSDOF 2
ENDMDL
MODEL 2
REMARK VINA RESULT:      -6.2      0.254      5.358
REMARK  Name = 
REMARK  2 active torsions:
REMARK  status: ('A' for Active; 'I' for Inactive)
REMARK    1  A    between atoms: C_5  and  C_6
REMARK    2  A    between atoms: C_6  and  C_10
REMARK                            x       y       z     vdW  Elec       q    Type
REMARK                         _______ _______ _______ _____ _____    ______ ____
ROOT
ATOM      1  C   UNL     1      18.499   9.989  38.843  0.00  0.00    +0.000 C 
ATOM      2  C   UNL     1      19.395  10.857  39.227  0.00  0.00    +0.000 C 
ATOM      3 CL   UNL     1      19.836  12.178  38.194  0.00  0.00    +0.000 Cl
ATOM      4 CL   UNL     1      20.146  10.689  40.781  0.00  0.00    +0.000 Cl
ENDROOT
BRANCH   1   9
ATOM      5  O   UNL     1      17.031   5.560  41.942  0.00  0.00    +0.000 OA
ATOM      6  C   UNL     1      17.399   6.632  41.160  0.00  0.00    +0.000 A 
ATOM      7  C   UNL     1      16.664   7.796  41.251  0.00  0.00    +0.000 A 
ATOM      8  C   UNL     1      16.993   8.901  40.495  0.00  0.00    +0.000 A 
ATOM      9  C   UNL     1      18.065   8.842  39.644  0.00  0.00    +0.000 A 
ATOM     10  C   UNL     1      18.784   7.659  39.571  0.00  0.00    +0.000 A 
ATOM     11  C   UNL     1      18.482   6.540  40.312  0.00  0.00    +0.000 A 
ENDBRANCH   1   9
BRANCH   1  12
ATOM     12  C   UNL     1      17.889  10.149  37.526  0.00  0.00    +0.000 A 
ATOM     13  C   UNL     1      18.480   9.539  36.443  0.00  0.00    +0.000 A 
ATOM     14  C   UNL     1      17.977   9.657  35.170  0.00  0.00    +0.000 A 
ATOM     15  C   UNL     1      16.829  10.428  34.983  0.00  0.00    +0.000 A 
ATOM     16  O   UNL     1      16.283  10.581  33.744  0.00  0.00    +0.000 OA
ATOM     17  C   UNL     1      16.247  11.034  36.070  0.00  0.00    +0.000 A 
ATOM     18  C   UNL     1      16.755  10.916  37.365  0.00  0.00    +0.000 A 
ENDBRANCH   1  12
TORSDOF 2
ENDMDL
MODEL 3
REMARK VINA RESULT:      -5.9     19.822     22.170
REMARK  Name = 
REMARK  2 active torsions:
REMARK  status: ('A' for Active; 'I' for Inactive)
REMARK    1  A    between atoms: C_5  and  C_6
REMARK    2  A    between atoms: C_6  and  C_10
REMARK                            x       y       z     vdW  Elec       q    Type
REMARK                         _______ _______ _______ _____ _____    ______ ____
ROOT
ATOM      1  C   UNL     1      27.868  23.413  25.248  0.00  0.00    +0.000 C 
ATOM      2  C   UNL     1      27.147  23.329  24.164  0.00  0.00    +0.000 C 
ATOM      3 CL   UNL     1      27.891  23.461  22.603  0.00  0.00    +0.000 Cl
ATOM      4 CL   UNL     1      25.435  23.080  24.285  0.00  0.00    +0.000 Cl
ENDROOT
BRANCH   1   9
ATOM      5  O   UNL     1      25.993  23.025  30.512  0.00  0.00    +0.000 OA
ATOM      6  C   UNL     1      26.457  23.093  29.218  0.00  0.00    +0.000 A 
ATOM      7  C   UNL     1      25.902  24.028  28.368  0.00  0.00    +0.000 A 
ATOM      8  C   UNL     1      26.335  24.143  27.063  0.00  0.00    +0.000 A 
ATOM      9  C   UNL     1      27.329  23.318  26.607  0.00  0.00    +0.000 A 
ATOM     10  C   UNL     1      27.867  22.387  27.481  0.00  0.00    +0.000 A 
ATOM     11  C   UNL     1      27.458  22.247  28.788  0.00  0.00    +0.000 A 
ENDBRANCH   1   9
BRANCH   1  12
ATOM     12  C   UNL     1      29.305  23.633  25.117  0.00  0.00    +0.000 A 
ATOM     13  C   UNL     1      29.805  24.899  25.327  0.00  0.00    +0.000 A 
ATOM     14  C   UNL     1      31.142  25.189  25.205  0.00  0.00    +0.000 A 
ATOM     15  C   UNL     1      32.012  24.156  24.852  0.00  0.00    +0.000 A 
ATOM     16  O   UNL     1      33.349  24.382  24.717  0.00  0.00    +0.000 OA
ATOM     17  C   UNL     1      31.504  22.896  24.644  0.00  0.00    +0.000 A 
ATOM     18  C   UNL     1      30.146  22.598  24.767  0.00  0.00    +0.000 A 
ENDBRANCH   1  12
TORSDOF 2
ENDMDL
MODEL 4
REMARK VINA RESULT:      -5.9      3.225      4.845
REMARK  Name = 
REMARK  2 active torsions:
REMARK  status: ('A' for Active; 'I' for Inactive)
REMARK    1  A    between atoms: C_5  and  C_6
REMARK    2  A    between atoms: C_6  and  C_10
REMARK                            x       y       z     vdW  Elec       q    Type
REMARK                         _______ _______ _______ _____ _____    ______ ____
ROOT
ATOM      1  C   UNL     1      19.614  10.041  37.948  0.00  0.00    +0.000 C 
ATOM      2  C   UNL     1      19.416   9.298  39.002  0.00  0.00    +0.000 C 
ATOM      3 CL   UNL     1      20.761   8.686  39.909  0.00  0.00    +0.000 Cl
ATOM      4 CL   UNL     1      17.797   8.925  39.501  0.00  0.00    +0.000 Cl
ENDROOT
BRANCH   1   9
ATOM      5  O   UNL     1      15.434  11.996  34.772  0.00  0.00    +0.000 OA
ATOM      6  C   UNL     1      16.472  11.504  35.530  0.00  0.00    +0.000 A 
ATOM      7  C   UNL     1      16.950  12.274  36.571  0.00  0.00    +0.000 A 
ATOM      8  C   UNL     1      17.984  11.826  37.366  0.00  0.00    +0.000 A 
ATOM      9  C   UNL     1      18.543  10.599  37.118  0.00  0.00    +0.000 A 
ATOM     10  C   UNL     1      18.044   9.848  36.066  0.00  0.00    +0.000 A 
ATOM     11  C   UNL     1      17.014  10.266  35.255  0.00  0.00    +0.000 A 
ENDBRANCH   1   9
BRANCH   1  12
ATOM     12  C   UNL     1      20.986  10.332  37.544  0.00  0.00    +0.000 A 
ATOM     13  C   UNL     1      21.654  11.366  38.161  0.00  0.00    +0.000 A 
ATOM     14  C   UNL     1      22.940  11.713  37.824  0.00  0.00    +0.000 A 
ATOM     15  C   UNL     1      23.577  10.986  36.817  0.00  0.00    +0.000 A 
ATOM     16  O   UNL     1      24.853  11.283  36.440  0.00  0.00    +0.000 OA
ATOM     17  C   UNL     1      22.902   9.957  36.206  0.00  0.00    +0.000 A 
ATOM     18  C   UNL     1      21.595   9.602  36.546  0.00  0.00    +0.000 A 
ENDBRANCH   1  12
TORSDOF 2
ENDMDL
MODEL 5
REMARK VINA RESULT:      -5.7      3.578      5.688
REMARK  Name = 
REMARK  2 active torsions:
REMARK  status: ('A' for Active; 'I' for Inactive)
REMARK    1  A    between atoms: C_5  and  C_6
REMARK    2  A    between atoms: C_6  and  C_10
REMARK                            x       y       z     vdW  Elec       q    Type
REMARK                         _______ _______ _______ _____ _____    ______ ____
ROOT
ATOM      1  C   UNL     1      18.994  10.920  37.406  0.00  0.00    +0.000 C 
ATOM      2  C   UNL     1      19.444  10.035  36.559  0.00  0.00    +0.000 C 
ATOM      3 CL   UNL     1      18.390   9.346  35.367  0.00  0.00    +0.000 Cl
ATOM      4 CL   UNL     1      21.107   9.548  36.624  0.00  0.00    +0.000 Cl
ENDROOT
BRANCH   1   9
ATOM      5  O   UNL     1      22.007  13.510  41.354  0.00  0.00    +0.000 OA
ATOM      6  C   UNL     1      21.282  12.885  40.364  0.00  0.00    +0.000 A 
ATOM      7  C   UNL     1      20.804  11.613  40.603  0.00  0.00    +0.000 A 
ATOM      8  C   UNL     1      20.067  10.944  39.647  0.00  0.00    +0.000 A 
ATOM      9  C   UNL     1      19.806  11.552  38.448  0.00  0.00    +0.000 A 
ATOM     10  C   UNL     1      20.300  12.830  38.235  0.00  0.00    +0.000 A 
ATOM     11  C   UNL     1      21.038  13.524  39.167  0.00  0.00    +0.000 A 
ENDBRANCH   1   9
BRANCH   1  12
ATOM     12  C   UNL     1      17.588  11.305  37.335  0.00  0.00    +0.000 A 
ATOM     13  C   UNL     1      16.670  10.608  38.089  0.00  0.00    +0.000 A 
ATOM     14  C   UNL     1      15.327  10.899  38.062  0.00  0.00    +0.000 A 
ATOM     15  C   UNL     1      14.892  11.935  37.235  0.00  0.00    +0.000 A 
ATOM     16  O   UNL     1      13.573  12.270  37.167  0.00  0.00    +0.000 OA
ATOM     17  C   UNL     1      15.816  12.624  36.485  0.00  0.00    +0.000 A 
ATOM     18  C   UNL     1      17.181  12.332  36.510  0.00  0.00    +0.000 A 
ENDBRANCH   1  12
TORSDOF 2
ENDMDL
MODEL 6
REMARK VINA RESULT:      -5.7     21.065     23.230
REMARK  Name = 
REMARK  2 active torsions:
REMARK  status: ('A' for Active; 'I' for Inactive)
REMARK    1  A    between atoms: C_5  and  C_6
REMARK    2  A    between atoms: C_6  and  C_10
REMARK                            x       y       z     vdW  Elec       q    Type
REMARK                         _______ _______ _______ _____ _____    ______ ____
ROOT
ATOM      1  C   UNL     1      27.923  23.996  25.463  0.00  0.00    +0.000 C 
ATOM      2  C   UNL     1      26.652  24.109  25.734  0.00  0.00    +0.000 C 
ATOM      3 CL   UNL     1      25.530  24.583  24.499  0.00  0.00    +0.000 Cl
ATOM      4 CL   UNL     1      26.080  23.780  27.338  0.00  0.00    +0.000 Cl
ENDROOT
BRANCH   1   9
ATOM      5  O   UNL     1      31.924  22.415  29.050  0.00  0.00    +0.000 OA
ATOM      6  C   UNL     1      30.931  22.778  28.169  0.00  0.00    +0.000 A 
ATOM      7  C   UNL     1      30.399  24.048  28.264  0.00  0.00    +0.000 A 
ATOM      8  C   UNL     1      29.406  24.465  27.402  0.00  0.00    +0.000 A 
ATOM      9  C   UNL     1      28.944  23.607  26.439  0.00  0.00    +0.000 A 
ATOM     10  C   UNL     1      29.494  22.337  26.369  0.00  0.00    +0.000 A 
ATOM     11  C   UNL     1      30.485  21.890  27.212  0.00  0.00    +0.000 A 
ENDBRANCH   1   9
BRANCH   1  12
ATOM     12  C   UNL     1      28.379  24.289  24.108  0.00  0.00    +0.000 A 
ATOM     13  C   UNL     1      28.951  25.515  23.850  0.00  0.00    +0.000 A 
ATOM     14  C   UNL     1      29.387  25.871  22.597  0.00  0.00    +0.000 A 
ATOM     15  C   UNL     1      29.235  24.951  21.558  0.00  0.00    +0.000 A 
ATOM     16  O   UNL     1      29.650  25.248  20.295  0.00  0.00    +0.000 OA
ATOM     17  C   UNL     1      28.661  23.732  21.825  0.00  0.00    +0.000 A 
ATOM     18  C   UNL     1      28.217  23.365  23.097  0.00  0.00    +0.000 A 
ENDBRANCH   1  12
TORSDOF 2
ENDMDL
MODEL 7
REMARK VINA RESULT:      -5.7     21.074     22.712
REMARK  Name = 
REMARK  2 active torsions:
REMARK  status: ('A' for Active; 'I' for Inactive)
REMARK    1  A    between atoms: C_5  and  C_6
REMARK    2  A    between atoms: C_6  and  C_10
REMARK                            x       y       z     vdW  Elec       q    Type
REMARK                         _______ _______ _______ _____ _____    ______ ____
ROOT
ATOM      1  C   UNL     1      27.866  24.048  25.360  0.00  0.00    +0.000 C 
ATOM      2  C   UNL     1      26.631  24.129  25.773  0.00  0.00    +0.000 C 
ATOM      3 CL   UNL     1      26.227  23.733  27.413  0.00  0.00    +0.000 Cl
ATOM      4 CL   UNL     1      25.388  24.638  24.677  0.00  0.00    +0.000 Cl
ENDROOT
BRANCH   1   9
ATOM      5  O   UNL     1      29.695  25.315  20.219  0.00  0.00    +0.000 OA
ATOM      6  C   UNL     1      29.238  25.030  21.486  0.00  0.00    +0.000 A 
ATOM      7  C   UNL     1      28.650  23.802  21.713  0.00  0.00    +0.000 A 
ATOM      8  C   UNL     1      28.181  23.463  22.965  0.00  0.00    +0.000 A 
ATOM      9  C   UNL     1      28.302  24.357  23.996  0.00  0.00    +0.000 A 
ATOM     10  C   UNL     1      28.895  25.583  23.739  0.00  0.00    +0.000 A 
ATOM     11  C   UNL     1      29.373  25.952  22.503  0.00  0.00    +0.000 A 
ENDBRANCH   1   9
BRANCH   1  12
ATOM     12  C   UNL     1      28.892  23.607  26.300  0.00  0.00    +0.000 A 
ATOM     13  C   UNL     1      29.374  24.504  27.226  0.00  0.00    +0.000 A 
ATOM     14  C   UNL     1      30.352  24.170  28.132  0.00  0.00    +0.000 A 
ATOM     15  C   UNL     1      30.868  22.874  28.098  0.00  0.00    +0.000 A 
ATOM     16  O   UNL     1      31.838  22.484  28.972  0.00  0.00    +0.000 OA
ATOM     17  C   UNL     1      30.381  21.985  27.170  0.00  0.00    +0.000 A 
ATOM     18  C   UNL     1      29.387  22.321  26.248  0.00  0.00    +0.000 A 
ENDBRANCH   1  12
TORSDOF 2
ENDMDL
MODEL 8
REMARK VINA RESULT:      -5.6     20.895     22.023
REMARK  Name = 
REMARK  2 active torsions:
REMARK  status: ('A' for Active; 'I' for Inactive)
REMARK    1  A    between atoms: C_5  and  C_6
REMARK    2  A    between atoms: C_6  and  C_10
REMARK                            x       y       z     vdW  Elec       q    Type
REMARK                         _______ _______ _______ _____ _____    ______ ____
ROOT
ATOM      1  C   UNL     1      34.055  -5.111  33.140  0.00  0.00    +0.000 C 
ATOM      2  C   UNL     1      34.828  -5.842  33.895  0.00  0.00    +0.000 C 
ATOM      3 CL   UNL     1      35.123  -5.393  35.544  0.00  0.00    +0.000 Cl
ATOM      4 CL   UNL     1      35.562  -7.273  33.246  0.00  0.00    +0.000 Cl
ENDROOT
BRANCH   1   9
ATOM      5  O   UNL     1      33.066  -6.339  27.765  0.00  0.00    +0.000 OA
ATOM      6  C   UNL     1      33.327  -6.018  29.078  0.00  0.00    +0.000 A 
ATOM      7  C   UNL     1      32.297  -6.103  29.993  0.00  0.00    +0.000 A 
ATOM      8  C   UNL     1      32.505  -5.798  31.322  0.00  0.00    +0.000 A 
ATOM      9  C   UNL     1      33.751  -5.407  31.738  0.00  0.00    +0.000 A 
ATOM     10  C   UNL     1      34.765  -5.329  30.797  0.00  0.00    +0.000 A 
ATOM     11  C   UNL     1      34.591  -5.626  29.465  0.00  0.00    +0.000 A 
ENDBRANCH   1   9
BRANCH   1  12
ATOM     12  C   UNL     1      33.458  -3.906  33.708  0.00  0.00    +0.000 A 
ATOM     13  C   UNL     1      33.993  -2.681  33.379  0.00  0.00    +0.000 A 
ATOM     14  C   UNL     1      33.499  -1.504  33.888  0.00  0.00    +0.000 A 
ATOM     15  C   UNL     1      32.419  -1.568  34.770  0.00  0.00    +0.000 A 
ATOM     16  O   UNL     1      31.885  -0.434  35.305  0.00  0.00    +0.000 OA
ATOM     17  C   UNL     1      31.892  -2.796  35.093  0.00  0.00    +0.000 A 
ATOM     18  C   UNL     1      32.392  -3.993  34.579  0.00  0.00    +0.000 A 
ENDBRANCH   1  12
TORSDOF 2
ENDMDL
MODEL 9
REMARK VINA RESULT:      -5.6     31.806     34.593
REMARK  Name = 
REMARK  2 active torsions:
REMARK  status: ('A' for Active; 'I' for Inactive)
REMARK    1  A    between atoms: C_5  and  C_6
REMARK    2  A    between atoms: C_6  and  C_10
REMARK                            x       y       z     vdW  Elec       q    Type
REMARK                         _______ _______ _______ _____ _____    ______ ____
ROOT
ATOM      1  C   UNL     1      32.032  21.595   8.723  0.00  0.00    +0.000 C 
ATOM      2  C   UNL     1      33.316  21.825   8.744  0.00  0.00    +0.000 C 
ATOM      3 CL   UNL     1      34.090  22.349  10.205  0.00  0.00    +0.000 Cl
ATOM      4 CL   UNL     1      34.255  21.600   7.303  0.00  0.00    +0.000 Cl
ENDROOT
BRANCH   1   9
ATOM      5  O   UNL     1      29.073  19.817   4.312  0.00  0.00    +0.000 OA
ATOM      6  C   UNL     1      29.810  20.228   5.399  0.00  0.00    +0.000 A 
ATOM      7  C   UNL     1      30.318  21.512   5.401  0.00  0.00    +0.000 A 
ATOM      8  C   UNL     1      31.059  21.977   6.468  0.00  0.00    +0.000 A 
ATOM      9  C   UNL     1      31.292  21.154   7.538  0.00  0.00    +0.000 A 
ATOM     10  C   UNL     1      30.771  19.870   7.508  0.00  0.00    +0.000 A 
ATOM     11  C   UNL     1      30.029  19.375   6.460  0.00  0.00    +0.000 A 
ENDBRANCH   1   9
BRANCH   1  12
ATOM     12  C   UNL     1      31.264  21.801   9.947  0.00  0.00    +0.000 A 
ATOM     13  C   UNL     1      30.520  22.952  10.078  0.00  0.00    +0.000 A 
ATOM     14  C   UNL     1      29.786  23.226  11.207  0.00  0.00    +0.000 A 
ATOM     15  C   UNL     1      29.807  22.299  12.250  0.00  0.00    +0.000 A 
ATOM     16  O   UNL     1      29.098  22.516  13.393  0.00  0.00    +0.000 OA
ATOM     17  C   UNL     1      30.553  21.153  12.110  0.00  0.00    +0.000 A 
ATOM     18  C   UNL     1      31.300  20.871  10.965  0.00  0.00    +0.000 A 
ENDBRANCH   1  12
TORSDOF 2
ENDMDL
MODEL 10
REMARK VINA RESULT:      -5.6     20.830     22.240
REMARK  Name = 
REMARK  2 active torsions:
REMARK  status: ('A' for Active; 'I' for Inactive)
REMARK    1  A    between atoms: C_5  and  C_6
REMARK    2  A    between atoms: C_6  and  C_10
REMARK                            x       y       z     vdW  Elec       q    Type
REMARK                         _______ _______ _______ _____ _____    ______ ____
ROOT
ATOM      1  C   UNL     1      33.769  -5.319  33.304  0.00  0.00    +0.000 C 
ATOM      2  C   UNL     1      34.279  -6.276  34.030  0.00  0.00    +0.000 C 
ATOM      3 CL   UNL     1      34.796  -7.758  33.292  0.00  0.00    +0.000 Cl
ATOM      4 CL   UNL     1      34.444  -6.062  35.744  0.00  0.00    +0.000 Cl
ENDROOT
BRANCH   1   9
ATOM      5  O   UNL     1      32.007  -0.339  35.164  0.00  0.00    +0.000 OA
ATOM      6  C   UNL     1      32.466  -1.553  34.707  0.00  0.00    +0.000 A 
ATOM      7  C   UNL     1      31.826  -2.700  35.131  0.00  0.00    +0.000 A 
ATOM      8  C   UNL     1      32.241  -3.942  34.699  0.00  0.00    +0.000 A 
ATOM      9  C   UNL     1      33.302  -4.038  33.837  0.00  0.00    +0.000 A 
ATOM     10  C   UNL     1      33.927  -2.870  33.430  0.00  0.00    +0.000 A 
ATOM     11  C   UNL     1      33.538  -1.616  33.842  0.00  0.00    +0.000 A 
ENDBRANCH   1   9
BRANCH   1  12
ATOM     12  C   UNL     1      33.633  -5.529  31.866  0.00  0.00    +0.000 A 
ATOM     13  C   UNL     1      32.389  -5.818  31.352  0.00  0.00    +0.000 A 
ATOM     14  C   UNL     1      32.183  -6.046  30.013  0.00  0.00    +0.000 A 
ATOM     15  C   UNL     1      33.284  -5.984  29.156  0.00  0.00    +0.000 A 
ATOM     16  O   UNL     1      33.142  -6.200  27.818  0.00  0.00    +0.000 OA
ATOM     17  C   UNL     1      34.522  -5.696  29.679  0.00  0.00    +0.000 A 
ATOM     18  C   UNL     1      34.734  -5.463  31.038  0.00  0.00    +0.000 A 
ENDBRANCH   1  12
TORSDOF 2
ENDMDL
