MODEL 1
REMARK VINA RESULT:      -5.8      0.000      0.000
REMARK  Name = 
REMARK  3 active torsions:
REMARK  status: ('A' for Active; 'I' for Inactive)
REMARK    1  A    between atoms: C_6  and  N_7
REMARK    2  A    between atoms: N_7  and  C_8
REMARK    3  A    between atoms: C_11  and  C_12
REMARK                            x       y       z     vdW  Elec       q    Type
REMARK                         _______ _______ _______ _____ _____    ______ ____
ROOT
ATOM      1  C   UNL     1      24.115  26.275  30.119  0.00  0.00    +0.000 C 
ATOM      2  C   UNL     1      25.054  25.605  29.153  0.00  0.00    +0.000 A 
ATOM      3  C   UNL     1      25.790  24.492  29.504  0.00  0.00    +0.000 A 
ATOM      4  C   UNL     1      26.640  23.914  28.575  0.00  0.00    +0.000 A 
ATOM      5  N   UNL     1      26.777  24.402  27.329  0.00  0.00    +0.000 N 
ATOM      6  C   UNL     1      27.535  24.002  26.280  0.00  0.00    +0.000 A 
ATOM      7  C   UNL     1      27.305  24.854  25.218  0.00  0.00    +0.000 A 
ATOM      8  N   UNL     1      26.406  25.744  25.673  0.00  0.00    +0.000 NA
ATOM      9  C   UNL     1      26.073  25.486  26.953  0.00  0.00    +0.000 A 
ATOM     10  C   UNL     1      25.213  26.085  27.868  0.00  0.00    +0.000 A 
ENDROOT
BRANCH   7  11
ATOM     11  C   UNL     1      27.916  24.791  23.881  0.00  0.00    +0.000 A 
ATOM     12  C   UNL     1      28.961  25.652  23.587  0.00  0.00    +0.000 A 
ATOM     13  C   UNL     1      29.549  25.614  22.349  0.00  0.00    +0.000 A 
ATOM     14  C   UNL     1      29.089  24.718  21.412  0.00  0.00    +0.000 A 
ATOM     15  C   UNL     1      28.041  23.852  21.699  0.00  0.00    +0.000 A 
ATOM     16  C   UNL     1      27.465  23.903  22.942  0.00  0.00    +0.000 A 
ATOM     17  O   UNL     1      26.427  23.050  23.236  0.00  0.00    +0.000 OA
ENDBRANCH   7  11
BRANCH   6  18
ATOM     18  N   UNL     1      28.437  22.914  26.191  0.00  0.00    +0.000 NA
BRANCH  18  19
ATOM     19  C   UNL     1      29.859  23.045  26.217  0.00  0.00    +0.000 C 
ATOM     20  C   UNL     1      30.458  22.509  24.936  0.00  0.00    +0.000 C 
ATOM     21  C   UNL     1      30.378  22.299  27.425  0.00  0.00    +0.000 C 
ENDBRANCH  18  19
ENDBRANCH   6  18
TORSDOF 3
ENDMDL
MODEL 2
REMARK VINA RESULT:      -5.8     32.266     33.917
REMARK  Name = 
REMARK  3 active torsions:
REMARK  status: ('A' for Active; 'I' for Inactive)
REMARK    1  A    between atoms: C_6  and  N_7
REMARK    2  A    between atoms: N_7  and  C_8
REMARK    3  A    between atoms: C_11  and  C_12
REMARK                            x       y       z     vdW  Elec       q    Type
REMARK                         _______ _______ _______ _____ _____    ______ ____
ROOT
ATOM      1  C   UNL     1      26.499  -7.236  22.677  0.00  0.00    +0.000 C 
ATOM      2  C   UNL     1      25.078  -7.623  22.980  0.00  0.00    +0.000 A 
ATOM      3  C   UNL     1      24.367  -8.483  22.167  0.00  0.00    +0.000 A 
ATOM      4  C   UNL     1      23.061  -8.808  22.492  0.00  0.00    +0.000 A 
ATOM      5  N   UNL     1      22.450  -8.311  23.583  0.00  0.00    +0.000 N 
ATOM      6  C   UNL     1      21.203  -8.492  24.082  0.00  0.00    +0.000 A 
ATOM      7  C   UNL     1      21.078  -7.746  25.238  0.00  0.00    +0.000 A 
ATOM      8  N   UNL     1      22.268  -7.140  25.393  0.00  0.00    +0.000 NA
ATOM      9  C   UNL     1      23.114  -7.471  24.398  0.00  0.00    +0.000 A 
ATOM     10  C   UNL     1      24.427  -7.129  24.092  0.00  0.00    +0.000 A 
ENDROOT
BRANCH   7  11
ATOM     11  C   UNL     1      19.893  -7.647  26.105  0.00  0.00    +0.000 A 
ATOM     12  C   UNL     1      19.031  -6.576  25.931  0.00  0.00    +0.000 A 
ATOM     13  C   UNL     1      17.919  -6.459  26.725  0.00  0.00    +0.000 A 
ATOM     14  C   UNL     1      17.677  -7.411  27.689  0.00  0.00    +0.000 A 
ATOM     15  C   UNL     1      18.537  -8.487  27.870  0.00  0.00    +0.000 A 
ATOM     16  C   UNL     1      19.643  -8.588  27.066  0.00  0.00    +0.000 A 
ATOM     17  O   UNL     1      20.501  -9.650  27.237  0.00  0.00    +0.000 OA
ENDBRANCH   7  11
BRANCH   6  18
ATOM     18  N   UNL     1      20.143  -9.284  23.577  0.00  0.00    +0.000 NA
BRANCH  18  19
ATOM     19  C   UNL     1      19.899 -10.638  23.963  0.00  0.00    +0.000 C 
ATOM     20  C   UNL     1      20.306 -11.581  22.853  0.00  0.00    +0.000 C 
ATOM     21  C   UNL     1      18.430 -10.773  24.294  0.00  0.00    +0.000 C 
ENDBRANCH  18  19
ENDBRANCH   6  18
TORSDOF 3
ENDMDL
MODEL 3
REMARK VINA RESULT:      -5.6      2.274      4.774
REMARK  Name = 
REMARK  3 active torsions:
REMARK  status: ('A' for Active; 'I' for Inactive)
REMARK    1  A    between atoms: C_6  and  N_7
REMARK    2  A    between atoms: N_7  and  C_8
REMARK    3  A    between atoms: C_11  and  C_12
REMARK                            x       y       z     vdW  Elec       q    Type
REMARK                         _______ _______ _______ _____ _____    ______ ____
ROOT
ATOM      1  C   UNL     1      32.869  21.375  30.854  0.00  0.00    +0.000 C 
ATOM      2  C   UNL     1      31.848  21.986  29.934  0.00  0.00    +0.000 A 
ATOM      3  C   UNL     1      30.630  22.443  30.396  0.00  0.00    +0.000 A 
ATOM      4  C   UNL     1      29.727  22.999  29.505  0.00  0.00    +0.000 A 
ATOM      5  N   UNL     1      29.993  23.110  28.190  0.00  0.00    +0.000 N 
ATOM      6  C   UNL     1      29.269  23.611  27.161  0.00  0.00    +0.000 A 
ATOM      7  C   UNL     1      30.008  23.489  26.001  0.00  0.00    +0.000 A 
ATOM      8  N   UNL     1      31.162  22.912  26.381  0.00  0.00    +0.000 NA
ATOM      9  C   UNL     1      31.171  22.676  27.707  0.00  0.00    +0.000 A 
ATOM     10  C   UNL     1      32.096  22.114  28.582  0.00  0.00    +0.000 A 
ENDROOT
BRANCH   7  11
ATOM     11  C   UNL     1      29.608  23.903  24.647  0.00  0.00    +0.000 A 
ATOM     12  C   UNL     1      28.898  23.009  23.861  0.00  0.00    +0.000 A 
ATOM     13  C   UNL     1      28.512  23.370  22.596  0.00  0.00    +0.000 A 
ATOM     14  C   UNL     1      28.840  24.620  22.122  0.00  0.00    +0.000 A 
ATOM     15  C   UNL     1      29.553  25.521  22.904  0.00  0.00    +0.000 A 
ATOM     16  C   UNL     1      29.929  25.144  24.167  0.00  0.00    +0.000 A 
ATOM     17  O   UNL     1      30.634  26.029  24.948  0.00  0.00    +0.000 OA
ENDBRANCH   7  11
BRANCH   6  18
ATOM     18  N   UNL     1      27.973  24.181  27.173  0.00  0.00    +0.000 NA
BRANCH  18  19
ATOM     19  C   UNL     1      26.763  23.425  27.233  0.00  0.00    +0.000 C 
ATOM     20  C   UNL     1      25.900  23.720  26.026  0.00  0.00    +0.000 C 
ATOM     21  C   UNL     1      26.052  23.776  28.520  0.00  0.00    +0.000 C 
ENDBRANCH  18  19
ENDBRANCH   6  18
TORSDOF 3
ENDMDL
MODEL 4
REMARK VINA RESULT:      -5.5      1.842      5.635
REMARK  Name = 
REMARK  3 active torsions:
REMARK  status: ('A' for Active; 'I' for Inactive)
REMARK    1  A    between atoms: C_6  and  N_7
REMARK    2  A    between atoms: N_7  and  C_8
REMARK    3  A    between atoms: C_11  and  C_12
REMARK                            x       y       z     vdW  Elec       q    Type
REMARK                         _______ _______ _______ _____ _____    ______ ____
ROOT
ATOM      1  C   UNL     1      28.948  27.840  19.868  0.00  0.00    +0.000 C 
ATOM      2  C   UNL     1      28.895  26.807  20.961  0.00  0.00    +0.000 A 
ATOM      3  C   UNL     1      29.379  25.528  20.779  0.00  0.00    +0.000 A 
ATOM      4  C   UNL     1      29.307  24.616  21.820  0.00  0.00    +0.000 A 
ATOM      5  N   UNL     1      28.776  24.933  23.015  0.00  0.00    +0.000 N 
ATOM      6  C   UNL     1      28.608  24.212  24.149  0.00  0.00    +0.000 A 
ATOM      7  C   UNL     1      28.007  25.015  25.098  0.00  0.00    +0.000 A 
ATOM      8  N   UNL     1      27.834  26.203  24.492  0.00  0.00    +0.000 NA
ATOM      9  C   UNL     1      28.296  26.172  23.226  0.00  0.00    +0.000 A 
ATOM     10  C   UNL     1      28.357  27.106  22.197  0.00  0.00    +0.000 A 
ENDROOT
BRANCH   7  11
ATOM     11  C   UNL     1      27.639  24.641  26.473  0.00  0.00    +0.000 A 
ATOM     12  C   UNL     1      28.488  25.000  27.508  0.00  0.00    +0.000 A 
ATOM     13  C   UNL     1      28.169  24.664  28.799  0.00  0.00    +0.000 A 
ATOM     14  C   UNL     1      27.006  23.971  29.047  0.00  0.00    +0.000 A 
ATOM     15  C   UNL     1      26.152  23.607  28.014  0.00  0.00    +0.000 A 
ATOM     16  C   UNL     1      26.485  23.952  26.730  0.00  0.00    +0.000 A 
ATOM     17  O   UNL     1      25.645  23.597  25.701  0.00  0.00    +0.000 OA
ENDBRANCH   7  11
BRANCH   6  18
ATOM     18  N   UNL     1      28.955  22.864  24.413  0.00  0.00    +0.000 NA
BRANCH  18  19
ATOM     19  C   UNL     1      30.225  22.445  24.915  0.00  0.00    +0.000 C 
ATOM     20  C   UNL     1      30.123  22.115  26.387  0.00  0.00    +0.000 C 
ATOM     21  C   UNL     1      31.219  23.557  24.665  0.00  0.00    +0.000 C 
ENDBRANCH  18  19
ENDBRANCH   6  18
TORSDOF 3
ENDMDL
MODEL 5
REMARK VINA RESULT:      -5.4      2.536      6.519
REMARK  Name = 
REMARK  3 active torsions:
REMARK  status: ('A' for Active; 'I' for Inactive)
REMARK    1  A    between atoms: C_6  and  N_7
REMARK    2  A    between atoms: N_7  and  C_8
REMARK    3  A    between atoms: C_11  and  C_12
REMARK                            x       y       z     vdW  Elec       q    Type
REMARK                         _______ _______ _______ _____ _____    ______ ____
ROOT
ATOM      1  C   UNL     1      34.813  25.010  25.363  0.00  0.00    +0.000 C 
ATOM      2  C   UNL     1      33.395  24.534  25.528  0.00  0.00    +0.000 A 
ATOM      3  C   UNL     1      32.685  23.982  24.480  0.00  0.00    +0.000 A 
ATOM      4  C   UNL     1      31.383  23.558  24.686  0.00  0.00    +0.000 A 
ATOM      5  N   UNL     1      30.775  23.666  25.883  0.00  0.00    +0.000 N 
ATOM      6  C   UNL     1      29.533  23.322  26.299  0.00  0.00    +0.000 A 
ATOM      7  C   UNL     1      29.410  23.647  27.636  0.00  0.00    +0.000 A 
ATOM      8  N   UNL     1      30.597  24.179  27.976  0.00  0.00    +0.000 NA
ATOM      9  C   UNL     1      31.439  24.198  26.925  0.00  0.00    +0.000 A 
ATOM     10  C   UNL     1      32.749  24.631  26.743  0.00  0.00    +0.000 A 
ENDROOT
BRANCH   7  11
ATOM     11  C   UNL     1      28.230  23.448  28.492  0.00  0.00    +0.000 A 
ATOM     12  C   UNL     1      28.114  22.260  29.197  0.00  0.00    +0.000 A 
ATOM     13  C   UNL     1      27.024  22.050  30.003  0.00  0.00    +0.000 A 
ATOM     14  C   UNL     1      26.057  23.024  30.097  0.00  0.00    +0.000 A 
ATOM     15  C   UNL     1      26.167  24.217  29.393  0.00  0.00    +0.000 A 
ATOM     16  C   UNL     1      27.264  24.411  28.593  0.00  0.00    +0.000 A 
ATOM     17  O   UNL     1      27.381  25.589  27.892  0.00  0.00    +0.000 OA
ENDBRANCH   7  11
BRANCH   6  18
ATOM     18  N   UNL     1      28.475  22.730  25.567  0.00  0.00    +0.000 NA
BRANCH  18  19
ATOM     19  C   UNL     1      27.448  23.466  24.902  0.00  0.00    +0.000 C 
ATOM     20  C   UNL     1      26.085  22.955  25.316  0.00  0.00    +0.000 C 
ATOM     21  C   UNL     1      27.660  23.329  23.412  0.00  0.00    +0.000 C 
ENDBRANCH  18  19
ENDBRANCH   6  18
TORSDOF 3
ENDMDL
MODEL 6
REMARK VINA RESULT:      -5.4      2.278      3.364
REMARK  Name = 
REMARK  3 active torsions:
REMARK  status: ('A' for Active; 'I' for Inactive)
REMARK    1  A    between atoms: C_6  and  N_7
REMARK    2  A    between atoms: N_7  and  C_8
REMARK    3  A    between atoms: C_11  and  C_12
REMARK                            x       y       z     vdW  Elec       q    Type
REMARK                         _______ _______ _______ _____ _____    ______ ____
ROOT
ATOM      1  C   UNL     1      21.891  26.874  25.518  0.00  0.00    +0.000 C 
ATOM      2  C   UNL     1      23.217  26.310  25.947  0.00  0.00    +0.000 A 
ATOM      3  C   UNL     1      23.492  26.016  27.267  0.00  0.00    +0.000 A 
ATOM      4  C   UNL     1      24.730  25.497  27.608  0.00  0.00    +0.000 A 
ATOM      5  N   UNL     1      25.688  25.267  26.691  0.00  0.00    +0.000 N 
ATOM      6  C   UNL     1      26.945  24.774  26.801  0.00  0.00    +0.000 A 
ATOM      7  C   UNL     1      27.517  24.738  25.544  0.00  0.00    +0.000 A 
ATOM      8  N   UNL     1      26.570  25.216  24.717  0.00  0.00    +0.000 NA
ATOM      9  C   UNL     1      25.453  25.542  25.395  0.00  0.00    +0.000 A 
ATOM     10  C   UNL     1      24.216  26.063  25.027  0.00  0.00    +0.000 A 
ENDROOT
BRANCH   7  11
ATOM     11  C   UNL     1      28.869  24.275  25.198  0.00  0.00    +0.000 A 
ATOM     12  C   UNL     1      29.069  22.923  24.967  0.00  0.00    +0.000 A 
ATOM     13  C   UNL     1      30.320  22.465  24.642  0.00  0.00    +0.000 A 
ATOM     14  C   UNL     1      31.363  23.358  24.553  0.00  0.00    +0.000 A 
ATOM     15  C   UNL     1      31.170  24.714  24.784  0.00  0.00    +0.000 A 
ATOM     16  C   UNL     1      29.913  25.155  25.107  0.00  0.00    +0.000 A 
ATOM     17  O   UNL     1      29.712  26.496  25.337  0.00  0.00    +0.000 OA
ENDBRANCH   7  11
BRANCH   6  18
ATOM     18  N   UNL     1      27.640  24.345  27.958  0.00  0.00    +0.000 NA
BRANCH  18  19
ATOM     19  C   UNL     1      27.640  23.001  28.442  0.00  0.00    +0.000 C 
ATOM     20  C   UNL     1      26.566  22.822  29.493  0.00  0.00    +0.000 C 
ATOM     21  C   UNL     1      29.014  22.703  28.999  0.00  0.00    +0.000 C 
ENDBRANCH  18  19
ENDBRANCH   6  18
TORSDOF 3
ENDMDL
MODEL 7
REMARK VINA RESULT:      -5.4      2.246      4.201
REMARK  Name = 
REMARK  3 active torsions:
REMARK  status: ('A' for Active; 'I' for Inactive)
REMARK    1  A    between atoms: C_6  and  N_7
REMARK    2  A    between atoms: N_7  and  C_8
REMARK    3  A    between atoms: C_11  and  C_12
REMARK                            x       y       z     vdW  Elec       q    Type
REMARK                         _______ _______ _______ _____ _____    ______ ____
ROOT
ATOM      1  C   UNL     1      32.374  21.793  29.834  0.00  0.00    +0.000 C 
ATOM      2  C   UNL     1      31.406  22.479  28.909  0.00  0.00    +0.000 A 
ATOM      3  C   UNL     1      30.164  22.902  29.338  0.00  0.00    +0.000 A 
ATOM      4  C   UNL     1      29.311  23.530  28.446  0.00  0.00    +0.000 A 
ATOM      5  N   UNL     1      29.650  23.746  27.161  0.00  0.00    +0.000 N 
ATOM      6  C   UNL     1      28.984  24.330  26.137  0.00  0.00    +0.000 A 
ATOM      7  C   UNL     1      29.786  24.297  25.013  0.00  0.00    +0.000 A 
ATOM      8  N   UNL     1      30.918  23.689  25.409  0.00  0.00    +0.000 NA
ATOM      9  C   UNL     1      30.854  23.347  26.711  0.00  0.00    +0.000 A 
ATOM     10  C   UNL     1      31.729  22.714  27.588  0.00  0.00    +0.000 A 
ENDROOT
BRANCH   7  11
ATOM     11  C   UNL     1      29.462  24.820  23.676  0.00  0.00    +0.000 A 
ATOM     12  C   UNL     1      29.719  26.155  23.405  0.00  0.00    +0.000 A 
ATOM     13  C   UNL     1      29.427  26.667  22.167  0.00  0.00    +0.000 A 
ATOM     14  C   UNL     1      28.878  25.845  21.209  0.00  0.00    +0.000 A 
ATOM     15  C   UNL     1      28.617  24.506  21.475  0.00  0.00    +0.000 A 
ATOM     16  C   UNL     1      28.916  24.010  22.717  0.00  0.00    +0.000 A 
ATOM     17  O   UNL     1      28.662  22.686  22.989  0.00  0.00    +0.000 OA
ENDBRANCH   7  11
BRANCH   6  18
ATOM     18  N   UNL     1      27.688  24.901  26.122  0.00  0.00    +0.000 NA
BRANCH  18  19
ATOM     19  C   UNL     1      26.485  24.160  25.915  0.00  0.00    +0.000 C 
ATOM     20  C   UNL     1      26.796  22.685  25.780  0.00  0.00    +0.000 C 
ATOM     21  C   UNL     1      25.808  24.699  24.676  0.00  0.00    +0.000 C 
ENDBRANCH  18  19
ENDBRANCH   6  18
TORSDOF 3
ENDMDL
MODEL 8
REMARK VINA RESULT:      -5.4     28.791     31.267
REMARK  Name = 
REMARK  3 active torsions:
REMARK  status: ('A' for Active; 'I' for Inactive)
REMARK    1  A    between atoms: C_6  and  N_7
REMARK    2  A    between atoms: N_7  and  C_8
REMARK    3  A    between atoms: C_11  and  C_12
REMARK                            x       y       z     vdW  Elec       q    Type
REMARK                         _______ _______ _______ _____ _____    ______ ____
ROOT
ATOM      1  C   UNL     1      32.892  -0.881  35.746  0.00  0.00    +0.000 C 
ATOM      2  C   UNL     1      32.808  -2.193  35.015  0.00  0.00    +0.000 A 
ATOM      3  C   UNL     1      32.101  -3.265  35.520  0.00  0.00    +0.000 A 
ATOM      4  C   UNL     1      32.055  -4.451  34.806  0.00  0.00    +0.000 A 
ATOM      5  N   UNL     1      32.683  -4.601  33.625  0.00  0.00    +0.000 N 
ATOM      6  C   UNL     1      32.769  -5.651  32.774  0.00  0.00    +0.000 A 
ATOM      7  C   UNL     1      33.541  -5.280  31.691  0.00  0.00    +0.000 A 
ATOM      8  N   UNL     1      33.893  -4.005  31.934  0.00  0.00    +0.000 NA
ATOM      9  C   UNL     1      33.381  -3.576  33.104  0.00  0.00    +0.000 A 
ATOM     10  C   UNL     1      33.442  -2.374  33.802  0.00  0.00    +0.000 A 
ENDROOT
BRANCH   7  11
ATOM     11  C   UNL     1      33.894  -6.109  30.528  0.00  0.00    +0.000 A 
ATOM     12  C   UNL     1      33.195  -5.926  29.345  0.00  0.00    +0.000 A 
ATOM     13  C   UNL     1      33.505  -6.685  28.246  0.00  0.00    +0.000 A 
ATOM     14  C   UNL     1      34.508  -7.622  28.335  0.00  0.00    +0.000 A 
ATOM     15  C   UNL     1      35.213  -7.811  29.517  0.00  0.00    +0.000 A 
ATOM     16  C   UNL     1      34.891  -7.043  30.606  0.00  0.00    +0.000 A 
ATOM     17  O   UNL     1      35.583  -7.223  31.781  0.00  0.00    +0.000 OA
ENDBRANCH   7  11
BRANCH   6  18
ATOM     18  N   UNL     1      32.203  -6.944  32.889  0.00  0.00    +0.000 NA
BRANCH  18  19
ATOM     19  C   UNL     1      30.832  -7.247  32.625  0.00  0.00    +0.000 C 
ATOM     20  C   UNL     1      30.255  -8.081  33.748  0.00  0.00    +0.000 C 
ATOM     21  C   UNL     1      30.757  -7.973  31.302  0.00  0.00    +0.000 C 
ENDBRANCH  18  19
ENDBRANCH   6  18
TORSDOF 3
ENDMDL
MODEL 9
REMARK VINA RESULT:      -5.3     21.004     23.823
REMARK  Name = 
REMARK  3 active torsions:
REMARK  status: ('A' for Active; 'I' for Inactive)
REMARK    1  A    between atoms: C_6  and  N_7
REMARK    2  A    between atoms: N_7  and  C_8
REMARK    3  A    between atoms: C_11  and  C_12
REMARK                            x       y       z     vdW  Elec       q    Type
REMARK                         _______ _______ _______ _____ _____    ______ ____
ROOT
ATOM      1  C   UNL     1      15.370  12.037  35.237  0.00  0.00    +0.000 C 
ATOM      2  C   UNL     1      16.054  11.457  36.445  0.00  0.00    +0.000 A 
ATOM      3  C   UNL     1      17.427  11.336  36.517  0.00  0.00    +0.000 A 
ATOM      4  C   UNL     1      18.006  10.796  37.653  0.00  0.00    +0.000 A 
ATOM      5  N   UNL     1      17.273  10.379  38.702  0.00  0.00    +0.000 N 
ATOM      6  C   UNL     1      17.626   9.831  39.890  0.00  0.00    +0.000 A 
ATOM      7  C   UNL     1      16.479   9.583  40.619  0.00  0.00    +0.000 A 
ATOM      8  N   UNL     1      15.469   9.997  39.833  0.00  0.00    +0.000 NA
ATOM      9  C   UNL     1      15.933  10.483  38.665  0.00  0.00    +0.000 A 
ATOM     10  C   UNL     1      15.327  11.023  37.534  0.00  0.00    +0.000 A 
ENDROOT
BRANCH   7  11
ATOM     11  C   UNL     1      16.393   8.994  41.964  0.00  0.00    +0.000 A 
ATOM     12  C   UNL     1      16.406   9.840  43.062  0.00  0.00    +0.000 A 
ATOM     13  C   UNL     1      16.326   9.317  44.327  0.00  0.00    +0.000 A 
ATOM     14  C   UNL     1      16.238   7.953  44.488  0.00  0.00    +0.000 A 
ATOM     15  C   UNL     1      16.226   7.099  43.393  0.00  0.00    +0.000 A 
ATOM     16  C   UNL     1      16.305   7.639  42.135  0.00  0.00    +0.000 A 
ATOM     17  O   UNL     1      16.294   6.801  41.044  0.00  0.00    +0.000 OA
ENDBRANCH   7  11
BRANCH   6  18
ATOM     18  N   UNL     1      18.916   9.526  40.387  0.00  0.00    +0.000 NA
BRANCH  18  19
ATOM     19  C   UNL     1      19.716   8.435  39.930  0.00  0.00    +0.000 C 
ATOM     20  C   UNL     1      19.810   7.370  41.000  0.00  0.00    +0.000 C 
ATOM     21  C   UNL     1      21.081   8.975  39.565  0.00  0.00    +0.000 C 
ENDBRANCH  18  19
ENDBRANCH   6  18
TORSDOF 3
ENDMDL
MODEL 10
REMARK VINA RESULT:      -5.3      1.915      3.950
REMARK  Name = 
REMARK  3 active torsions:
REMARK  status: ('A' for Active; 'I' for Inactive)
REMARK    1  A    between atoms: C_6  and  N_7
REMARK    2  A    between atoms: N_7  and  C_8
REMARK    3  A    between atoms: C_11  and  C_12
REMARK                            x       y       z     vdW  Elec       q    Type
REMARK                         _______ _______ _______ _____ _____    ______ ____
ROOT
ATOM      1  C   UNL     1      21.921  26.625  27.285  0.00  0.00    +0.000 C 
ATOM      2  C   UNL     1      23.260  26.194  26.751  0.00  0.00    +0.000 A 
ATOM      3  C   UNL     1      23.563  26.260  25.406  0.00  0.00    +0.000 A 
ATOM      4  C   UNL     1      24.812  25.851  24.967  0.00  0.00    +0.000 A 
ATOM      5  N   UNL     1      25.751  25.385  25.811  0.00  0.00    +0.000 N 
ATOM      6  C   UNL     1      27.013  24.940  25.601  0.00  0.00    +0.000 A 
ATOM      7  C   UNL     1      27.559  24.573  26.816  0.00  0.00    +0.000 A 
ATOM      8  N   UNL     1      26.593  24.814  27.720  0.00  0.00    +0.000 NA
ATOM      9  C   UNL     1      25.488  25.308  27.128  0.00  0.00    +0.000 A 
ATOM     10  C   UNL     1      24.241  25.713  27.594  0.00  0.00    +0.000 A 
ENDROOT
BRANCH   7  11
ATOM     11  C   UNL     1      28.907  24.035  27.057  0.00  0.00    +0.000 A 
ATOM     12  C   UNL     1      29.953  24.925  27.243  0.00  0.00    +0.000 A 
ATOM     13  C   UNL     1      31.220  24.451  27.470  0.00  0.00    +0.000 A 
ATOM     14  C   UNL     1      31.434  23.092  27.506  0.00  0.00    +0.000 A 
ATOM     15  C   UNL     1      30.390  22.194  27.319  0.00  0.00    +0.000 A 
ATOM     16  C   UNL     1      29.130  22.685  27.095  0.00  0.00    +0.000 A 
ATOM     17  O   UNL     1      28.090  21.805  26.909  0.00  0.00    +0.000 OA
ENDBRANCH   7  11
BRANCH   6  18
ATOM     18  N   UNL     1      27.734  24.832  24.388  0.00  0.00    +0.000 NA
BRANCH  18  19
ATOM     19  C   UNL     1      27.757  23.662  23.568  0.00  0.00    +0.000 C 
ATOM     20  C   UNL     1      29.163  23.113  23.476  0.00  0.00    +0.000 C 
ATOM     21  C   UNL     1      27.217  24.033  22.206  0.00  0.00    +0.000 C 
ENDBRANCH  18  19
ENDBRANCH   6  18
TORSDOF 3
ENDMDL
