MODEL 1
REMARK VINA RESULT:      -6.4      0.000      0.000
REMARK  Name = 
REMARK  2 active torsions:
REMARK  status: ('A' for Active; 'I' for Inactive)
REMARK    1  A    between atoms: C_7  and  C_8
REMARK    2  A    between atoms: C_11  and  C_12
REMARK                            x       y       z     vdW  Elec       q    Type
REMARK                         _______ _______ _______ _____ _____    ______ ____
ROOT
ATOM      1  C   UNL     1      33.357  -0.925  38.132  0.00  0.00    +0.000 C 
ATOM      2  C   UNL     1      33.562   0.229  37.254  0.00  0.00    +0.000 A 
ATOM      3  N   UNL     1      33.343   0.152  35.945  0.00  0.00    +0.000 NA
ATOM      4  C   UNL     1      33.540   1.247  35.132  0.00  0.00    +0.000 A 
ATOM      5  S   UNL     1      33.380   1.532  33.456  0.00  0.00    +0.000 S 
ATOM      6  C   UNL     1      33.850   3.159  33.409  0.00  0.00    +0.000 A 
ATOM      7  C   UNL     1      34.128   3.454  34.727  0.00  0.00    +0.000 A 
ATOM      8  C   UNL     1      33.965   2.456  35.614  0.00  0.00    +0.000 A 
ATOM      9  C   UNL     1      34.183   2.480  37.008  0.00  0.00    +0.000 A 
ATOM     10  O   UNL     1      34.577   3.519  37.599  0.00  0.00    +0.000 OA
ATOM     11  N   UNL     1      33.978   1.392  37.764  0.00  0.00    +0.000 N 
ATOM     12  N   UNL     1      34.225   1.512  39.167  0.00  0.00    +0.000 NA
ENDROOT
BRANCH   7  13
ATOM     13  C   UNL     1      34.560   4.847  35.063  0.00  0.00    +0.000 A 
ATOM     14  C   UNL     1      33.659   5.835  35.359  0.00  0.00    +0.000 A 
ATOM     15  C   UNL     1      34.035   7.124  35.670  0.00  0.00    +0.000 A 
ATOM     16  C   UNL     1      35.363   7.461  35.693  0.00  0.00    +0.000 A 
ATOM     17  C   UNL     1      36.288   6.481  35.399  0.00  0.00    +0.000 A 
ATOM     18  C   UNL     1      35.895   5.185  35.086  0.00  0.00    +0.000 A 
BRANCH  16  19
ATOM     19  C   UNL     1      35.764   8.852  36.030  0.00  0.00    +0.000 C 
ATOM     20  C   UNL     1      34.567   9.698  36.410  0.00  0.00    +0.000 C 
ATOM     21  C   UNL     1      36.789   8.880  37.157  0.00  0.00    +0.000 C 
ENDBRANCH  16  19
ENDBRANCH   7  13
TORSDOF 2
ENDMDL
MODEL 2
REMARK VINA RESULT:      -6.1     21.433     23.887
REMARK  Name = 
REMARK  2 active torsions:
REMARK  status: ('A' for Active; 'I' for Inactive)
REMARK    1  A    between atoms: C_7  and  C_8
REMARK    2  A    between atoms: C_11  and  C_12
REMARK                            x       y       z     vdW  Elec       q    Type
REMARK                         _______ _______ _______ _____ _____    ______ ____
ROOT
ATOM      1  C   UNL     1      24.400  26.508  31.474  0.00  0.00    +0.000 C 
ATOM      2  C   UNL     1      25.133  25.629  30.561  0.00  0.00    +0.000 A 
ATOM      3  N   UNL     1      25.666  24.485  30.978  0.00  0.00    +0.000 NA
ATOM      4  C   UNL     1      26.353  23.668  30.107  0.00  0.00    +0.000 A 
ATOM      5  S   UNL     1      27.162  22.172  30.261  0.00  0.00    +0.000 S 
ATOM      6  C   UNL     1      27.691  21.981  28.663  0.00  0.00    +0.000 A 
ATOM      7  C   UNL     1      27.218  23.110  28.028  0.00  0.00    +0.000 A 
ATOM      8  C   UNL     1      26.525  23.981  28.785  0.00  0.00    +0.000 A 
ATOM      9  C   UNL     1      25.941  25.204  28.397  0.00  0.00    +0.000 A 
ATOM     10  O   UNL     1      26.015  25.630  27.215  0.00  0.00    +0.000 OA
ATOM     11  N   UNL     1      25.280  25.970  29.278  0.00  0.00    +0.000 N 
ATOM     12  N   UNL     1      24.721  27.194  28.793  0.00  0.00    +0.000 NA
ENDROOT
BRANCH   7  13
ATOM     13  C   UNL     1      27.489  23.263  26.564  0.00  0.00    +0.000 A 
ATOM     14  C   UNL     1      26.563  22.917  25.614  0.00  0.00    +0.000 A 
ATOM     15  C   UNL     1      26.792  23.049  24.262  0.00  0.00    +0.000 A 
ATOM     16  C   UNL     1      27.989  23.547  23.817  0.00  0.00    +0.000 A 
ATOM     17  C   UNL     1      28.936  23.902  24.756  0.00  0.00    +0.000 A 
ATOM     18  C   UNL     1      28.692  23.764  26.117  0.00  0.00    +0.000 A 
BRANCH  16  19
ATOM     19  C   UNL     1      28.232  23.688  22.357  0.00  0.00    +0.000 C 
ATOM     20  C   UNL     1      26.980  24.127  21.627  0.00  0.00    +0.000 C 
ATOM     21  C   UNL     1      29.362  24.668  22.071  0.00  0.00    +0.000 C 
ENDBRANCH  16  19
ENDBRANCH   7  13
TORSDOF 2
ENDMDL
MODEL 3
REMARK VINA RESULT:      -5.9     19.545     21.464
REMARK  Name = 
REMARK  2 active torsions:
REMARK  status: ('A' for Active; 'I' for Inactive)
REMARK    1  A    between atoms: C_7  and  C_8
REMARK    2  A    between atoms: C_11  and  C_12
REMARK                            x       y       z     vdW  Elec       q    Type
REMARK                         _______ _______ _______ _____ _____    ______ ____
ROOT
ATOM      1  C   UNL     1      24.222  -2.495  15.262  0.00  0.00    +0.000 C 
ATOM      2  C   UNL     1      24.074  -1.150  15.823  0.00  0.00    +0.000 A 
ATOM      3  N   UNL     1      22.932  -0.751  16.373  0.00  0.00    +0.000 NA
ATOM      4  C   UNL     1      22.807   0.518  16.897  0.00  0.00    +0.000 A 
ATOM      5  S   UNL     1      21.541   1.377  17.656  0.00  0.00    +0.000 S 
ATOM      6  C   UNL     1      22.335   2.847  17.932  0.00  0.00    +0.000 A 
ATOM      7  C   UNL     1      23.596   2.637  17.416  0.00  0.00    +0.000 A 
ATOM      8  C   UNL     1      23.833   1.425  16.881  0.00  0.00    +0.000 A 
ATOM      9  C   UNL     1      25.019   0.949  16.284  0.00  0.00    +0.000 A 
ATOM     10  O   UNL     1      26.050   1.666  16.192  0.00  0.00    +0.000 OA
ATOM     11  N   UNL     1      25.099  -0.294  15.787  0.00  0.00    +0.000 N 
ATOM     12  N   UNL     1      26.342  -0.688  15.202  0.00  0.00    +0.000 NA
ENDROOT
BRANCH   7  13
ATOM     13  C   UNL     1      24.594   3.748  17.513  0.00  0.00    +0.000 A 
ATOM     14  C   UNL     1      24.824   4.610  16.473  0.00  0.00    +0.000 A 
ATOM     15  C   UNL     1      25.738   5.639  16.541  0.00  0.00    +0.000 A 
ATOM     16  C   UNL     1      26.464   5.834  17.687  0.00  0.00    +0.000 A 
ATOM     17  C   UNL     1      26.248   4.978  18.747  0.00  0.00    +0.000 A 
ATOM     18  C   UNL     1      25.323   3.944  18.666  0.00  0.00    +0.000 A 
BRANCH  16  19
ATOM     19  C   UNL     1      27.449   6.945  17.756  0.00  0.00    +0.000 C 
ATOM     20  C   UNL     1      27.955   7.151  19.168  0.00  0.00    +0.000 C 
ATOM     21  C   UNL     1      28.626   6.707  16.819  0.00  0.00    +0.000 C 
ENDBRANCH  16  19
ENDBRANCH   7  13
TORSDOF 2
ENDMDL
MODEL 4
REMARK VINA RESULT:      -5.9     15.428     16.392
REMARK  Name = 
REMARK  2 active torsions:
REMARK  status: ('A' for Active; 'I' for Inactive)
REMARK    1  A    between atoms: C_7  and  C_8
REMARK    2  A    between atoms: C_11  and  C_12
REMARK                            x       y       z     vdW  Elec       q    Type
REMARK                         _______ _______ _______ _____ _____    ______ ____
ROOT
ATOM      1  C   UNL     1      16.301   8.271  42.612  0.00  0.00    +0.000 C 
ATOM      2  C   UNL     1      16.975   8.878  41.462  0.00  0.00    +0.000 A 
ATOM      3  N   UNL     1      16.287   9.403  40.453  0.00  0.00    +0.000 NA
ATOM      4  C   UNL     1      16.935   9.971  39.378  0.00  0.00    +0.000 A 
ATOM      5  S   UNL     1      16.418  10.718  37.932  0.00  0.00    +0.000 S 
ATOM      6  C   UNL     1      17.928  11.079  37.255  0.00  0.00    +0.000 A 
ATOM      7  C   UNL     1      18.824  10.601  38.188  0.00  0.00    +0.000 A 
ATOM      8  C   UNL     1      18.301  10.027  39.287  0.00  0.00    +0.000 A 
ATOM      9  C   UNL     1      18.979   9.455  40.382  0.00  0.00    +0.000 A 
ATOM     10  O   UNL     1      20.236   9.428  40.444  0.00  0.00    +0.000 OA
ATOM     11  N   UNL     1      18.310   8.912  41.410  0.00  0.00    +0.000 N 
ATOM     12  N   UNL     1      19.083   8.357  42.477  0.00  0.00    +0.000 NA
ENDROOT
BRANCH   7  13
ATOM     13  C   UNL     1      20.286  10.777  37.919  0.00  0.00    +0.000 A 
ATOM     14  C   UNL     1      20.993  11.841  38.417  0.00  0.00    +0.000 A 
ATOM     15  C   UNL     1      22.338  12.022  38.181  0.00  0.00    +0.000 A 
ATOM     16  C   UNL     1      23.027  11.115  37.418  0.00  0.00    +0.000 A 
ATOM     17  C   UNL     1      22.335  10.036  36.907  0.00  0.00    +0.000 A 
ATOM     18  C   UNL     1      20.978   9.865  37.153  0.00  0.00    +0.000 A 
BRANCH  16  19
ATOM     19  C   UNL     1      24.478  11.315  37.167  0.00  0.00    +0.000 C 
ATOM     20  C   UNL     1      24.932  10.578  35.925  0.00  0.00    +0.000 C 
ATOM     21  C   UNL     1      24.825  12.793  37.041  0.00  0.00    +0.000 C 
ENDBRANCH  16  19
ENDBRANCH   7  13
TORSDOF 2
ENDMDL
MODEL 5
REMARK VINA RESULT:      -5.8     21.882     24.363
REMARK  Name = 
REMARK  2 active torsions:
REMARK  status: ('A' for Active; 'I' for Inactive)
REMARK    1  A    between atoms: C_7  and  C_8
REMARK    2  A    between atoms: C_11  and  C_12
REMARK                            x       y       z     vdW  Elec       q    Type
REMARK                         _______ _______ _______ _____ _____    ______ ____
ROOT
ATOM      1  C   UNL     1      23.014  26.884  31.870  0.00  0.00    +0.000 C 
ATOM      2  C   UNL     1      23.610  26.484  30.594  0.00  0.00    +0.000 A 
ATOM      3  N   UNL     1      23.063  26.833  29.434  0.00  0.00    +0.000 NA
ATOM      4  C   UNL     1      23.635  26.450  28.241  0.00  0.00    +0.000 A 
ATOM      5  S   UNL     1      23.238  26.687  26.597  0.00  0.00    +0.000 S 
ATOM      6  C   UNL     1      24.519  25.841  25.881  0.00  0.00    +0.000 A 
ATOM      7  C   UNL     1      25.245  25.380  26.959  0.00  0.00    +0.000 A 
ATOM      8  C   UNL     1      24.779  25.700  28.180  0.00  0.00    +0.000 A 
ATOM      9  C   UNL     1      25.315  25.357  29.438  0.00  0.00    +0.000 A 
ATOM     10  O   UNL     1      26.364  24.669  29.547  0.00  0.00    +0.000 OA
ATOM     11  N   UNL     1      24.727  25.751  30.577  0.00  0.00    +0.000 N 
ATOM     12  N   UNL     1      25.343  25.356  31.805  0.00  0.00    +0.000 NA
ENDROOT
BRANCH   7  13
ATOM     13  C   UNL     1      26.488  24.592  26.688  0.00  0.00    +0.000 A 
ATOM     14  C   UNL     1      26.456  23.240  26.463  0.00  0.00    +0.000 A 
ATOM     15  C   UNL     1      27.588  22.495  26.213  0.00  0.00    +0.000 A 
ATOM     16  C   UNL     1      28.815  23.106  26.181  0.00  0.00    +0.000 A 
ATOM     17  C   UNL     1      28.871  24.466  26.405  0.00  0.00    +0.000 A 
ATOM     18  C   UNL     1      27.721  25.206  26.656  0.00  0.00    +0.000 A 
BRANCH  16  19
ATOM     19  C   UNL     1      30.033  22.299  25.910  0.00  0.00    +0.000 C 
ATOM     20  C   UNL     1      30.700  22.717  24.617  0.00  0.00    +0.000 C 
ATOM     21  C   UNL     1      31.033  22.395  27.056  0.00  0.00    +0.000 C 
ENDBRANCH  16  19
ENDBRANCH   7  13
TORSDOF 2
ENDMDL
MODEL 6
REMARK VINA RESULT:      -5.8      6.466     10.436
REMARK  Name = 
REMARK  2 active torsions:
REMARK  status: ('A' for Active; 'I' for Inactive)
REMARK    1  A    between atoms: C_7  and  C_8
REMARK    2  A    between atoms: C_11  and  C_12
REMARK                            x       y       z     vdW  Elec       q    Type
REMARK                         _______ _______ _______ _____ _____    ______ ____
ROOT
ATOM      1  C   UNL     1      33.453   0.415  36.854  0.00  0.00    +0.000 C 
ATOM      2  C   UNL     1      33.580  -0.925  36.276  0.00  0.00    +0.000 A 
ATOM      3  N   UNL     1      33.575  -2.012  37.040  0.00  0.00    +0.000 NA
ATOM      4  C   UNL     1      33.696  -3.266  36.483  0.00  0.00    +0.000 A 
ATOM      5  S   UNL     1      33.739  -4.853  37.113  0.00  0.00    +0.000 S 
ATOM      6  C   UNL     1      33.918  -5.717  35.667  0.00  0.00    +0.000 A 
ATOM      7  C   UNL     1      33.942  -4.732  34.702  0.00  0.00    +0.000 A 
ATOM      8  C   UNL     1      33.826  -3.463  35.134  0.00  0.00    +0.000 A 
ATOM      9  C   UNL     1      33.827  -2.277  34.372  0.00  0.00    +0.000 A 
ATOM     10  O   UNL     1      33.941  -2.293  33.119  0.00  0.00    +0.000 OA
ATOM     11  N   UNL     1      33.706  -1.075  34.955  0.00  0.00    +0.000 N 
ATOM     12  N   UNL     1      33.717   0.073  34.101  0.00  0.00    +0.000 NA
ENDROOT
BRANCH   7  13
ATOM     13  C   UNL     1      34.069  -5.149  33.270  0.00  0.00    +0.000 A 
ATOM     14  C   UNL     1      35.269  -5.532  32.729  0.00  0.00    +0.000 A 
ATOM     15  C   UNL     1      35.408  -5.918  31.413  0.00  0.00    +0.000 A 
ATOM     16  C   UNL     1      34.316  -5.931  30.586  0.00  0.00    +0.000 A 
ATOM     17  C   UNL     1      33.098  -5.549  31.110  0.00  0.00    +0.000 A 
ATOM     18  C   UNL     1      32.971  -5.162  32.438  0.00  0.00    +0.000 A 
BRANCH  16  19
ATOM     19  C   UNL     1      34.471  -6.349  29.167  0.00  0.00    +0.000 C 
ATOM     20  C   UNL     1      34.711  -7.839  29.052  0.00  0.00    +0.000 C 
ATOM     21  C   UNL     1      33.256  -5.959  28.335  0.00  0.00    +0.000 C 
ENDBRANCH  16  19
ENDBRANCH   7  13
TORSDOF 2
ENDMDL
MODEL 7
REMARK VINA RESULT:      -5.7     22.022     24.751
REMARK  Name = 
REMARK  2 active torsions:
REMARK  status: ('A' for Active; 'I' for Inactive)
REMARK    1  A    between atoms: C_7  and  C_8
REMARK    2  A    between atoms: C_11  and  C_12
REMARK                            x       y       z     vdW  Elec       q    Type
REMARK                         _______ _______ _______ _____ _____    ______ ____
ROOT
ATOM      1  C   UNL     1      29.212  27.929  21.545  0.00  0.00    +0.000 C 
ATOM      2  C   UNL     1      28.577  26.866  22.326  0.00  0.00    +0.000 A 
ATOM      3  N   UNL     1      27.815  25.942  21.749  0.00  0.00    +0.000 NA
ATOM      4  C   UNL     1      27.224  24.948  22.497  0.00  0.00    +0.000 A 
ATOM      5  S   UNL     1      26.202  23.628  22.133  0.00  0.00    +0.000 S 
ATOM      6  C   UNL     1      26.005  22.996  23.692  0.00  0.00    +0.000 A 
ATOM      7  C   UNL     1      26.753  23.843  24.482  0.00  0.00    +0.000 A 
ATOM      8  C   UNL     1      27.382  24.853  23.854  0.00  0.00    +0.000 A 
ATOM      9  C   UNL     1      28.198  25.858  24.414  0.00  0.00    +0.000 A 
ATOM     10  O   UNL     1      28.437  25.908  25.648  0.00  0.00    +0.000 OA
ATOM     11  N   UNL     1      28.756  26.809  23.649  0.00  0.00    +0.000 N 
ATOM     12  N   UNL     1      29.568  27.786  24.306  0.00  0.00    +0.000 NA
ENDROOT
BRANCH   7  13
ATOM     13  C   UNL     1      26.824  23.561  25.950  0.00  0.00    +0.000 A 
ATOM     14  C   UNL     1      27.801  22.766  26.490  0.00  0.00    +0.000 A 
ATOM     15  C   UNL     1      27.884  22.493  27.838  0.00  0.00    +0.000 A 
ATOM     16  C   UNL     1      26.963  23.028  28.702  0.00  0.00    +0.000 A 
ATOM     17  C   UNL     1      25.971  23.832  28.180  0.00  0.00    +0.000 A 
ATOM     18  C   UNL     1      25.899  24.099  26.818  0.00  0.00    +0.000 A 
BRANCH  16  19
ATOM     19  C   UNL     1      27.057  22.731  30.156  0.00  0.00    +0.000 C 
ATOM     20  C   UNL     1      26.296  21.473  30.515  0.00  0.00    +0.000 C 
ATOM     21  C   UNL     1      28.507  22.598  30.605  0.00  0.00    +0.000 C 
ENDBRANCH  16  19
ENDBRANCH   7  13
TORSDOF 2
ENDMDL
MODEL 8
REMARK VINA RESULT:      -5.7     21.367     23.963
REMARK  Name = 
REMARK  2 active torsions:
REMARK  status: ('A' for Active; 'I' for Inactive)
REMARK    1  A    between atoms: C_7  and  C_8
REMARK    2  A    between atoms: C_11  and  C_12
REMARK                            x       y       z     vdW  Elec       q    Type
REMARK                         _______ _______ _______ _____ _____    ______ ____
ROOT
ATOM      1  C   UNL     1      26.418  22.703  30.085  0.00  0.00    +0.000 C 
ATOM      2  C   UNL     1      27.269  22.919  28.913  0.00  0.00    +0.000 A 
ATOM      3  N   UNL     1      28.505  22.433  28.855  0.00  0.00    +0.000 NA
ATOM      4  C   UNL     1      29.294  22.645  27.746  0.00  0.00    +0.000 A 
ATOM      5  S   UNL     1      30.886  22.203  27.312  0.00  0.00    +0.000 S 
ATOM      6  C   UNL     1      30.962  22.922  25.780  0.00  0.00    +0.000 A 
ATOM      7  C   UNL     1      29.721  23.505  25.634  0.00  0.00    +0.000 A 
ATOM      8  C   UNL     1      28.861  23.357  26.659  0.00  0.00    +0.000 A 
ATOM      9  C   UNL     1      27.546  23.850  26.775  0.00  0.00    +0.000 A 
ATOM     10  O   UNL     1      27.007  24.525  25.859  0.00  0.00    +0.000 OA
ATOM     11  N   UNL     1      26.810  23.620  27.873  0.00  0.00    +0.000 N 
ATOM     12  N   UNL     1      25.486  24.160  27.900  0.00  0.00    +0.000 NA
ENDROOT
BRANCH   7  13
ATOM     13  C   UNL     1      29.424  24.225  24.356  0.00  0.00    +0.000 A 
ATOM     14  C   UNL     1      29.642  25.571  24.213  0.00  0.00    +0.000 A 
ATOM     15  C   UNL     1      29.375  26.253  23.047  0.00  0.00    +0.000 A 
ATOM     16  C   UNL     1      28.871  25.583  21.963  0.00  0.00    +0.000 A 
ATOM     17  C   UNL     1      28.644  24.228  22.083  0.00  0.00    +0.000 A 
ATOM     18  C   UNL     1      28.918  23.551  23.266  0.00  0.00    +0.000 A 
BRANCH  16  19
ATOM     19  C   UNL     1      28.585  26.324  20.706  0.00  0.00    +0.000 C 
ATOM     20  C   UNL     1      27.718  27.538  20.962  0.00  0.00    +0.000 C 
ATOM     21  C   UNL     1      29.869  26.750  20.005  0.00  0.00    +0.000 C 
ENDBRANCH  16  19
ENDBRANCH   7  13
TORSDOF 2
ENDMDL
MODEL 9
REMARK VINA RESULT:      -5.6     20.289     21.246
REMARK  Name = 
REMARK  2 active torsions:
REMARK  status: ('A' for Active; 'I' for Inactive)
REMARK    1  A    between atoms: C_7  and  C_8
REMARK    2  A    between atoms: C_11  and  C_12
REMARK                            x       y       z     vdW  Elec       q    Type
REMARK                         _______ _______ _______ _____ _____    ______ ____
ROOT
ATOM      1  C   UNL     1      26.941 -12.137  24.496  0.00  0.00    +0.000 C 
ATOM      2  C   UNL     1      25.841 -11.221  24.188  0.00  0.00    +0.000 A 
ATOM      3  N   UNL     1      25.613 -10.803  22.947  0.00  0.00    +0.000 NA
ATOM      4  C   UNL     1      24.574  -9.941  22.673  0.00  0.00    +0.000 A 
ATOM      5  S   UNL     1      23.984  -9.197  21.253  0.00  0.00    +0.000 S 
ATOM      6  C   UNL     1      22.697  -8.320  21.919  0.00  0.00    +0.000 A 
ATOM      7  C   UNL     1      22.753  -8.630  23.261  0.00  0.00    +0.000 A 
ATOM      8  C   UNL     1      23.730  -9.472  23.644  0.00  0.00    +0.000 A 
ATOM      9  C   UNL     1      24.019  -9.945  24.941  0.00  0.00    +0.000 A 
ATOM     10  O   UNL     1      23.334  -9.602  25.940  0.00  0.00    +0.000 OA
ATOM     11  N   UNL     1      25.040 -10.784  25.165  0.00  0.00    +0.000 N 
ATOM     12  N   UNL     1      25.256 -11.211  26.513  0.00  0.00    +0.000 NA
ENDROOT
BRANCH   7  13
ATOM     13  C   UNL     1      21.723  -8.033  24.168  0.00  0.00    +0.000 A 
ATOM     14  C   UNL     1      20.582  -8.708  24.516  0.00  0.00    +0.000 A 
ATOM     15  C   UNL     1      19.621  -8.176  25.348  0.00  0.00    +0.000 A 
ATOM     16  C   UNL     1      19.787  -6.919  25.868  0.00  0.00    +0.000 A 
ATOM     17  C   UNL     1      20.929  -6.221  25.531  0.00  0.00    +0.000 A 
ATOM     18  C   UNL     1      21.890  -6.769  24.691  0.00  0.00    +0.000 A 
BRANCH  16  19
ATOM     19  C   UNL     1      18.748  -6.350  26.766  0.00  0.00    +0.000 C 
ATOM     20  C   UNL     1      18.710  -4.839  26.682  0.00  0.00    +0.000 C 
ATOM     21  C   UNL     1      17.369  -6.915  26.452  0.00  0.00    +0.000 C 
ENDBRANCH  16  19
ENDBRANCH   7  13
TORSDOF 2
ENDMDL
MODEL 10
REMARK VINA RESULT:      -5.5     20.692     22.745
REMARK  Name = 
REMARK  2 active torsions:
REMARK  status: ('A' for Active; 'I' for Inactive)
REMARK    1  A    between atoms: C_7  and  C_8
REMARK    2  A    between atoms: C_11  and  C_12
REMARK                            x       y       z     vdW  Elec       q    Type
REMARK                         _______ _______ _______ _____ _____    ______ ____
ROOT
ATOM      1  C   UNL     1      20.210   1.850  12.722  0.00  0.00    +0.000 C 
ATOM      2  C   UNL     1      21.079   2.105  13.872  0.00  0.00    +0.000 A 
ATOM      3  N   UNL     1      20.883   1.497  15.038  0.00  0.00    +0.000 NA
ATOM      4  C   UNL     1      21.709   1.746  16.112  0.00  0.00    +0.000 A 
ATOM      5  S   UNL     1      21.773   1.186  17.724  0.00  0.00    +0.000 S 
ATOM      6  C   UNL     1      23.118   2.062  18.265  0.00  0.00    +0.000 A 
ATOM      7  C   UNL     1      23.498   2.789  17.157  0.00  0.00    +0.000 A 
ATOM      8  C   UNL     1      22.762   2.620  16.044  0.00  0.00    +0.000 A 
ATOM      9  C   UNL     1      22.923   3.237  14.786  0.00  0.00    +0.000 A 
ATOM     10  O   UNL     1      23.844   4.066  14.567  0.00  0.00    +0.000 OA
ATOM     11  N   UNL     1      22.096   2.965  13.766  0.00  0.00    +0.000 N 
ATOM     12  N   UNL     1      22.338   3.639  12.528  0.00  0.00    +0.000 NA
ENDROOT
BRANCH   7  13
ATOM     13  C   UNL     1      24.697   3.678  17.272  0.00  0.00    +0.000 A 
ATOM     14  C   UNL     1      24.593   4.992  17.646  0.00  0.00    +0.000 A 
ATOM     15  C   UNL     1      25.682   5.828  17.758  0.00  0.00    +0.000 A 
ATOM     16  C   UNL     1      26.939   5.352  17.490  0.00  0.00    +0.000 A 
ATOM     17  C   UNL     1      27.068   4.031  17.112  0.00  0.00    +0.000 A 
ATOM     18  C   UNL     1      25.960   3.199  17.003  0.00  0.00    +0.000 A 
BRANCH  16  19
ATOM     19  C   UNL     1      28.112   6.257  17.613  0.00  0.00    +0.000 C 
ATOM     20  C   UNL     1      28.301   7.092  16.364  0.00  0.00    +0.000 C 
ATOM     21  C   UNL     1      27.988   7.170  18.826  0.00  0.00    +0.000 C 
ENDBRANCH  16  19
ENDBRANCH   7  13
TORSDOF 2
ENDMDL
