MODEL 1
REMARK VINA RESULT:      -6.6      0.000      0.000
REMARK  Name = 
REMARK  4 active torsions:
REMARK  status: ('A' for Active; 'I' for Inactive)
REMARK    1  A    between atoms: C_2  and  N_3
REMARK    2  A    between atoms: N_3  and  C_4
REMARK    3  A    between atoms: N_3  and  C_6
REMARK    4  A    between atoms: C_9  and  N_10
REMARK                            x       y       z     vdW  Elec       q    Type
REMARK                         _______ _______ _______ _____ _____    ______ ____
ROOT
ATOM      1  C   UNL     1      16.411  11.052  34.238  0.00  0.00    +0.000 A 
ATOM      2  C   UNL     1      16.486  11.866  35.342  0.00  0.00    +0.000 A 
ATOM      3  C   UNL     1      17.307  11.517  36.394  0.00  0.00    +0.000 A 
ATOM      4  C   UNL     1      18.075  10.368  36.399  0.00  0.00    +0.000 A 
ATOM      5  C   UNL     1      17.999   9.554  35.293  0.00  0.00    +0.000 A 
ATOM      6  C   UNL     1      17.177   9.904  34.240  0.00  0.00    +0.000 A 
ENDROOT
BRANCH   4   7
ATOM      7  N   UNL     1      18.917  10.048  37.522  0.00  0.00    +0.000 N 
ATOM      8  C   UNL     1      18.537   9.895  38.805  0.00  0.00    +0.000 A 
ATOM      9  N   UNL     1      19.606   9.600  39.564  0.00  0.00    +0.000 NA
ATOM     10  C   UNL     1      20.711   9.557  38.781  0.00  0.00    +0.000 A 
ATOM     11  C   UNL     1      22.050   9.301  39.051  0.00  0.00    +0.000 A 
ATOM     12  C   UNL     1      22.940   9.334  38.005  0.00  0.00    +0.000 A 
ATOM     13  N   UNL     1      24.335   9.085  38.184  0.00  0.00    +0.000 NA
ATOM     14  C   UNL     1      22.472   9.619  36.738  0.00  0.00    +0.000 A 
ATOM     15  C   UNL     1      21.144   9.873  36.468  0.00  0.00    +0.000 A 
ATOM     16  C   UNL     1      20.247   9.841  37.513  0.00  0.00    +0.000 A 
ENDBRANCH   4   7
BRANCH   1  17
ATOM     17  N   UNL     1      15.566  11.435  33.186  0.00  0.00    +0.000 N 
BRANCH  17  19
ATOM     18  C   UNL     1      14.374  13.220  32.008  0.00  0.00    +0.000 C 
ATOM     19  C   UNL     1      14.755  12.629  33.344  0.00  0.00    +0.000 C 
ENDBRANCH  17  19
BRANCH  17  20
ATOM     20  C   UNL     1      15.486  10.678  31.961  0.00  0.00    +0.000 C 
ATOM     21  C   UNL     1      14.285   9.769  32.021  0.00  0.00    +0.000 C 
ENDBRANCH  17  20
ENDBRANCH   1  17
TORSDOF 4
ENDMDL
MODEL 2
REMARK VINA RESULT:      -6.5      1.662      3.221
REMARK  Name = 
REMARK  4 active torsions:
REMARK  status: ('A' for Active; 'I' for Inactive)
REMARK    1  A    between atoms: C_2  and  N_3
REMARK    2  A    between atoms: N_3  and  C_4
REMARK    3  A    between atoms: N_3  and  C_6
REMARK    4  A    between atoms: C_9  and  N_10
REMARK                            x       y       z     vdW  Elec       q    Type
REMARK                         _______ _______ _______ _____ _____    ______ ____
ROOT
ATOM      1  C   UNL     1      16.107  11.333  34.031  0.00  0.00    +0.000 A 
ATOM      2  C   UNL     1      15.978  12.055  35.192  0.00  0.00    +0.000 A 
ATOM      3  C   UNL     1      16.750  11.729  36.288  0.00  0.00    +0.000 A 
ATOM      4  C   UNL     1      17.665  10.693  36.282  0.00  0.00    +0.000 A 
ATOM      5  C   UNL     1      17.793   9.971  35.118  0.00  0.00    +0.000 A 
ATOM      6  C   UNL     1      17.020  10.298  34.021  0.00  0.00    +0.000 A 
ENDROOT
BRANCH   4   7
ATOM      7  N   UNL     1      18.446  10.393  37.453  0.00  0.00    +0.000 N 
ATOM      8  C   UNL     1      19.789  10.373  37.551  0.00  0.00    +0.000 A 
ATOM      9  N   UNL     1      20.150  10.049  38.804  0.00  0.00    +0.000 NA
ATOM     10  C   UNL     1      19.037   9.849  39.551  0.00  0.00    +0.000 A 
ATOM     11  C   UNL     1      18.844   9.501  40.882  0.00  0.00    +0.000 A 
ATOM     12  C   UNL     1      17.553   9.377  41.339  0.00  0.00    +0.000 A 
ATOM     13  N   UNL     1      17.255   9.024  42.691  0.00  0.00    +0.000 NA
ATOM     14  C   UNL     1      16.511   9.600  40.464  0.00  0.00    +0.000 A 
ATOM     15  C   UNL     1      16.700   9.945  39.142  0.00  0.00    +0.000 A 
ATOM     16  C   UNL     1      17.991  10.071  38.679  0.00  0.00    +0.000 A 
ENDBRANCH   4   7
BRANCH   1  17
ATOM     17  N   UNL     1      15.307  11.690  32.934  0.00  0.00    +0.000 N 
BRANCH  17  19
ATOM     18  C   UNL     1      14.289  13.510  31.653  0.00  0.00    +0.000 C 
ATOM     19  C   UNL     1      14.515  12.904  33.017  0.00  0.00    +0.000 C 
ENDBRANCH  17  19
BRANCH  17  20
ATOM     20  C   UNL     1      15.256  10.885  31.738  0.00  0.00    +0.000 C 
ATOM     21  C   UNL     1      14.171   9.849  31.888  0.00  0.00    +0.000 C 
ENDBRANCH  17  20
ENDBRANCH   1  17
TORSDOF 4
ENDMDL
MODEL 3
REMARK VINA RESULT:      -6.3     28.488     30.224
REMARK  Name = 
REMARK  4 active torsions:
REMARK  status: ('A' for Active; 'I' for Inactive)
REMARK    1  A    between atoms: C_2  and  N_3
REMARK    2  A    between atoms: N_3  and  C_4
REMARK    3  A    between atoms: N_3  and  C_6
REMARK    4  A    between atoms: C_9  and  N_10
REMARK                            x       y       z     vdW  Elec       q    Type
REMARK                         _______ _______ _______ _____ _____    ______ ____
ROOT
ATOM      1  C   UNL     1      29.408  22.786  12.357  0.00  0.00    +0.000 A 
ATOM      2  C   UNL     1      29.372  22.697  10.987  0.00  0.00    +0.000 A 
ATOM      3  C   UNL     1      30.423  22.113  10.311  0.00  0.00    +0.000 A 
ATOM      4  C   UNL     1      31.535  21.601  10.951  0.00  0.00    +0.000 A 
ATOM      5  C   UNL     1      31.571  21.690  12.323  0.00  0.00    +0.000 A 
ATOM      6  C   UNL     1      30.518  22.275  12.999  0.00  0.00    +0.000 A 
ENDROOT
BRANCH   4   7
ATOM      7  N   UNL     1      32.607  21.001  10.200  0.00  0.00    +0.000 N 
ATOM      8  C   UNL     1      32.689  20.870   8.863  0.00  0.00    +0.000 A 
ATOM      9  N   UNL     1      33.839  20.257   8.534  0.00  0.00    +0.000 NA
ATOM     10  C   UNL     1      34.532  19.975   9.664  0.00  0.00    +0.000 A 
ATOM     11  C   UNL     1      35.757  19.359   9.891  0.00  0.00    +0.000 A 
ATOM     12  C   UNL     1      36.185  19.226  11.190  0.00  0.00    +0.000 A 
ATOM     13  N   UNL     1      37.429  18.608  11.522  0.00  0.00    +0.000 NA
ATOM     14  C   UNL     1      35.386  19.704  12.209  0.00  0.00    +0.000 A 
ATOM     15  C   UNL     1      34.170  20.314  11.987  0.00  0.00    +0.000 A 
ATOM     16  C   UNL     1      33.737  20.451  10.686  0.00  0.00    +0.000 A 
ENDBRANCH   4   7
BRANCH   1  17
ATOM     17  N   UNL     1      28.322  23.386  13.013  0.00  0.00    +0.000 N 
BRANCH  17  19
ATOM     18  C   UNL     1      28.673  25.225  14.590  0.00  0.00    +0.000 C 
ATOM     19  C   UNL     1      28.465  23.740  14.414  0.00  0.00    +0.000 C 
ENDBRANCH  17  19
BRANCH  17  20
ATOM     20  C   UNL     1      27.079  23.656  12.333  0.00  0.00    +0.000 C 
ATOM     21  C   UNL     1      26.025  22.703  12.837  0.00  0.00    +0.000 C 
ENDBRANCH  17  20
ENDBRANCH   1  17
TORSDOF 4
ENDMDL
MODEL 4
REMARK VINA RESULT:      -6.2      2.068      7.525
REMARK  Name = 
REMARK  4 active torsions:
REMARK  status: ('A' for Active; 'I' for Inactive)
REMARK    1  A    between atoms: C_2  and  N_3
REMARK    2  A    between atoms: N_3  and  C_4
REMARK    3  A    between atoms: N_3  and  C_6
REMARK    4  A    between atoms: C_9  and  N_10
REMARK                            x       y       z     vdW  Elec       q    Type
REMARK                         _______ _______ _______ _____ _____    ______ ____
ROOT
ATOM      1  C   UNL     1      18.692   9.195  38.959  0.00  0.00    +0.000 A 
ATOM      2  C   UNL     1      17.429   9.592  39.324  0.00  0.00    +0.000 A 
ATOM      3  C   UNL     1      16.653  10.307  38.435  0.00  0.00    +0.000 A 
ATOM      4  C   UNL     1      17.086  10.654  37.170  0.00  0.00    +0.000 A 
ATOM      5  C   UNL     1      18.352  10.255  36.805  0.00  0.00    +0.000 A 
ATOM      6  C   UNL     1      19.128   9.539  37.695  0.00  0.00    +0.000 A 
ENDROOT
BRANCH   4   7
ATOM      7  N   UNL     1      16.239  11.402  36.279  0.00  0.00    +0.000 N 
ATOM      8  C   UNL     1      15.371  12.377  36.609  0.00  0.00    +0.000 A 
ATOM      9  N   UNL     1      14.760  12.837  35.504  0.00  0.00    +0.000 NA
ATOM     10  C   UNL     1      15.223  12.161  34.425  0.00  0.00    +0.000 A 
ATOM     11  C   UNL     1      14.932  12.237  33.068  0.00  0.00    +0.000 A 
ATOM     12  C   UNL     1      15.595  11.388  32.215  0.00  0.00    +0.000 A 
ATOM     13  N   UNL     1      15.364  11.392  30.805  0.00  0.00    +0.000 NA
ATOM     14  C   UNL     1      16.515  10.502  32.736  0.00  0.00    +0.000 A 
ATOM     15  C   UNL     1      16.805  10.424  34.082  0.00  0.00    +0.000 A 
ATOM     16  C   UNL     1      16.143  11.273  34.941  0.00  0.00    +0.000 A 
ENDBRANCH   4   7
BRANCH   1  17
ATOM     17  N   UNL     1      19.455   8.469  39.886  0.00  0.00    +0.000 N 
BRANCH  17  19
ATOM     18  C   UNL     1      18.531   6.967  41.584  0.00  0.00    +0.000 C 
ATOM     19  C   UNL     1      19.073   7.100  40.181  0.00  0.00    +0.000 C 
ENDBRANCH  17  19
BRANCH  17  20
ATOM     20  C   UNL     1      20.599   9.048  40.546  0.00  0.00    +0.000 C 
ATOM     21  C   UNL     1      21.814   8.201  40.259  0.00  0.00    +0.000 C 
ENDBRANCH  17  20
ENDBRANCH   1  17
TORSDOF 4
ENDMDL
MODEL 5
REMARK VINA RESULT:      -6.1     29.360     31.111
REMARK  Name = 
REMARK  4 active torsions:
REMARK  status: ('A' for Active; 'I' for Inactive)
REMARK    1  A    between atoms: C_2  and  N_3
REMARK    2  A    between atoms: N_3  and  C_4
REMARK    3  A    between atoms: N_3  and  C_6
REMARK    4  A    between atoms: C_9  and  N_10
REMARK                            x       y       z     vdW  Elec       q    Type
REMARK                         _______ _______ _______ _____ _____    ______ ____
ROOT
ATOM      1  C   UNL     1      29.570  22.811  12.255  0.00  0.00    +0.000 A 
ATOM      2  C   UNL     1      29.841  23.044  10.929  0.00  0.00    +0.000 A 
ATOM      3  C   UNL     1      30.992  22.534  10.367  0.00  0.00    +0.000 A 
ATOM      4  C   UNL     1      31.908  21.784  11.079  0.00  0.00    +0.000 A 
ATOM      5  C   UNL     1      31.636  21.551  12.408  0.00  0.00    +0.000 A 
ATOM      6  C   UNL     1      30.483  22.063  12.970  0.00  0.00    +0.000 A 
ENDROOT
BRANCH   4   7
ATOM      7  N   UNL     1      33.096  21.273  10.447  0.00  0.00    +0.000 N 
ATOM      8  C   UNL     1      33.313  20.014  10.022  0.00  0.00    +0.000 A 
ATOM      9  N   UNL     1      34.541  19.921   9.483  0.00  0.00    +0.000 NA
ATOM     10  C   UNL     1      35.150  21.129   9.550  0.00  0.00    +0.000 A 
ATOM     11  C   UNL     1      36.402  21.578   9.146  0.00  0.00    +0.000 A 
ATOM     12  C   UNL     1      36.718  22.898   9.364  0.00  0.00    +0.000 A 
ATOM     13  N   UNL     1      37.978  23.452   8.984  0.00  0.00    +0.000 NA
ATOM     14  C   UNL     1      35.787  23.717   9.970  0.00  0.00    +0.000 A 
ATOM     15  C   UNL     1      34.545  23.273  10.372  0.00  0.00    +0.000 A 
ATOM     16  C   UNL     1      34.223  21.951  10.156  0.00  0.00    +0.000 A 
ENDBRANCH   4   7
BRANCH   1  17
ATOM     17  N   UNL     1      28.390  23.345  12.796  0.00  0.00    +0.000 N 
BRANCH  17  19
ATOM     18  C   UNL     1      26.432  22.383  11.687  0.00  0.00    +0.000 C 
ATOM     19  C   UNL     1      27.276  23.615  11.906  0.00  0.00    +0.000 C 
ENDBRANCH  17  19
BRANCH  17  20
ATOM     20  C   UNL     1      28.261  23.628  14.205  0.00  0.00    +0.000 C 
ATOM     21  C   UNL     1      28.723  25.039  14.468  0.00  0.00    +0.000 C 
ENDBRANCH  17  20
ENDBRANCH   1  17
TORSDOF 4
ENDMDL
MODEL 6
REMARK VINA RESULT:      -6.0      1.730      2.773
REMARK  Name = 
REMARK  4 active torsions:
REMARK  status: ('A' for Active; 'I' for Inactive)
REMARK    1  A    between atoms: C_2  and  N_3
REMARK    2  A    between atoms: N_3  and  C_4
REMARK    3  A    between atoms: N_3  and  C_6
REMARK    4  A    between atoms: C_9  and  N_10
REMARK                            x       y       z     vdW  Elec       q    Type
REMARK                         _______ _______ _______ _____ _____    ______ ____
ROOT
ATOM      1  C   UNL     1      17.433  11.221  36.505  0.00  0.00    +0.000 A 
ATOM      2  C   UNL     1      18.130  11.986  37.408  0.00  0.00    +0.000 A 
ATOM      3  C   UNL     1      19.270  11.479  37.997  0.00  0.00    +0.000 A 
ATOM      4  C   UNL     1      19.760  10.217  37.721  0.00  0.00    +0.000 A 
ATOM      5  C   UNL     1      19.061   9.452  36.816  0.00  0.00    +0.000 A 
ATOM      6  C   UNL     1      17.920   9.960  36.227  0.00  0.00    +0.000 A 
ENDROOT
BRANCH   4   7
ATOM      7  N   UNL     1      20.955   9.733  38.362  0.00  0.00    +0.000 N 
ATOM      8  C   UNL     1      21.039   9.074  39.533  0.00  0.00    +0.000 A 
ATOM      9  N   UNL     1      22.324   8.787  39.803  0.00  0.00    +0.000 NA
ATOM     10  C   UNL     1      23.106   9.261  38.803  0.00  0.00    +0.000 A 
ATOM     11  C   UNL     1      24.479   9.237  38.586  0.00  0.00    +0.000 A 
ATOM     12  C   UNL     1      24.964   9.822  37.441  0.00  0.00    +0.000 A 
ATOM     13  N   UNL     1      26.358   9.847  37.132  0.00  0.00    +0.000 NA
ATOM     14  C   UNL     1      24.076  10.406  36.561  0.00  0.00    +0.000 A 
ATOM     15  C   UNL     1      22.714  10.431  36.774  0.00  0.00    +0.000 A 
ATOM     16  C   UNL     1      22.222   9.846  37.920  0.00  0.00    +0.000 A 
ENDBRANCH   4   7
BRANCH   1  17
ATOM     17  N   UNL     1      16.277  11.767  35.924  0.00  0.00    +0.000 N 
BRANCH  17  19
ATOM     18  C   UNL     1      14.827  12.327  34.034  0.00  0.00    +0.000 C 
ATOM     19  C   UNL     1      16.115  11.681  34.484  0.00  0.00    +0.000 C 
ENDBRANCH  17  19
BRANCH  17  20
ATOM     20  C   UNL     1      15.256  12.404  36.720  0.00  0.00    +0.000 C 
ATOM     21  C   UNL     1      14.563  11.361  37.559  0.00  0.00    +0.000 C 
ENDBRANCH  17  20
ENDBRANCH   1  17
TORSDOF 4
ENDMDL
MODEL 7
REMARK VINA RESULT:      -5.9     16.435     18.005
REMARK  Name = 
REMARK  4 active torsions:
REMARK  status: ('A' for Active; 'I' for Inactive)
REMARK    1  A    between atoms: C_2  and  N_3
REMARK    2  A    between atoms: N_3  and  C_4
REMARK    3  A    between atoms: N_3  and  C_6
REMARK    4  A    between atoms: C_9  and  N_10
REMARK                            x       y       z     vdW  Elec       q    Type
REMARK                         _______ _______ _______ _____ _____    ______ ____
ROOT
ATOM      1  C   UNL     1      35.379   7.502  35.998  0.00  0.00    +0.000 A 
ATOM      2  C   UNL     1      36.282   6.538  35.622  0.00  0.00    +0.000 A 
ATOM      3  C   UNL     1      35.830   5.304  35.203  0.00  0.00    +0.000 A 
ATOM      4  C   UNL     1      34.489   4.977  35.138  0.00  0.00    +0.000 A 
ATOM      5  C   UNL     1      33.585   5.944  35.514  0.00  0.00    +0.000 A 
ATOM      6  C   UNL     1      34.039   7.179  35.935  0.00  0.00    +0.000 A 
ENDROOT
BRANCH   4   7
ATOM      7  N   UNL     1      34.067   3.675  34.693  0.00  0.00    +0.000 N 
ATOM      8  C   UNL     1      33.702   3.321  33.447  0.00  0.00    +0.000 A 
ATOM      9  N   UNL     1      33.373   2.018  33.421  0.00  0.00    +0.000 NA
ATOM     10  C   UNL     1      33.519   1.497  34.664  0.00  0.00    +0.000 A 
ATOM     11  C   UNL     1      33.317   0.224  35.183  0.00  0.00    +0.000 A 
ATOM     12  C   UNL     1      33.564   0.023  36.520  0.00  0.00    +0.000 A 
ATOM     13  N   UNL     1      33.385  -1.250  37.144  0.00  0.00    +0.000 NA
ATOM     14  C   UNL     1      33.997   1.085  37.287  0.00  0.00    +0.000 A 
ATOM     15  C   UNL     1      34.198   2.349  36.774  0.00  0.00    +0.000 A 
ATOM     16  C   UNL     1      33.953   2.556  35.434  0.00  0.00    +0.000 A 
ENDBRANCH   4   7
BRANCH   1  17
ATOM     17  N   UNL     1      35.873   8.746  36.420  0.00  0.00    +0.000 N 
BRANCH  17  19
ATOM     18  C   UNL     1      34.662  10.769  35.762  0.00  0.00    +0.000 C 
ATOM     19  C   UNL     1      35.836   9.861  35.490  0.00  0.00    +0.000 C 
ENDBRANCH  17  19
BRANCH  17  20
ATOM     20  C   UNL     1      36.409   8.941  37.744  0.00  0.00    +0.000 C 
ATOM     21  C   UNL     1      37.705   9.706  37.643  0.00  0.00    +0.000 C 
ENDBRANCH  17  20
ENDBRANCH   1  17
TORSDOF 4
ENDMDL
MODEL 8
REMARK VINA RESULT:      -5.9     18.356     20.499
REMARK  Name = 
REMARK  4 active torsions:
REMARK  status: ('A' for Active; 'I' for Inactive)
REMARK    1  A    between atoms: C_2  and  N_3
REMARK    2  A    between atoms: N_3  and  C_4
REMARK    3  A    between atoms: N_3  and  C_6
REMARK    4  A    between atoms: C_9  and  N_10
REMARK                            x       y       z     vdW  Elec       q    Type
REMARK                         _______ _______ _______ _____ _____    ______ ____
ROOT
ATOM      1  C   UNL     1      31.193  22.422  29.758  0.00  0.00    +0.000 A 
ATOM      2  C   UNL     1      29.973  23.048  29.834  0.00  0.00    +0.000 A 
ATOM      3  C   UNL     1      29.192  23.164  28.703  0.00  0.00    +0.000 A 
ATOM      4  C   UNL     1      29.579  22.675  27.469  0.00  0.00    +0.000 A 
ATOM      5  C   UNL     1      30.802  22.048  27.394  0.00  0.00    +0.000 A 
ATOM      6  C   UNL     1      31.583  21.933  28.528  0.00  0.00    +0.000 A 
ENDROOT
BRANCH   4   7
ATOM      7  N   UNL     1      28.728  22.821  26.318  0.00  0.00    +0.000 N 
ATOM      8  C   UNL     1      27.415  22.535  26.236  0.00  0.00    +0.000 A 
ATOM      9  N   UNL     1      26.967  22.803  24.997  0.00  0.00    +0.000 NA
ATOM     10  C   UNL     1      27.992  23.271  24.244  0.00  0.00    +0.000 A 
ATOM     11  C   UNL     1      28.077  23.688  22.921  0.00  0.00    +0.000 A 
ATOM     12  C   UNL     1      29.296  24.117  22.454  0.00  0.00    +0.000 A 
ATOM     13  N   UNL     1      29.482  24.565  21.110  0.00  0.00    +0.000 NA
ATOM     14  C   UNL     1      30.378  24.115  23.310  0.00  0.00    +0.000 A 
ATOM     15  C   UNL     1      30.296  23.700  24.623  0.00  0.00    +0.000 A 
ATOM     16  C   UNL     1      29.076  23.270  25.096  0.00  0.00    +0.000 A 
ENDBRANCH   4   7
BRANCH   1  17
ATOM     17  N   UNL     1      31.962  22.321  30.927  0.00  0.00    +0.000 N 
BRANCH  17  19
ATOM     18  C   UNL     1      30.834  21.485  32.932  0.00  0.00    +0.000 C 
ATOM     19  C   UNL     1      31.769  21.170  31.790  0.00  0.00    +0.000 C 
ENDBRANCH  17  19
BRANCH  17  20
ATOM     20  C   UNL     1      32.932  23.327  31.288  0.00  0.00    +0.000 C 
ATOM     21  C   UNL     1      34.310  22.832  30.929  0.00  0.00    +0.000 C 
ENDBRANCH  17  20
ENDBRANCH   1  17
TORSDOF 4
ENDMDL
MODEL 9
REMARK VINA RESULT:      -5.8     18.677     20.820
REMARK  Name = 
REMARK  4 active torsions:
REMARK  status: ('A' for Active; 'I' for Inactive)
REMARK    1  A    between atoms: C_2  and  N_3
REMARK    2  A    between atoms: N_3  and  C_4
REMARK    3  A    between atoms: N_3  and  C_6
REMARK    4  A    between atoms: C_9  and  N_10
REMARK                            x       y       z     vdW  Elec       q    Type
REMARK                         _______ _______ _______ _____ _____    ______ ____
ROOT
ATOM      1  C   UNL     1      30.406  22.501  28.868  0.00  0.00    +0.000 A 
ATOM      2  C   UNL     1      30.831  21.951  27.684  0.00  0.00    +0.000 A 
ATOM      3  C   UNL     1      30.106  22.167  26.531  0.00  0.00    +0.000 A 
ATOM      4  C   UNL     1      28.950  22.924  26.501  0.00  0.00    +0.000 A 
ATOM      5  C   UNL     1      28.525  23.475  27.688  0.00  0.00    +0.000 A 
ATOM      6  C   UNL     1      29.252  23.257  28.842  0.00  0.00    +0.000 A 
ENDROOT
BRANCH   4   7
ATOM      7  N   UNL     1      28.228  23.120  25.271  0.00  0.00    +0.000 N 
ATOM      8  C   UNL     1      26.955  22.766  25.011  0.00  0.00    +0.000 A 
ATOM      9  N   UNL     1      26.634  23.113  23.752  0.00  0.00    +0.000 NA
ATOM     10  C   UNL     1      27.704  23.704  23.167  0.00  0.00    +0.000 A 
ATOM     11  C   UNL     1      27.910  24.240  21.901  0.00  0.00    +0.000 A 
ATOM     12  C   UNL     1      29.143  24.778  21.618  0.00  0.00    +0.000 A 
ATOM     13  N   UNL     1      29.450  25.351  20.346  0.00  0.00    +0.000 NA
ATOM     14  C   UNL     1      30.118  24.764  22.595  0.00  0.00    +0.000 A 
ATOM     15  C   UNL     1      29.915  24.233  23.851  0.00  0.00    +0.000 A 
ATOM     16  C   UNL     1      28.681  23.693  24.140  0.00  0.00    +0.000 A 
ENDBRANCH   4   7
BRANCH   1  17
ATOM     17  N   UNL     1      31.167  22.262  30.023  0.00  0.00    +0.000 N 
BRANCH  17  19
ATOM     18  C   UNL     1      33.576  22.675  29.879  0.00  0.00    +0.000 C 
ATOM     19  C   UNL     1      32.473  21.644  29.880  0.00  0.00    +0.000 C 
ENDBRANCH  17  19
BRANCH  17  20
ATOM     20  C   UNL     1      30.685  22.614  31.336  0.00  0.00    +0.000 C 
ATOM     21  C   UNL     1      30.956  21.471  32.282  0.00  0.00    +0.000 C 
ENDBRANCH  17  20
ENDBRANCH   1  17
TORSDOF 4
ENDMDL
MODEL 10
REMARK VINA RESULT:      -5.6     18.024     19.078
REMARK  Name = 
REMARK  4 active torsions:
REMARK  status: ('A' for Active; 'I' for Inactive)
REMARK    1  A    between atoms: C_2  and  N_3
REMARK    2  A    between atoms: N_3  and  C_4
REMARK    3  A    between atoms: N_3  and  C_6
REMARK    4  A    between atoms: C_9  and  N_10
REMARK                            x       y       z     vdW  Elec       q    Type
REMARK                         _______ _______ _______ _____ _____    ______ ____
ROOT
ATOM      1  C   UNL     1      28.823  23.956  25.401  0.00  0.00    +0.000 A 
ATOM      2  C   UNL     1      29.369  24.842  26.297  0.00  0.00    +0.000 A 
ATOM      3  C   UNL     1      29.673  24.423  27.575  0.00  0.00    +0.000 A 
ATOM      4  C   UNL     1      29.455  23.131  28.014  0.00  0.00    +0.000 A 
ATOM      5  C   UNL     1      28.908  22.244  27.116  0.00  0.00    +0.000 A 
ATOM      6  C   UNL     1      28.603  22.665  25.837  0.00  0.00    +0.000 A 
ENDROOT
BRANCH   4   7
ATOM      7  N   UNL     1      29.790  22.743  29.359  0.00  0.00    +0.000 N 
ATOM      8  C   UNL     1      28.994  22.800  30.443  0.00  0.00    +0.000 A 
ATOM      9  N   UNL     1      29.660  22.350  31.521  0.00  0.00    +0.000 NA
ATOM     10  C   UNL     1      30.914  21.991  31.153  0.00  0.00    +0.000 A 
ATOM     11  C   UNL     1      31.993  21.475  31.859  0.00  0.00    +0.000 A 
ATOM     12  C   UNL     1      33.153  21.212  31.170  0.00  0.00    +0.000 A 
ATOM     13  N   UNL     1      34.314  20.681  31.809  0.00  0.00    +0.000 NA
ATOM     14  C   UNL     1      33.198  21.471  29.815  0.00  0.00    +0.000 A 
ATOM     15  C   UNL     1      32.128  21.984  29.112  0.00  0.00    +0.000 A 
ATOM     16  C   UNL     1      30.963  22.248  29.798  0.00  0.00    +0.000 A 
ENDBRANCH   4   7
BRANCH   1  17
ATOM     17  N   UNL     1      28.525  24.414  24.109  0.00  0.00    +0.000 N 
BRANCH  17  19
ATOM     18  C   UNL     1      26.530  23.530  23.001  0.00  0.00    +0.000 C 
ATOM     19  C   UNL     1      28.032  23.463  23.129  0.00  0.00    +0.000 C 
ENDBRANCH  17  19
BRANCH  17  20
ATOM     20  C   UNL     1      28.694  25.798  23.736  0.00  0.00    +0.000 C 
ATOM     21  C   UNL     1      29.358  25.865  22.384  0.00  0.00    +0.000 C 
ENDBRANCH  17  20
ENDBRANCH   1  17
TORSDOF 4
ENDMDL
