MODEL 1
REMARK VINA RESULT:      -7.4      0.000      0.000
REMARK  Name = 
REMARK  7 active torsions:
REMARK  status: ('A' for Active; 'I' for Inactive)
REMARK    1  A    between atoms: C_2  and  C_5
REMARK    2  A    between atoms: C_8  and  C_9
REMARK    3  A    between atoms: N_11  and  C_12
REMARK    4  A    between atoms: C_12  and  C_19
REMARK    5  A    between atoms: C_13  and  C_14
REMARK    6  A    between atoms: N_21  and  C_22
REMARK    7  A    between atoms: C_22  and  C_23
REMARK                            x       y       z     vdW  Elec       q    Type
REMARK                         _______ _______ _______ _____ _____    ______ ____
ROOT
ATOM      1  C   UNL     1      37.774   3.597  15.884  0.00  0.00    +0.000 C 
ATOM      2  C   UNL     1      38.746   3.154  15.106  0.00  0.00    +0.000 C 
ENDROOT
BRANCH   2   3
ATOM      3  C   UNL     1      38.770   1.880  14.424  0.00  0.00    +0.000 A 
ATOM      4  C   UNL     1      39.319   0.662  14.651  0.00  0.00    +0.000 A 
ATOM      5  C   UNL     1      39.123  -0.320  13.788  0.00  0.00    +0.000 A 
ATOM      6  C   UNL     1      38.363  -0.062  12.689  0.00  0.00    +0.000 A 
ATOM      7  S   UNL     1      37.932   1.568  12.892  0.00  0.00    +0.000 S 
ENDBRANCH   2   3
BRANCH   1  10
ATOM      8  C   UNL     1      38.450   5.039  17.737  0.00  0.00    +0.000 C 
ATOM      9  O   UNL     1      38.518   3.928  18.386  0.00  0.00    +0.000 OA
ATOM     10  N   UNL     1      38.086   4.921  16.393  0.00  0.00    +0.000 NA
BRANCH   8  14
ATOM     11  C   UNL     1      39.312   8.771  19.646  0.00  0.00    +0.000 A 
ATOM     12  C   UNL     1      39.883   7.616  20.103  0.00  0.00    +0.000 A 
ATOM     13  C   UNL     1      39.600   6.365  19.529  0.00  0.00    +0.000 A 
ATOM     14  C   UNL     1      38.740   6.263  18.479  0.00  0.00    +0.000 A 
ATOM     15  C   UNL     1      38.146   7.442  18.003  0.00  0.00    +0.000 A 
ATOM     16  C   UNL     1      38.438   8.622  18.582  0.00  0.00    +0.000 A 
BRANCH  11  18
ATOM     17  C   UNL     1      39.612  11.127  19.065  0.00  0.00    +0.000 C 
ATOM     18  C   UNL     1      39.611  10.095  20.204  0.00  0.00    +0.000 C 
ATOM     19  C   UNL     1      38.671  10.590  21.237  0.00  0.00    +0.000 C 
ATOM     20  C   UNL     1      41.020  10.118  20.801  0.00  0.00    +0.000 C 
ENDBRANCH  11  18
ENDBRANCH   8  14
ENDBRANCH   1  10
BRANCH   1  21
ATOM     21  C   UNL     1      36.603   2.838  16.144  0.00  0.00    +0.000 C 
ATOM     22  O   UNL     1      35.509   3.077  15.487  0.00  0.00    +0.000 OA
ATOM     23  N   UNL     1      36.505   1.782  17.088  0.00  0.00    +0.000 NA
BRANCH  23  24
ATOM     24  C   UNL     1      35.231   1.110  17.204  0.00  0.00    +0.000 C 
BRANCH  24  25
ATOM     25  C   UNL     1      35.156  -0.283  16.799  0.00  0.00    +0.000 A 
ATOM     26  C   UNL     1      35.930  -0.871  15.758  0.00  0.00    +0.000 A 
ATOM     27  C   UNL     1      35.591  -2.171  15.667  0.00  0.00    +0.000 A 
ATOM     28  C   UNL     1      34.631  -2.377  16.643  0.00  0.00    +0.000 A 
ATOM     29  O   UNL     1      34.416  -1.250  17.269  0.00  0.00    +0.000 OA
ENDBRANCH  24  25
ENDBRANCH  23  24
ENDBRANCH   1  21
TORSDOF 7
ENDMDL
MODEL 2
REMARK VINA RESULT:      -7.2      3.247      4.342
REMARK  Name = 
REMARK  7 active torsions:
REMARK  status: ('A' for Active; 'I' for Inactive)
REMARK    1  A    between atoms: C_2  and  C_5
REMARK    2  A    between atoms: C_8  and  C_9
REMARK    3  A    between atoms: N_11  and  C_12
REMARK    4  A    between atoms: C_12  and  C_19
REMARK    5  A    between atoms: C_13  and  C_14
REMARK    6  A    between atoms: N_21  and  C_22
REMARK    7  A    between atoms: C_22  and  C_23
REMARK                            x       y       z     vdW  Elec       q    Type
REMARK                         _______ _______ _______ _____ _____    ______ ____
ROOT
ATOM      1  C   UNL     1      37.809   5.609  14.819  0.00  0.00    +0.000 C 
ATOM      2  C   UNL     1      37.139   6.720  14.570  0.00  0.00    +0.000 C 
ENDROOT
BRANCH   2   3
ATOM      3  C   UNL     1      35.892   6.811  13.845  0.00  0.00    +0.000 A 
ATOM      4  C   UNL     1      34.575   6.827  14.167  0.00  0.00    +0.000 A 
ATOM      5  C   UNL     1      33.666   6.935  13.215  0.00  0.00    +0.000 A 
ATOM      6  C   UNL     1      34.096   7.030  11.927  0.00  0.00    +0.000 A 
ATOM      7  S   UNL     1      35.786   6.967  12.081  0.00  0.00    +0.000 S 
ENDBRANCH   2   3
BRANCH   1  10
ATOM      8  C   UNL     1      38.942   5.828  16.973  0.00  0.00    +0.000 C 
ATOM      9  O   UNL     1      37.800   5.465  17.446  0.00  0.00    +0.000 OA
ATOM     10  N   UNL     1      39.014   5.895  15.579  0.00  0.00    +0.000 NA
BRANCH   8  14
ATOM     11  C   UNL     1      42.219   6.568  19.624  0.00  0.00    +0.000 A 
ATOM     12  C   UNL     1      40.971   6.322  20.125  0.00  0.00    +0.000 A 
ATOM     13  C   UNL     1      39.861   6.110  19.291  0.00  0.00    +0.000 A 
ATOM     14  C   UNL     1      39.996   6.136  17.937  0.00  0.00    +0.000 A 
ATOM     15  C   UNL     1      41.273   6.389  17.412  0.00  0.00    +0.000 A 
ATOM     16  C   UNL     1      42.312   6.593  18.243  0.00  0.00    +0.000 A 
BRANCH  11  18
ATOM     17  C   UNL     1      43.343   8.165  21.095  0.00  0.00    +0.000 C 
ATOM     18  C   UNL     1      43.403   6.763  20.469  0.00  0.00    +0.000 C 
ATOM     19  C   UNL     1      43.570   5.797  21.582  0.00  0.00    +0.000 C 
ATOM     20  C   UNL     1      44.677   6.729  19.622  0.00  0.00    +0.000 C 
ENDBRANCH  11  18
ENDBRANCH   8  14
ENDBRANCH   1  10
BRANCH   1  21
ATOM     21  C   UNL     1      37.357   4.335  14.386  0.00  0.00    +0.000 C 
ATOM     22  O   UNL     1      37.881   3.777  13.337  0.00  0.00    +0.000 OA
ATOM     23  N   UNL     1      36.348   3.565  15.022  0.00  0.00    +0.000 NA
BRANCH  23  24
ATOM     24  C   UNL     1      36.030   2.279  14.444  0.00  0.00    +0.000 C 
BRANCH  24  25
ATOM     25  C   UNL     1      35.706   1.188  15.346  0.00  0.00    +0.000 A 
ATOM     26  C   UNL     1      34.969   1.324  16.557  0.00  0.00    +0.000 A 
ATOM     27  C   UNL     1      34.867   0.107  17.125  0.00  0.00    +0.000 A 
ATOM     28  C   UNL     1      35.522  -0.761  16.270  0.00  0.00    +0.000 A 
ATOM     29  O   UNL     1      35.991  -0.082  15.255  0.00  0.00    +0.000 OA
ENDBRANCH  24  25
ENDBRANCH  23  24
ENDBRANCH   1  21
TORSDOF 7
ENDMDL
MODEL 3
REMARK VINA RESULT:      -7.0      2.123      3.713
REMARK  Name = 
REMARK  7 active torsions:
REMARK  status: ('A' for Active; 'I' for Inactive)
REMARK    1  A    between atoms: C_2  and  C_5
REMARK    2  A    between atoms: C_8  and  C_9
REMARK    3  A    between atoms: N_11  and  C_12
REMARK    4  A    between atoms: C_12  and  C_19
REMARK    5  A    between atoms: C_13  and  C_14
REMARK    6  A    between atoms: N_21  and  C_22
REMARK    7  A    between atoms: C_22  and  C_23
REMARK                            x       y       z     vdW  Elec       q    Type
REMARK                         _______ _______ _______ _____ _____    ______ ____
ROOT
ATOM      1  C   UNL     1      37.296   3.216  16.147  0.00  0.00    +0.000 C 
ATOM      2  C   UNL     1      36.421   2.751  17.021  0.00  0.00    +0.000 C 
ENDROOT
BRANCH   2   3
ATOM      3  C   UNL     1      35.910   1.399  17.070  0.00  0.00    +0.000 A 
ATOM      4  C   UNL     1      35.249   0.574  16.221  0.00  0.00    +0.000 A 
ATOM      5  C   UNL     1      34.934  -0.650  16.605  0.00  0.00    +0.000 A 
ATOM      6  C   UNL     1      35.294  -1.039  17.859  0.00  0.00    +0.000 A 
ATOM      7  S   UNL     1      36.077   0.334  18.478  0.00  0.00    +0.000 S 
ENDBRANCH   2   3
BRANCH   1  10
ATOM      8  C   UNL     1      38.258   4.940  17.586  0.00  0.00    +0.000 C 
ATOM      9  O   UNL     1      38.600   3.934  18.316  0.00  0.00    +0.000 OA
ATOM     10  N   UNL     1      37.585   4.616  16.404  0.00  0.00    +0.000 NA
BRANCH   8  14
ATOM     11  C   UNL     1      39.192   8.737  19.324  0.00  0.00    +0.000 A 
ATOM     12  C   UNL     1      38.485   8.670  18.157  0.00  0.00    +0.000 A 
ATOM     13  C   UNL     1      38.188   7.447  17.533  0.00  0.00    +0.000 A 
ATOM     14  C   UNL     1      38.595   6.271  18.084  0.00  0.00    +0.000 A 
ATOM     15  C   UNL     1      39.323   6.328  19.283  0.00  0.00    +0.000 A 
ATOM     16  C   UNL     1      39.594   7.519  19.848  0.00  0.00    +0.000 A 
BRANCH  11  18
ATOM     17  C   UNL     1      40.905   9.915  20.612  0.00  0.00    +0.000 C 
ATOM     18  C   UNL     1      39.491   9.997  20.016  0.00  0.00    +0.000 C 
ATOM     19  C   UNL     1      39.442  11.221  19.181  0.00  0.00    +0.000 C 
ATOM     20  C   UNL     1      38.541  10.196  21.199  0.00  0.00    +0.000 C 
ENDBRANCH  11  18
ENDBRANCH   8  14
ENDBRANCH   1  10
BRANCH   1  21
ATOM     21  C   UNL     1      37.850   2.405  15.122  0.00  0.00    +0.000 C 
ATOM     22  O   UNL     1      37.239   2.281  13.983  0.00  0.00    +0.000 OA
ATOM     23  N   UNL     1      39.073   1.690  15.215  0.00  0.00    +0.000 NA
BRANCH  23  24
ATOM     24  C   UNL     1      39.488   0.928  14.059  0.00  0.00    +0.000 C 
BRANCH  24  25
ATOM     25  C   UNL     1      40.005  -0.412  14.276  0.00  0.00    +0.000 A 
ATOM     26  C   UNL     1      39.507  -1.330  15.245  0.00  0.00    +0.000 A 
ATOM     27  C   UNL     1      40.229  -2.464  15.158  0.00  0.00    +0.000 A 
ATOM     28  C   UNL     1      41.148  -2.245  14.145  0.00  0.00    +0.000 A 
ATOM     29  O   UNL     1      40.974  -1.040  13.669  0.00  0.00    +0.000 OA
ENDBRANCH  24  25
ENDBRANCH  23  24
ENDBRANCH   1  21
TORSDOF 7
ENDMDL
MODEL 4
REMARK VINA RESULT:      -6.8     34.563     37.235
REMARK  Name = 
REMARK  7 active torsions:
REMARK  status: ('A' for Active; 'I' for Inactive)
REMARK    1  A    between atoms: C_2  and  C_5
REMARK    2  A    between atoms: C_8  and  C_9
REMARK    3  A    between atoms: N_11  and  C_12
REMARK    4  A    between atoms: C_12  and  C_19
REMARK    5  A    between atoms: C_13  and  C_14
REMARK    6  A    between atoms: N_21  and  C_22
REMARK    7  A    between atoms: C_22  and  C_23
REMARK                            x       y       z     vdW  Elec       q    Type
REMARK                         _______ _______ _______ _____ _____    ______ ____
ROOT
ATOM      1  C   UNL     1       8.436  17.491  35.434  0.00  0.00    +0.000 C 
ATOM      2  C   UNL     1       8.852  16.638  36.353  0.00  0.00    +0.000 C 
ENDROOT
BRANCH   2   3
ATOM      3  C   UNL     1       9.689  16.957  37.487  0.00  0.00    +0.000 A 
ATOM      4  C   UNL     1      11.022  17.035  37.725  0.00  0.00    +0.000 A 
ATOM      5  C   UNL     1      11.457  17.380  38.924  0.00  0.00    +0.000 A 
ATOM      6  C   UNL     1      10.534  17.648  39.887  0.00  0.00    +0.000 A 
ATOM      7  S   UNL     1       9.058  17.411  39.081  0.00  0.00    +0.000 S 
ENDBRANCH   2   3
BRANCH   1  10
ATOM      8  C   UNL     1       8.234  16.242  33.344  0.00  0.00    +0.000 C 
ATOM      9  O   UNL     1       9.519  16.326  33.339  0.00  0.00    +0.000 OA
ATOM     10  N   UNL     1       7.604  16.820  34.449  0.00  0.00    +0.000 NA
BRANCH   8  14
ATOM     11  C   UNL     1       6.362  14.055  30.177  0.00  0.00    +0.000 A 
ATOM     12  C   UNL     1       7.404  14.897  29.909  0.00  0.00    +0.000 A 
ATOM     13  C   UNL     1       8.024  15.661  30.912  0.00  0.00    +0.000 A 
ATOM     14  C   UNL     1       7.604  15.579  32.204  0.00  0.00    +0.000 A 
ATOM     15  C   UNL     1       6.533  14.718  32.490  0.00  0.00    +0.000 A 
ATOM     16  C   UNL     1       5.961  14.006  31.502  0.00  0.00    +0.000 A 
BRANCH  11  18
ATOM     17  C   UNL     1       5.380  11.853  29.771  0.00  0.00    +0.000 C 
ATOM     18  C   UNL     1       5.716  13.221  29.156  0.00  0.00    +0.000 C 
ATOM     19  C   UNL     1       4.459  13.759  28.582  0.00  0.00    +0.000 C 
ATOM     20  C   UNL     1       6.681  12.944  28.001  0.00  0.00    +0.000 C 
ENDBRANCH  11  18
ENDBRANCH   8  14
ENDBRANCH   1  10
BRANCH   1  21
ATOM     21  C   UNL     1       8.782  18.867  35.462  0.00  0.00    +0.000 C 
ATOM     22  O   UNL     1       8.149  19.685  36.247  0.00  0.00    +0.000 OA
ATOM     23  N   UNL     1       9.811  19.468  34.690  0.00  0.00    +0.000 NA
BRANCH  23  24
ATOM     24  C   UNL     1      10.030  20.886  34.864  0.00  0.00    +0.000 C 
BRANCH  24  25
ATOM     25  C   UNL     1      11.268  21.451  34.357  0.00  0.00    +0.000 A 
ATOM     26  C   UNL     1      11.404  22.763  33.819  0.00  0.00    +0.000 A 
ATOM     27  C   UNL     1      12.688  22.934  33.450  0.00  0.00    +0.000 A 
ATOM     28  C   UNL     1      13.329  21.749  33.767  0.00  0.00    +0.000 A 
ATOM     29  O   UNL     1      12.460  20.924  34.289  0.00  0.00    +0.000 OA
ENDBRANCH  24  25
ENDBRANCH  23  24
ENDBRANCH   1  21
TORSDOF 7
ENDMDL
MODEL 5
REMARK VINA RESULT:      -6.7      2.183      3.192
REMARK  Name = 
REMARK  7 active torsions:
REMARK  status: ('A' for Active; 'I' for Inactive)
REMARK    1  A    between atoms: C_2  and  C_5
REMARK    2  A    between atoms: C_8  and  C_9
REMARK    3  A    between atoms: N_11  and  C_12
REMARK    4  A    between atoms: C_12  and  C_19
REMARK    5  A    between atoms: C_13  and  C_14
REMARK    6  A    between atoms: N_21  and  C_22
REMARK    7  A    between atoms: C_22  and  C_23
REMARK                            x       y       z     vdW  Elec       q    Type
REMARK                         _______ _______ _______ _____ _____    ______ ____
ROOT
ATOM      1  C   UNL     1      38.898   1.863  13.682  0.00  0.00    +0.000 C 
ATOM      2  C   UNL     1      39.482   2.315  12.587  0.00  0.00    +0.000 C 
ENDROOT
BRANCH   2   3
ATOM      3  C   UNL     1      39.234   1.849  11.241  0.00  0.00    +0.000 A 
ATOM      4  C   UNL     1      39.667   0.823  10.467  0.00  0.00    +0.000 A 
ATOM      5  C   UNL     1      39.206   0.686   9.237  0.00  0.00    +0.000 A 
ATOM      6  C   UNL     1      38.297   1.596   8.790  0.00  0.00    +0.000 A 
ATOM      7  S   UNL     1      38.105   2.634  10.120  0.00  0.00    +0.000 S 
ENDBRANCH   2   3
BRANCH   1  10
ATOM      8  C   UNL     1      38.654   3.671  15.308  0.00  0.00    +0.000 C 
ATOM      9  O   UNL     1      37.573   3.919  14.652  0.00  0.00    +0.000 OA
ATOM     10  N   UNL     1      39.386   2.570  14.854  0.00  0.00    +0.000 NA
BRANCH   8  14
ATOM     11  C   UNL     1      39.910   6.264  18.472  0.00  0.00    +0.000 A 
ATOM     12  C   UNL     1      38.910   5.356  18.683  0.00  0.00    +0.000 A 
ATOM     13  C   UNL     1      38.442   4.511  17.663  0.00  0.00    +0.000 A 
ATOM     14  C   UNL     1      38.984   4.565  16.415  0.00  0.00    +0.000 A 
ATOM     15  C   UNL     1      40.010   5.495  16.188  0.00  0.00    +0.000 A 
ATOM     16  C   UNL     1      40.428   6.292  17.189  0.00  0.00    +0.000 A 
BRANCH  11  18
ATOM     17  C   UNL     1      41.136   8.341  18.870  0.00  0.00    +0.000 C 
ATOM     18  C   UNL     1      40.440   7.138  19.526  0.00  0.00    +0.000 C 
ATOM     19  C   UNL     1      39.444   7.680  20.481  0.00  0.00    +0.000 C 
ATOM     20  C   UNL     1      41.518   6.410  20.332  0.00  0.00    +0.000 C 
ENDBRANCH  11  18
ENDBRANCH   8  14
ENDBRANCH   1  10
BRANCH   1  21
ATOM     21  C   UNL     1      37.924   0.831  13.653  0.00  0.00    +0.000 C 
ATOM     22  O   UNL     1      36.802   1.006  13.025  0.00  0.00    +0.000 OA
ATOM     23  N   UNL     1      38.066  -0.444  14.263  0.00  0.00    +0.000 NA
BRANCH  23  24
ATOM     24  C   UNL     1      36.972  -1.377  14.114  0.00  0.00    +0.000 C 
BRANCH  24  25
ATOM     25  C   UNL     1      36.073  -1.558  15.240  0.00  0.00    +0.000 A 
ATOM     26  C   UNL     1      35.614  -0.513  16.092  0.00  0.00    +0.000 A 
ATOM     27  C   UNL     1      34.802  -1.054  17.020  0.00  0.00    +0.000 A 
ATOM     28  C   UNL     1      34.758  -2.408  16.734  0.00  0.00    +0.000 A 
ATOM     29  O   UNL     1      35.513  -2.646  15.693  0.00  0.00    +0.000 OA
ENDBRANCH  24  25
ENDBRANCH  23  24
ENDBRANCH   1  21
TORSDOF 7
ENDMDL
MODEL 6
REMARK VINA RESULT:      -6.6      4.789      9.240
REMARK  Name = 
REMARK  7 active torsions:
REMARK  status: ('A' for Active; 'I' for Inactive)
REMARK    1  A    between atoms: C_2  and  C_5
REMARK    2  A    between atoms: C_8  and  C_9
REMARK    3  A    between atoms: N_11  and  C_12
REMARK    4  A    between atoms: C_12  and  C_19
REMARK    5  A    between atoms: C_13  and  C_14
REMARK    6  A    between atoms: N_21  and  C_22
REMARK    7  A    between atoms: C_22  and  C_23
REMARK                            x       y       z     vdW  Elec       q    Type
REMARK                         _______ _______ _______ _____ _____    ______ ____
ROOT
ATOM      1  C   UNL     1      35.045   6.111  13.584  0.00  0.00    +0.000 C 
ATOM      2  C   UNL     1      35.259   5.924  12.294  0.00  0.00    +0.000 C 
ENDROOT
BRANCH   2   3
ATOM      3  C   UNL     1      35.613   6.948  11.337  0.00  0.00    +0.000 A 
ATOM      4  C   UNL     1      36.761   7.417  10.790  0.00  0.00    +0.000 A 
ATOM      5  C   UNL     1      36.716   8.396   9.904  0.00  0.00    +0.000 A 
ATOM      6  C   UNL     1      35.497   8.901   9.570  0.00  0.00    +0.000 A 
ATOM      7  S   UNL     1      34.428   7.980  10.515  0.00  0.00    +0.000 S 
ENDBRANCH   2   3
BRANCH   1  10
ATOM      8  C   UNL     1      35.774   4.055  14.684  0.00  0.00    +0.000 C 
ATOM      9  O   UNL     1      36.951   4.549  14.505  0.00  0.00    +0.000 OA
ATOM     10  N   UNL     1      34.719   4.856  14.238  0.00  0.00    +0.000 NA
BRANCH   8  14
ATOM     11  C   UNL     1      35.486   0.073  16.225  0.00  0.00    +0.000 A 
ATOM     12  C   UNL     1      34.923   1.116  16.905  0.00  0.00    +0.000 A 
ATOM     13  C   UNL     1      35.024   2.443  16.454  0.00  0.00    +0.000 A 
ATOM     14  C   UNL     1      35.691   2.735  15.304  0.00  0.00    +0.000 A 
ATOM     15  C   UNL     1      36.275   1.671  14.599  0.00  0.00    +0.000 A 
ATOM     16  C   UNL     1      36.161   0.414  15.065  0.00  0.00    +0.000 A 
BRANCH  11  18
ATOM     17  C   UNL     1      36.420  -1.602  17.742  0.00  0.00    +0.000 C 
ATOM     18  C   UNL     1      35.370  -1.326  16.654  0.00  0.00    +0.000 C 
ATOM     19  C   UNL     1      34.055  -1.727  17.208  0.00  0.00    +0.000 C 
ATOM     20  C   UNL     1      35.700  -2.270  15.495  0.00  0.00    +0.000 C 
ENDBRANCH  11  18
ENDBRANCH   8  14
ENDBRANCH   1  10
BRANCH   1  21
ATOM     21  C   UNL     1      35.145   7.389  14.193  0.00  0.00    +0.000 C 
ATOM     22  O   UNL     1      36.286   7.813  14.644  0.00  0.00    +0.000 OA
ATOM     23  N   UNL     1      34.071   8.304  14.356  0.00  0.00    +0.000 NA
BRANCH  23  24
ATOM     24  C   UNL     1      34.366   9.570  14.987  0.00  0.00    +0.000 C 
BRANCH  24  25
ATOM     25  C   UNL     1      33.724   9.865  16.256  0.00  0.00    +0.000 A 
ATOM     26  C   UNL     1      33.710  11.144  16.884  0.00  0.00    +0.000 A 
ATOM     27  C   UNL     1      33.026  11.036  18.039  0.00  0.00    +0.000 A 
ATOM     28  C   UNL     1      32.621   9.714  18.112  0.00  0.00    +0.000 A 
ATOM     29  O   UNL     1      33.053   9.080  17.054  0.00  0.00    +0.000 OA
ENDBRANCH  24  25
ENDBRANCH  23  24
ENDBRANCH   1  21
TORSDOF 7
ENDMDL
MODEL 7
REMARK VINA RESULT:      -6.5      5.189      9.730
REMARK  Name = 
REMARK  7 active torsions:
REMARK  status: ('A' for Active; 'I' for Inactive)
REMARK    1  A    between atoms: C_2  and  C_5
REMARK    2  A    between atoms: C_8  and  C_9
REMARK    3  A    between atoms: N_11  and  C_12
REMARK    4  A    between atoms: C_12  and  C_19
REMARK    5  A    between atoms: C_13  and  C_14
REMARK    6  A    between atoms: N_21  and  C_22
REMARK    7  A    between atoms: C_22  and  C_23
REMARK                            x       y       z     vdW  Elec       q    Type
REMARK                         _______ _______ _______ _____ _____    ______ ____
ROOT
ATOM      1  C   UNL     1      34.696   6.404  13.762  0.00  0.00    +0.000 C 
ATOM      2  C   UNL     1      34.791   6.390  12.444  0.00  0.00    +0.000 C 
ENDROOT
BRANCH   2   3
ATOM      3  C   UNL     1      35.056   7.535  11.603  0.00  0.00    +0.000 A 
ATOM      4  C   UNL     1      34.327   8.553  11.081  0.00  0.00    +0.000 A 
ATOM      5  C   UNL     1      34.917   9.469  10.333  0.00  0.00    +0.000 A 
ATOM      6  C   UNL     1      36.255   9.351  10.114  0.00  0.00    +0.000 A 
ATOM      7  S   UNL     1      36.663   7.944  10.974  0.00  0.00    +0.000 S 
ENDBRANCH   2   3
BRANCH   1  10
ATOM      8  C   UNL     1      35.522   4.221  14.486  0.00  0.00    +0.000 C 
ATOM      9  O   UNL     1      36.676   4.741  14.248  0.00  0.00    +0.000 OA
ATOM     10  N   UNL     1      34.431   5.070  14.272  0.00  0.00    +0.000 NA
BRANCH   8  14
ATOM     11  C   UNL     1      35.507   0.240  16.055  0.00  0.00    +0.000 A 
ATOM     12  C   UNL     1      36.054   0.494  14.828  0.00  0.00    +0.000 A 
ATOM     13  C   UNL     1      36.048   1.779  14.260  0.00  0.00    +0.000 A 
ATOM     14  C   UNL     1      35.495   2.829  14.927  0.00  0.00    +0.000 A 
ATOM     15  C   UNL     1      34.929   2.578  16.187  0.00  0.00    +0.000 A 
ATOM     16  C   UNL     1      34.948   1.333  16.696  0.00  0.00    +0.000 A 
BRANCH  11  18
ATOM     17  C   UNL     1      34.157  -1.346  17.336  0.00  0.00    +0.000 C 
ATOM     18  C   UNL     1      35.526  -1.085  16.688  0.00  0.00    +0.000 C 
ATOM     19  C   UNL     1      35.805  -2.229  15.787  0.00  0.00    +0.000 C 
ATOM     20  C   UNL     1      36.549  -1.120  17.825  0.00  0.00    +0.000 C 
ENDBRANCH  11  18
ENDBRANCH   8  14
ENDBRANCH   1  10
BRANCH   1  21
ATOM     21  C   UNL     1      34.850   7.592  14.523  0.00  0.00    +0.000 C 
ATOM     22  O   UNL     1      36.031   7.986  14.890  0.00  0.00    +0.000 OA
ATOM     23  N   UNL     1      33.790   8.444  14.932  0.00  0.00    +0.000 NA
BRANCH  23  24
ATOM     24  C   UNL     1      34.142   9.624  15.691  0.00  0.00    +0.000 C 
BRANCH  24  25
ATOM     25  C   UNL     1      34.016  10.915  15.039  0.00  0.00    +0.000 A 
ATOM     26  C   UNL     1      34.558  11.239  13.762  0.00  0.00    +0.000 A 
ATOM     27  C   UNL     1      34.245  12.520  13.486  0.00  0.00    +0.000 A 
ATOM     28  C   UNL     1      33.514  12.968  14.572  0.00  0.00    +0.000 A 
ATOM     29  O   UNL     1      33.412  11.999  15.443  0.00  0.00    +0.000 OA
ENDBRANCH  24  25
ENDBRANCH  23  24
ENDBRANCH   1  21
TORSDOF 7
ENDMDL
MODEL 8
REMARK VINA RESULT:      -6.4      6.711      9.426
REMARK  Name = 
REMARK  7 active torsions:
REMARK  status: ('A' for Active; 'I' for Inactive)
REMARK    1  A    between atoms: C_2  and  C_5
REMARK    2  A    between atoms: C_8  and  C_9
REMARK    3  A    between atoms: N_11  and  C_12
REMARK    4  A    between atoms: C_12  and  C_19
REMARK    5  A    between atoms: C_13  and  C_14
REMARK    6  A    between atoms: N_21  and  C_22
REMARK    7  A    between atoms: C_22  and  C_23
REMARK                            x       y       z     vdW  Elec       q    Type
REMARK                         _______ _______ _______ _____ _____    ______ ____
ROOT
ATOM      1  C   UNL     1      41.940  -1.419  12.989  0.00  0.00    +0.000 C 
ATOM      2  C   UNL     1      41.639  -2.094  11.894  0.00  0.00    +0.000 C 
ENDROOT
BRANCH   2   3
ATOM      3  C   UNL     1      42.586  -2.716  10.996  0.00  0.00    +0.000 A 
ATOM      4  C   UNL     1      43.143  -3.945  10.863  0.00  0.00    +0.000 A 
ATOM      5  C   UNL     1      43.999  -4.177   9.883  0.00  0.00    +0.000 A 
ATOM      6  C   UNL     1      44.290  -3.154   9.033  0.00  0.00    +0.000 A 
ATOM      7  S   UNL     1      43.345  -1.876   9.630  0.00  0.00    +0.000 S 
ENDBRANCH   2   3
BRANCH   1  10
ATOM      8  C   UNL     1      40.201  -1.724  14.679  0.00  0.00    +0.000 C 
ATOM      9  O   UNL     1      40.877  -2.781  14.973  0.00  0.00    +0.000 OA
ATOM     10  N   UNL     1      40.735  -0.945  13.648  0.00  0.00    +0.000 NA
BRANCH   8  14
ATOM     11  C   UNL     1      36.623  -0.734  16.806  0.00  0.00    +0.000 A 
ATOM     12  C   UNL     1      37.524  -1.609  17.346  0.00  0.00    +0.000 A 
ATOM     13  C   UNL     1      38.694  -1.989  16.666  0.00  0.00    +0.000 A 
ATOM     14  C   UNL     1      38.973  -1.485  15.433  0.00  0.00    +0.000 A 
ATOM     15  C   UNL     1      38.054  -0.587  14.869  0.00  0.00    +0.000 A 
ATOM     16  C   UNL     1      36.942  -0.251  15.548  0.00  0.00    +0.000 A 
BRANCH  11  18
ATOM     17  C   UNL     1      35.721  -0.149  19.003  0.00  0.00    +0.000 C 
ATOM     18  C   UNL     1      35.409  -0.294  17.505  0.00  0.00    +0.000 C 
ATOM     19  C   UNL     1      34.835   0.996  17.054  0.00  0.00    +0.000 C 
ATOM     20  C   UNL     1      34.315  -1.358  17.399  0.00  0.00    +0.000 C 
ENDBRANCH  11  18
ENDBRANCH   8  14
ENDBRANCH   1  10
BRANCH   1  21
ATOM     21  C   UNL     1      43.279  -1.223  13.417  0.00  0.00    +0.000 C 
ATOM     22  O   UNL     1      43.906  -0.124  13.126  0.00  0.00    +0.000 OA
ATOM     23  N   UNL     1      44.037  -2.149  14.182  0.00  0.00    +0.000 NA
BRANCH  23  24
ATOM     24  C   UNL     1      45.384  -1.769  14.541  0.00  0.00    +0.000 C 
BRANCH  24  25
ATOM     25  C   UNL     1      45.650  -1.427  15.927  0.00  0.00    +0.000 A 
ATOM     26  C   UNL     1      45.469  -0.134  16.496  0.00  0.00    +0.000 A 
ATOM     27  C   UNL     1      45.816  -0.196  17.796  0.00  0.00    +0.000 A 
ATOM     28  C   UNL     1      46.194  -1.509  18.020  0.00  0.00    +0.000 A 
ATOM     29  O   UNL     1      46.079  -2.179  16.904  0.00  0.00    +0.000 OA
ENDBRANCH  24  25
ENDBRANCH  23  24
ENDBRANCH   1  21
TORSDOF 7
ENDMDL
MODEL 9
REMARK VINA RESULT:      -6.3      5.761      8.954
REMARK  Name = 
REMARK  7 active torsions:
REMARK  status: ('A' for Active; 'I' for Inactive)
REMARK    1  A    between atoms: C_2  and  C_5
REMARK    2  A    between atoms: C_8  and  C_9
REMARK    3  A    between atoms: N_11  and  C_12
REMARK    4  A    between atoms: C_12  and  C_19
REMARK    5  A    between atoms: C_13  and  C_14
REMARK    6  A    between atoms: N_21  and  C_22
REMARK    7  A    between atoms: C_22  and  C_23
REMARK                            x       y       z     vdW  Elec       q    Type
REMARK                         _______ _______ _______ _____ _____    ______ ____
ROOT
ATOM      1  C   UNL     1      38.415   0.923  12.948  0.00  0.00    +0.000 C 
ATOM      2  C   UNL     1      39.111  -0.185  12.763  0.00  0.00    +0.000 C 
ENDROOT
BRANCH   2   3
ATOM      3  C   UNL     1      39.398  -1.181  13.771  0.00  0.00    +0.000 A 
ATOM      4  C   UNL     1      40.446  -1.478  14.579  0.00  0.00    +0.000 A 
ATOM      5  C   UNL     1      40.360  -2.493  15.421  0.00  0.00    +0.000 A 
ATOM      6  C   UNL     1      39.204  -3.210  15.443  0.00  0.00    +0.000 A 
ATOM      7  S   UNL     1      38.249  -2.436  14.271  0.00  0.00    +0.000 S 
ENDBRANCH   2   3
BRANCH   1  10
ATOM      8  C   UNL     1      37.257   1.398  10.849  0.00  0.00    +0.000 C 
ATOM      9  O   UNL     1      36.429   0.507  11.273  0.00  0.00    +0.000 OA
ATOM     10  N   UNL     1      38.320   1.681  11.712  0.00  0.00    +0.000 NA
BRANCH   8  14
ATOM     11  C   UNL     1      36.265   3.254   7.123  0.00  0.00    +0.000 A 
ATOM     12  C   UNL     1      36.642   1.940   7.158  0.00  0.00    +0.000 A 
ATOM     13  C   UNL     1      37.010   1.302   8.355  0.00  0.00    +0.000 A 
ATOM     14  C   UNL     1      36.997   1.980   9.534  0.00  0.00    +0.000 A 
ATOM     15  C   UNL     1      36.614   3.330   9.509  0.00  0.00    +0.000 A 
ATOM     16  C   UNL     1      36.273   3.909   8.343  0.00  0.00    +0.000 A 
BRANCH  11  18
ATOM     17  C   UNL     1      35.243   2.906   4.929  0.00  0.00    +0.000 C 
ATOM     18  C   UNL     1      35.845   3.939   5.895  0.00  0.00    +0.000 C 
ATOM     19  C   UNL     1      34.838   5.014   6.065  0.00  0.00    +0.000 C 
ATOM     20  C   UNL     1      37.056   4.538   5.175  0.00  0.00    +0.000 C 
ENDBRANCH  11  18
ENDBRANCH   8  14
ENDBRANCH   1  10
BRANCH   1  21
ATOM     21  C   UNL     1      37.854   1.268  14.205  0.00  0.00    +0.000 C 
ATOM     22  O   UNL     1      38.524   2.001  15.042  0.00  0.00    +0.000 OA
ATOM     23  N   UNL     1      36.565   0.884  14.658  0.00  0.00    +0.000 NA
BRANCH  23  24
ATOM     24  C   UNL     1      36.155   1.344  15.966  0.00  0.00    +0.000 C 
BRANCH  24  25
ATOM     25  C   UNL     1      36.320   0.438  17.089  0.00  0.00    +0.000 A 
ATOM     26  C   UNL     1      35.584   0.509  18.307  0.00  0.00    +0.000 A 
ATOM     27  C   UNL     1      36.006  -0.486  19.110  0.00  0.00    +0.000 A 
ATOM     28  C   UNL     1      36.977  -1.160  18.391  0.00  0.00    +0.000 A 
ATOM     29  O   UNL     1      37.121  -0.583  17.228  0.00  0.00    +0.000 OA
ENDBRANCH  24  25
ENDBRANCH  23  24
ENDBRANCH   1  21
TORSDOF 7
ENDMDL
MODEL 10
REMARK VINA RESULT:      -6.3     24.704     26.133
REMARK  Name = 
REMARK  7 active torsions:
REMARK  status: ('A' for Active; 'I' for Inactive)
REMARK    1  A    between atoms: C_2  and  C_5
REMARK    2  A    between atoms: C_8  and  C_9
REMARK    3  A    between atoms: N_11  and  C_12
REMARK    4  A    between atoms: C_12  and  C_19
REMARK    5  A    between atoms: C_13  and  C_14
REMARK    6  A    between atoms: N_21  and  C_22
REMARK    7  A    between atoms: C_22  and  C_23
REMARK                            x       y       z     vdW  Elec       q    Type
REMARK                         _______ _______ _______ _____ _____    ______ ____
ROOT
ATOM      1  C   UNL     1      18.120  -0.780   3.158  0.00  0.00    +0.000 C 
ATOM      2  C   UNL     1      19.028  -1.614   2.683  0.00  0.00    +0.000 C 
ENDROOT
BRANCH   2   3
ATOM      3  C   UNL     1      19.726  -1.478   1.425  0.00  0.00    +0.000 A 
ATOM      4  C   UNL     1      20.819  -0.808   0.983  0.00  0.00    +0.000 A 
ATOM      5  C   UNL     1      21.196  -0.922  -0.278  0.00  0.00    +0.000 A 
ATOM      6  C   UNL     1      20.458  -1.723  -1.096  0.00  0.00    +0.000 A 
ATOM      7  S   UNL     1      19.241  -2.307  -0.067  0.00  0.00    +0.000 S 
ENDBRANCH   2   3
BRANCH   1  10
ATOM      8  C   UNL     1      16.426  -1.925   4.496  0.00  0.00    +0.000 C 
ATOM      9  O   UNL     1      15.876  -2.141   3.351  0.00  0.00    +0.000 OA
ATOM     10  N   UNL     1      17.638  -1.229   4.453  0.00  0.00    +0.000 NA
BRANCH   8  14
ATOM     11  C   UNL     1      14.391  -3.075   8.081  0.00  0.00    +0.000 A 
ATOM     12  C   UNL     1      15.242  -3.948   7.463  0.00  0.00    +0.000 A 
ATOM     13  C   UNL     1      15.903  -3.625   6.266  0.00  0.00    +0.000 A 
ATOM     14  C   UNL     1      15.718  -2.411   5.678  0.00  0.00    +0.000 A 
ATOM     15  C   UNL     1      14.845  -1.508   6.303  0.00  0.00    +0.000 A 
ATOM     16  C   UNL     1      14.226  -1.855   7.447  0.00  0.00    +0.000 A 
BRANCH  11  18
ATOM     17  C   UNL     1      12.968  -4.710   9.212  0.00  0.00    +0.000 C 
ATOM     18  C   UNL     1      13.712  -3.371   9.348  0.00  0.00    +0.000 C 
ATOM     19  C   UNL     1      14.585  -3.479  10.541  0.00  0.00    +0.000 C 
ATOM     20  C   UNL     1      12.642  -2.317   9.641  0.00  0.00    +0.000 C 
ENDBRANCH  11  18
ENDBRANCH   8  14
ENDBRANCH   1  10
BRANCH   1  21
ATOM     21  C   UNL     1      17.717   0.385   2.455  0.00  0.00    +0.000 C 
ATOM     22  O   UNL     1      16.749   0.328   1.592  0.00  0.00    +0.000 OA
ATOM     23  N   UNL     1      18.286   1.676   2.618  0.00  0.00    +0.000 NA
BRANCH  23  24
ATOM     24  C   UNL     1      17.733   2.751   1.825  0.00  0.00    +0.000 C 
BRANCH  24  25
ATOM     25  C   UNL     1      18.542   3.285   0.744  0.00  0.00    +0.000 A 
ATOM     26  C   UNL     1      19.800   2.761   0.332  0.00  0.00    +0.000 A 
ATOM     27  C   UNL     1      20.252   3.510  -0.692  0.00  0.00    +0.000 A 
ATOM     28  C   UNL     1      19.280   4.471  -0.909  0.00  0.00    +0.000 A 
ATOM     29  O   UNL     1      18.311   4.296  -0.049  0.00  0.00    +0.000 OA
ENDBRANCH  24  25
ENDBRANCH  23  24
ENDBRANCH   1  21
TORSDOF 7
ENDMDL
