MODEL 1
REMARK VINA RESULT:      -8.2      0.000      0.000
REMARK  Name = 
REMARK  7 active torsions:
REMARK  status: ('A' for Active; 'I' for Inactive)
REMARK    1  A    between atoms: O_2  and  C_3
REMARK    2  A    between atoms: C_7  and  C_8
REMARK    3  A    between atoms: N_10  and  C_11
REMARK    4  A    between atoms: C_15  and  C_16
REMARK    5  A    between atoms: N_18  and  C_19
REMARK    6  A    between atoms: C_19  and  C_20
REMARK    7  A    between atoms: C_20  and  C_21
REMARK                            x       y       z     vdW  Elec       q    Type
REMARK                         _______ _______ _______ _____ _____    ______ ____
ROOT
ATOM      1  C   UNL     1      39.421  -0.982  14.862  0.00  0.00    +0.000 A 
ATOM      2  S   UNL     1      40.581  -2.310  14.942  0.00  0.00    +0.000 S 
ATOM      3  C   UNL     1      41.931  -1.541  14.301  0.00  0.00    +0.000 A 
ATOM      4  C   UNL     1      41.482  -0.295  14.037  0.00  0.00    +0.000 A 
ATOM      5  C   UNL     1      40.186   0.010  14.321  0.00  0.00    +0.000 A 
ATOM      6  C   UNL     1      42.507   0.695  13.431  0.00  0.00    +0.000 C 
ATOM      7  C   UNL     1      43.856   0.320  14.002  0.00  0.00    +0.000 C 
ATOM      8  C   UNL     1      44.165  -1.045  13.372  0.00  0.00    +0.000 C 
ATOM      9  C   UNL     1      43.325  -2.046  14.057  0.00  0.00    +0.000 C 
ENDROOT
BRANCH   1  12
ATOM     10  C   UNL     1      37.097  -0.942  16.022  0.00  0.00    +0.000 C 
ATOM     11  O   UNL     1      37.088   0.081  16.737  0.00  0.00    +0.000 OA
ATOM     12  N   UNL     1      38.163  -1.219  15.310  0.00  0.00    +0.000 NA
BRANCH  10  17
ATOM     13  C   UNL     1      33.652  -2.211  16.924  0.00  0.00    +0.000 A 
ATOM     14  C   UNL     1      33.536  -3.296  16.111  0.00  0.00    +0.000 A 
ATOM     15  C   UNL     1      34.578  -3.634  15.254  0.00  0.00    +0.000 A 
ATOM     16  C   UNL     1      35.718  -2.858  15.245  0.00  0.00    +0.000 A 
ATOM     17  C   UNL     1      35.844  -1.764  16.059  0.00  0.00    +0.000 A 
ATOM     18  C   UNL     1      34.801  -1.447  16.899  0.00  0.00    +0.000 A 
BRANCH  13  20
ATOM     19  C   UNL     1      31.289  -2.378  17.544  0.00  0.00    +0.000 C 
ATOM     20  O   UNL     1      32.587  -1.884  17.785  0.00  0.00    +0.000 OA
ENDBRANCH  13  20
ENDBRANCH  10  17
ENDBRANCH   1  12
BRANCH   5  21
ATOM     21  C   UNL     1      39.608   1.359  14.057  0.00  0.00    +0.000 C 
ATOM     22  O   UNL     1      39.398   1.815  12.951  0.00  0.00    +0.000 OA
ATOM     23  N   UNL     1      39.262   2.206  15.154  0.00  0.00    +0.000 NA
BRANCH  23  24
ATOM     24  C   UNL     1      38.690   3.542  14.911  0.00  0.00    +0.000 C 
BRANCH  24  25
ATOM     25  C   UNL     1      38.004   4.025  16.168  0.00  0.00    +0.000 C 
BRANCH  25  26
ATOM     26  C   UNL     1      38.976   4.879  16.896  0.00  0.00    +0.000 A 
ATOM     27  C   UNL     1      38.831   4.994  18.263  0.00  0.00    +0.000 A 
ATOM     28  C   UNL     1      39.694   5.767  19.010  0.00  0.00    +0.000 A 
ATOM     29  C   UNL     1      40.723   6.434  18.340  0.00  0.00    +0.000 A 
ATOM     30  C   UNL     1      40.848   6.306  16.987  0.00  0.00    +0.000 A 
ATOM     31  C   UNL     1      39.998   5.537  16.218  0.00  0.00    +0.000 A 
ENDBRANCH  25  26
ENDBRANCH  24  25
ENDBRANCH  23  24
ENDBRANCH   5  21
TORSDOF 7
ENDMDL
MODEL 2
REMARK VINA RESULT:      -8.2      2.675      8.488
REMARK  Name = 
REMARK  7 active torsions:
REMARK  status: ('A' for Active; 'I' for Inactive)
REMARK    1  A    between atoms: O_2  and  C_3
REMARK    2  A    between atoms: C_7  and  C_8
REMARK    3  A    between atoms: N_10  and  C_11
REMARK    4  A    between atoms: C_15  and  C_16
REMARK    5  A    between atoms: N_18  and  C_19
REMARK    6  A    between atoms: C_19  and  C_20
REMARK    7  A    between atoms: C_20  and  C_21
REMARK                            x       y       z     vdW  Elec       q    Type
REMARK                         _______ _______ _______ _____ _____    ______ ____
ROOT
ATOM      1  C   UNL     1      36.756   1.252  16.359  0.00  0.00    +0.000 A 
ATOM      2  S   UNL     1      35.277   1.008  17.290  0.00  0.00    +0.000 S 
ATOM      3  C   UNL     1      34.938  -0.583  16.867  0.00  0.00    +0.000 A 
ATOM      4  C   UNL     1      35.948  -0.903  16.029  0.00  0.00    +0.000 A 
ATOM      5  C   UNL     1      36.896   0.036  15.756  0.00  0.00    +0.000 A 
ATOM      6  C   UNL     1      35.939  -2.340  15.451  0.00  0.00    +0.000 C 
ATOM      7  C   UNL     1      35.329  -3.225  16.513  0.00  0.00    +0.000 C 
ATOM      8  C   UNL     1      33.859  -2.785  16.572  0.00  0.00    +0.000 C 
ATOM      9  C   UNL     1      33.815  -1.492  17.280  0.00  0.00    +0.000 C 
ENDROOT
BRANCH   1  12
ATOM     10  C   UNL     1      37.457   3.748  16.199  0.00  0.00    +0.000 C 
ATOM     11  O   UNL     1      36.572   4.310  15.523  0.00  0.00    +0.000 OA
ATOM     12  N   UNL     1      37.360   2.463  16.443  0.00  0.00    +0.000 NA
BRANCH  10  17
ATOM     13  C   UNL     1      39.724   5.801  18.421  0.00  0.00    +0.000 A 
ATOM     14  C   UNL     1      40.630   6.279  17.525  0.00  0.00    +0.000 A 
ATOM     15  C   UNL     1      40.518   5.941  16.181  0.00  0.00    +0.000 A 
ATOM     16  C   UNL     1      39.485   5.123  15.778  0.00  0.00    +0.000 A 
ATOM     17  C   UNL     1      38.568   4.636  16.671  0.00  0.00    +0.000 A 
ATOM     18  C   UNL     1      38.697   4.982  17.997  0.00  0.00    +0.000 A 
BRANCH  13  20
ATOM     19  C   UNL     1      39.368   7.389  20.250  0.00  0.00    +0.000 C 
ATOM     20  O   UNL     1      39.853   6.153  19.779  0.00  0.00    +0.000 OA
ENDBRANCH  13  20
ENDBRANCH  10  17
ENDBRANCH   1  12
BRANCH   5  21
ATOM     21  C   UNL     1      38.042  -0.231  14.839  0.00  0.00    +0.000 C 
ATOM     22  O   UNL     1      38.000  -0.112  13.631  0.00  0.00    +0.000 OA
ATOM     23  N   UNL     1      39.293  -0.660  15.378  0.00  0.00    +0.000 NA
BRANCH  23  24
ATOM     24  C   UNL     1      40.435  -0.929  14.485  0.00  0.00    +0.000 C 
BRANCH  24  25
ATOM     25  C   UNL     1      40.648  -2.421  14.388  0.00  0.00    +0.000 C 
BRANCH  25  26
ATOM     26  C   UNL     1      40.938  -2.730  12.966  0.00  0.00    +0.000 A 
ATOM     27  C   UNL     1      39.956  -2.457  12.037  0.00  0.00    +0.000 A 
ATOM     28  C   UNL     1      40.151  -2.715  10.696  0.00  0.00    +0.000 A 
ATOM     29  C   UNL     1      41.375  -3.263  10.305  0.00  0.00    +0.000 A 
ATOM     30  C   UNL     1      42.333  -3.525  11.241  0.00  0.00    +0.000 A 
ATOM     31  C   UNL     1      42.162  -3.275  12.588  0.00  0.00    +0.000 A 
ENDBRANCH  25  26
ENDBRANCH  24  25
ENDBRANCH  23  24
ENDBRANCH   5  21
TORSDOF 7
ENDMDL
MODEL 3
REMARK VINA RESULT:      -7.9      4.769      9.637
REMARK  Name = 
REMARK  7 active torsions:
REMARK  status: ('A' for Active; 'I' for Inactive)
REMARK    1  A    between atoms: O_2  and  C_3
REMARK    2  A    between atoms: C_7  and  C_8
REMARK    3  A    between atoms: N_10  and  C_11
REMARK    4  A    between atoms: C_15  and  C_16
REMARK    5  A    between atoms: N_18  and  C_19
REMARK    6  A    between atoms: C_19  and  C_20
REMARK    7  A    between atoms: C_20  and  C_21
REMARK                            x       y       z     vdW  Elec       q    Type
REMARK                         _______ _______ _______ _____ _____    ______ ____
ROOT
ATOM      1  C   UNL     1      36.828   6.994  14.715  0.00  0.00    +0.000 A 
ATOM      2  S   UNL     1      36.712   8.654  14.128  0.00  0.00    +0.000 S 
ATOM      3  C   UNL     1      35.842   8.391  12.714  0.00  0.00    +0.000 A 
ATOM      4  C   UNL     1      35.654   7.054  12.710  0.00  0.00    +0.000 A 
ATOM      5  C   UNL     1      36.158   6.317  13.739  0.00  0.00    +0.000 A 
ATOM      6  C   UNL     1      34.858   6.470  11.516  0.00  0.00    +0.000 C 
ATOM      7  C   UNL     1      33.856   7.527  11.111  0.00  0.00    +0.000 C 
ATOM      8  C   UNL     1      34.716   8.660  10.533  0.00  0.00    +0.000 C 
ATOM      9  C   UNL     1      35.353   9.353  11.668  0.00  0.00    +0.000 C 
ENDROOT
BRANCH   1  12
ATOM     10  C   UNL     1      38.135   6.047  16.751  0.00  0.00    +0.000 C 
ATOM     11  O   UNL     1      38.345   4.844  16.494  0.00  0.00    +0.000 OA
ATOM     12  N   UNL     1      37.484   6.785  15.884  0.00  0.00    +0.000 NA
BRANCH  10  17
ATOM     13  C   UNL     1      38.573   7.992  19.962  0.00  0.00    +0.000 A 
ATOM     14  C   UNL     1      39.678   7.401  20.494  0.00  0.00    +0.000 A 
ATOM     15  C   UNL     1      40.299   6.358  19.817  0.00  0.00    +0.000 A 
ATOM     16  C   UNL     1      39.782   5.940  18.609  0.00  0.00    +0.000 A 
ATOM     17  C   UNL     1      38.671   6.528  18.065  0.00  0.00    +0.000 A 
ATOM     18  C   UNL     1      38.071   7.558  18.752  0.00  0.00    +0.000 A 
BRANCH  13  20
ATOM     19  C   UNL     1      38.694  10.186  21.043  0.00  0.00    +0.000 C 
ATOM     20  O   UNL     1      37.957   9.048  20.663  0.00  0.00    +0.000 OA
ENDBRANCH  13  20
ENDBRANCH  10  17
ENDBRANCH   1  12
BRANCH   5  21
ATOM     21  C   UNL     1      36.001   4.835  13.810  0.00  0.00    +0.000 C 
ATOM     22  O   UNL     1      36.652   4.041  13.162  0.00  0.00    +0.000 OA
ATOM     23  N   UNL     1      35.027   4.271  14.690  0.00  0.00    +0.000 NA
BRANCH  23  24
ATOM     24  C   UNL     1      34.859   2.809  14.772  0.00  0.00    +0.000 C 
BRANCH  24  25
ATOM     25  C   UNL     1      35.204   2.347  16.169  0.00  0.00    +0.000 C 
BRANCH  25  26
ATOM     26  C   UNL     1      35.369   0.873  16.115  0.00  0.00    +0.000 A 
ATOM     27  C   UNL     1      36.190   0.355  15.135  0.00  0.00    +0.000 A 
ATOM     28  C   UNL     1      36.395  -1.004  15.021  0.00  0.00    +0.000 A 
ATOM     29  C   UNL     1      35.744  -1.844  15.928  0.00  0.00    +0.000 A 
ATOM     30  C   UNL     1      34.936  -1.310  16.889  0.00  0.00    +0.000 A 
ATOM     31  C   UNL     1      34.716   0.047  17.025  0.00  0.00    +0.000 A 
ENDBRANCH  25  26
ENDBRANCH  24  25
ENDBRANCH  23  24
ENDBRANCH   5  21
TORSDOF 7
ENDMDL
MODEL 4
REMARK VINA RESULT:      -7.9      2.218      7.857
REMARK  Name = 
REMARK  7 active torsions:
REMARK  status: ('A' for Active; 'I' for Inactive)
REMARK    1  A    between atoms: O_2  and  C_3
REMARK    2  A    between atoms: C_7  and  C_8
REMARK    3  A    between atoms: N_10  and  C_11
REMARK    4  A    between atoms: C_15  and  C_16
REMARK    5  A    between atoms: N_18  and  C_19
REMARK    6  A    between atoms: C_19  and  C_20
REMARK    7  A    between atoms: C_20  and  C_21
REMARK                            x       y       z     vdW  Elec       q    Type
REMARK                         _______ _______ _______ _____ _____    ______ ____
ROOT
ATOM      1  C   UNL     1      36.775   1.268  16.275  0.00  0.00    +0.000 A 
ATOM      2  S   UNL     1      35.367   1.009  17.308  0.00  0.00    +0.000 S 
ATOM      3  C   UNL     1      34.981  -0.565  16.865  0.00  0.00    +0.000 A 
ATOM      4  C   UNL     1      35.921  -0.868  15.944  0.00  0.00    +0.000 A 
ATOM      5  C   UNL     1      36.856   0.070  15.628  0.00  0.00    +0.000 A 
ATOM      6  C   UNL     1      35.853  -2.287  15.326  0.00  0.00    +0.000 C 
ATOM      7  C   UNL     1      35.314  -3.199  16.405  0.00  0.00    +0.000 C 
ATOM      8  C   UNL     1      33.859  -2.748  16.588  0.00  0.00    +0.000 C 
ATOM      9  C   UNL     1      33.882  -1.477  17.335  0.00  0.00    +0.000 C 
ENDROOT
BRANCH   1  12
ATOM     10  C   UNL     1      37.541   3.740  16.051  0.00  0.00    +0.000 C 
ATOM     11  O   UNL     1      36.725   4.284  15.280  0.00  0.00    +0.000 OA
ATOM     12  N   UNL     1      37.396   2.471  16.349  0.00  0.00    +0.000 NA
BRANCH  10  17
ATOM     13  C   UNL     1      39.735   5.765  18.369  0.00  0.00    +0.000 A 
ATOM     14  C   UNL     1      40.652   6.279  17.504  0.00  0.00    +0.000 A 
ATOM     15  C   UNL     1      40.571   5.974  16.149  0.00  0.00    +0.000 A 
ATOM     16  C   UNL     1      39.557   5.152  15.705  0.00  0.00    +0.000 A 
ATOM     17  C   UNL     1      38.630   4.631  16.568  0.00  0.00    +0.000 A 
ATOM     18  C   UNL     1      38.728   4.944  17.904  0.00  0.00    +0.000 A 
BRANCH  13  20
ATOM     19  C   UNL     1      39.357   7.319  20.224  0.00  0.00    +0.000 C 
ATOM     20  O   UNL     1      39.832   6.085  19.737  0.00  0.00    +0.000 OA
ENDBRANCH  13  20
ENDBRANCH  10  17
ENDBRANCH   1  12
BRANCH   5  21
ATOM     21  C   UNL     1      37.926  -0.180  14.619  0.00  0.00    +0.000 C 
ATOM     22  O   UNL     1      38.029   0.410  13.562  0.00  0.00    +0.000 OA
ATOM     23  N   UNL     1      38.920  -1.173  14.875  0.00  0.00    +0.000 NA
BRANCH  23  24
ATOM     24  C   UNL     1      39.984  -1.433  13.888  0.00  0.00    +0.000 C 
BRANCH  24  25
ATOM     25  C   UNL     1      41.206  -1.960  14.604  0.00  0.00    +0.000 C 
BRANCH  25  26
ATOM     26  C   UNL     1      42.339  -1.070  14.249  0.00  0.00    +0.000 A 
ATOM     27  C   UNL     1      42.091  -0.034  13.372  0.00  0.00    +0.000 A 
ATOM     28  C   UNL     1      43.092   0.837  12.995  0.00  0.00    +0.000 A 
ATOM     29  C   UNL     1      44.369   0.639  13.528  0.00  0.00    +0.000 A 
ATOM     30  C   UNL     1      44.591  -0.393  14.393  0.00  0.00    +0.000 A 
ATOM     31  C   UNL     1      43.606  -1.277  14.787  0.00  0.00    +0.000 A 
ENDBRANCH  25  26
ENDBRANCH  24  25
ENDBRANCH  23  24
ENDBRANCH   5  21
TORSDOF 7
ENDMDL
MODEL 5
REMARK VINA RESULT:      -7.8     22.680     27.758
REMARK  Name = 
REMARK  7 active torsions:
REMARK  status: ('A' for Active; 'I' for Inactive)
REMARK    1  A    between atoms: O_2  and  C_3
REMARK    2  A    between atoms: C_7  and  C_8
REMARK    3  A    between atoms: N_10  and  C_11
REMARK    4  A    between atoms: C_15  and  C_16
REMARK    5  A    between atoms: N_18  and  C_19
REMARK    6  A    between atoms: C_19  and  C_20
REMARK    7  A    between atoms: C_20  and  C_21
REMARK                            x       y       z     vdW  Elec       q    Type
REMARK                         _______ _______ _______ _____ _____    ______ ____
ROOT
ATOM      1  C   UNL     1      11.941  -0.794  26.972  0.00  0.00    +0.000 A 
ATOM      2  S   UNL     1      10.426  -0.137  26.347  0.00  0.00    +0.000 S 
ATOM      3  C   UNL     1      10.726   1.503  26.556  0.00  0.00    +0.000 A 
ATOM      4  C   UNL     1      11.964   1.527  27.093  0.00  0.00    +0.000 A 
ATOM      5  C   UNL     1      12.606   0.346  27.315  0.00  0.00    +0.000 A 
ATOM      6  C   UNL     1      12.556   2.924  27.407  0.00  0.00    +0.000 C 
ATOM      7  C   UNL     1      12.003   3.867  26.363  0.00  0.00    +0.000 C 
ATOM      8  C   UNL     1      10.507   3.959  26.693  0.00  0.00    +0.000 C 
ATOM      9  C   UNL     1       9.879   2.704  26.241  0.00  0.00    +0.000 C 
ENDROOT
BRANCH   1  12
ATOM     10  C   UNL     1      12.107  -3.322  26.396  0.00  0.00    +0.000 C 
ATOM     11  O   UNL     1      11.873  -3.412  25.174  0.00  0.00    +0.000 OA
ATOM     12  N   UNL     1      12.091  -2.142  26.969  0.00  0.00    +0.000 NA
BRANCH  10  17
ATOM     13  C   UNL     1      12.649  -7.002  27.069  0.00  0.00    +0.000 A 
ATOM     14  C   UNL     1      12.922  -7.002  28.403  0.00  0.00    +0.000 A 
ATOM     15  C   UNL     1      12.934  -5.802  29.107  0.00  0.00    +0.000 A 
ATOM     16  C   UNL     1      12.667  -4.628  28.436  0.00  0.00    +0.000 A 
ATOM     17  C   UNL     1      12.392  -4.618  27.094  0.00  0.00    +0.000 A 
ATOM     18  C   UNL     1      12.385  -5.815  26.417  0.00  0.00    +0.000 A 
BRANCH  13  20
ATOM     19  C   UNL     1      13.820  -8.988  26.243  0.00  0.00    +0.000 C 
ATOM     20  O   UNL     1      12.642  -8.226  26.373  0.00  0.00    +0.000 OA
ENDBRANCH  13  20
ENDBRANCH  10  17
ENDBRANCH   1  12
BRANCH   5  21
ATOM     21  C   UNL     1      13.973   0.281  27.909  0.00  0.00    +0.000 C 
ATOM     22  O   UNL     1      14.204   0.207  29.099  0.00  0.00    +0.000 OA
ATOM     23  N   UNL     1      15.116   0.305  27.053  0.00  0.00    +0.000 NA
BRANCH  23  24
ATOM     24  C   UNL     1      16.474   0.242  27.624  0.00  0.00    +0.000 C 
BRANCH  24  25
ATOM     25  C   UNL     1      17.371   1.202  26.878  0.00  0.00    +0.000 C 
BRANCH  25  26
ATOM     26  C   UNL     1      18.147   0.402  25.897  0.00  0.00    +0.000 A 
ATOM     27  C   UNL     1      18.792   1.080  24.884  0.00  0.00    +0.000 A 
ATOM     28  C   UNL     1      19.534   0.409  23.935  0.00  0.00    +0.000 A 
ATOM     29  C   UNL     1      19.613  -0.983  24.029  0.00  0.00    +0.000 A 
ATOM     30  C   UNL     1      18.967  -1.634  25.040  0.00  0.00    +0.000 A 
ATOM     31  C   UNL     1      18.220  -0.984  26.002  0.00  0.00    +0.000 A 
ENDBRANCH  25  26
ENDBRANCH  24  25
ENDBRANCH  23  24
ENDBRANCH   5  21
TORSDOF 7
ENDMDL
MODEL 6
REMARK VINA RESULT:      -7.7      4.524      9.711
REMARK  Name = 
REMARK  7 active torsions:
REMARK  status: ('A' for Active; 'I' for Inactive)
REMARK    1  A    between atoms: O_2  and  C_3
REMARK    2  A    between atoms: C_7  and  C_8
REMARK    3  A    between atoms: N_10  and  C_11
REMARK    4  A    between atoms: C_15  and  C_16
REMARK    5  A    between atoms: N_18  and  C_19
REMARK    6  A    between atoms: C_19  and  C_20
REMARK    7  A    between atoms: C_20  and  C_21
REMARK                            x       y       z     vdW  Elec       q    Type
REMARK                         _______ _______ _______ _____ _____    ______ ____
ROOT
ATOM      1  C   UNL     1      37.306   6.575  14.961  0.00  0.00    +0.000 A 
ATOM      2  S   UNL     1      37.065   8.275  14.548  0.00  0.00    +0.000 S 
ATOM      3  C   UNL     1      35.958   8.104  13.296  0.00  0.00    +0.000 A 
ATOM      4  C   UNL     1      35.789   6.767  13.210  0.00  0.00    +0.000 A 
ATOM      5  C   UNL     1      36.480   5.962  14.065  0.00  0.00    +0.000 A 
ATOM      6  C   UNL     1      34.798   6.261  12.132  0.00  0.00    +0.000 C 
ATOM      7  C   UNL     1      33.726   7.320  12.005  0.00  0.00    +0.000 C 
ATOM      8  C   UNL     1      34.453   8.519  11.382  0.00  0.00    +0.000 C 
ATOM      9  C   UNL     1      35.276   9.134  12.440  0.00  0.00    +0.000 C 
ENDROOT
BRANCH   1  12
ATOM     10  C   UNL     1      38.708   5.497  16.864  0.00  0.00    +0.000 C 
ATOM     11  O   UNL     1      38.319   4.314  16.948  0.00  0.00    +0.000 OA
ATOM     12  N   UNL     1      38.165   6.289  15.971  0.00  0.00    +0.000 NA
BRANCH  10  17
ATOM     13  C   UNL     1      42.061   6.504  18.289  0.00  0.00    +0.000 A 
ATOM     14  C   UNL     1      41.776   6.614  19.615  0.00  0.00    +0.000 A 
ATOM     15  C   UNL     1      40.485   6.362  20.069  0.00  0.00    +0.000 A 
ATOM     16  C   UNL     1      39.513   6.002  19.160  0.00  0.00    +0.000 A 
ATOM     17  C   UNL     1      39.790   5.889  17.824  0.00  0.00    +0.000 A 
ATOM     18  C   UNL     1      41.073   6.143  17.396  0.00  0.00    +0.000 A 
BRANCH  13  20
ATOM     19  C   UNL     1      44.413   6.984  18.773  0.00  0.00    +0.000 C 
ATOM     20  O   UNL     1      43.373   6.763  17.848  0.00  0.00    +0.000 OA
ENDBRANCH  13  20
ENDBRANCH  10  17
ENDBRANCH   1  12
BRANCH   5  21
ATOM     21  C   UNL     1      36.356   4.476  14.037  0.00  0.00    +0.000 C 
ATOM     22  O   UNL     1      37.038   3.741  13.351  0.00  0.00    +0.000 OA
ATOM     23  N   UNL     1      35.381   3.833  14.858  0.00  0.00    +0.000 NA
BRANCH  23  24
ATOM     24  C   UNL     1      35.246   2.365  14.842  0.00  0.00    +0.000 C 
BRANCH  24  25
ATOM     25  C   UNL     1      35.158   1.859  16.262  0.00  0.00    +0.000 C 
BRANCH  25  26
ATOM     26  C   UNL     1      35.312   0.383  16.212  0.00  0.00    +0.000 A 
ATOM     27  C   UNL     1      36.145  -0.142  15.246  0.00  0.00    +0.000 A 
ATOM     28  C   UNL     1      36.341  -1.503  15.136  0.00  0.00    +0.000 A 
ATOM     29  C   UNL     1      35.668  -2.337  16.033  0.00  0.00    +0.000 A 
ATOM     30  C   UNL     1      34.848  -1.795  16.980  0.00  0.00    +0.000 A 
ATOM     31  C   UNL     1      34.637  -0.437  17.111  0.00  0.00    +0.000 A 
ENDBRANCH  25  26
ENDBRANCH  24  25
ENDBRANCH  23  24
ENDBRANCH   5  21
TORSDOF 7
ENDMDL
MODEL 7
REMARK VINA RESULT:      -7.6     22.326     27.630
REMARK  Name = 
REMARK  7 active torsions:
REMARK  status: ('A' for Active; 'I' for Inactive)
REMARK    1  A    between atoms: O_2  and  C_3
REMARK    2  A    between atoms: C_7  and  C_8
REMARK    3  A    between atoms: N_10  and  C_11
REMARK    4  A    between atoms: C_15  and  C_16
REMARK    5  A    between atoms: N_18  and  C_19
REMARK    6  A    between atoms: C_19  and  C_20
REMARK    7  A    between atoms: C_20  and  C_21
REMARK                            x       y       z     vdW  Elec       q    Type
REMARK                         _______ _______ _______ _____ _____    ______ ____
ROOT
ATOM      1  C   UNL     1      11.617  -0.718  26.043  0.00  0.00    +0.000 A 
ATOM      2  S   UNL     1      10.141   0.166  25.646  0.00  0.00    +0.000 S 
ATOM      3  C   UNL     1      10.553   1.681  26.244  0.00  0.00    +0.000 A 
ATOM      4  C   UNL     1      11.797   1.495  26.735  0.00  0.00    +0.000 A 
ATOM      5  C   UNL     1      12.361   0.259  26.638  0.00  0.00    +0.000 A 
ATOM      6  C   UNL     1      12.485   2.730  27.366  0.00  0.00    +0.000 C 
ATOM      7  C   UNL     1      11.983   3.936  26.605  0.00  0.00    +0.000 C 
ATOM      8  C   UNL     1      10.500   4.035  26.992  0.00  0.00    +0.000 C 
ATOM      9  C   UNL     1       9.784   2.973  26.262  0.00  0.00    +0.000 C 
ENDROOT
BRANCH   1  12
ATOM     10  C   UNL     1      12.085  -3.266  25.854  0.00  0.00    +0.000 C 
ATOM     11  O   UNL     1      12.853  -3.545  26.797  0.00  0.00    +0.000 OA
ATOM     12  N   UNL     1      11.676  -2.029  25.702  0.00  0.00    +0.000 NA
BRANCH  10  17
ATOM     13  C   UNL     1      11.130  -5.315  22.824  0.00  0.00    +0.000 A 
ATOM     14  C   UNL     1      10.998  -6.558  23.362  0.00  0.00    +0.000 A 
ATOM     15  C   UNL     1      11.217  -6.751  24.721  0.00  0.00    +0.000 A 
ATOM     16  C   UNL     1      11.567  -5.671  25.504  0.00  0.00    +0.000 A 
ATOM     17  C   UNL     1      11.703  -4.417  24.973  0.00  0.00    +0.000 A 
ATOM     18  C   UNL     1      11.481  -4.248  23.626  0.00  0.00    +0.000 A 
BRANCH  13  20
ATOM     19  C   UNL     1      11.369  -6.086  20.512  0.00  0.00    +0.000 C 
ATOM     20  O   UNL     1      10.904  -5.138  21.445  0.00  0.00    +0.000 OA
ENDBRANCH  13  20
ENDBRANCH  10  17
ENDBRANCH   1  12
BRANCH   5  21
ATOM     21  C   UNL     1      13.728  -0.036  27.157  0.00  0.00    +0.000 C 
ATOM     22  O   UNL     1      13.982  -0.312  28.312  0.00  0.00    +0.000 OA
ATOM     23  N   UNL     1      14.844  -0.002  26.266  0.00  0.00    +0.000 NA
BRANCH  23  24
ATOM     24  C   UNL     1      16.202  -0.290  26.763  0.00  0.00    +0.000 C 
BRANCH  24  25
ATOM     25  C   UNL     1      17.143   0.793  26.291  0.00  0.00    +0.000 C 
BRANCH  25  26
ATOM     26  C   UNL     1      18.114   0.157  25.366  0.00  0.00    +0.000 A 
ATOM     27  C   UNL     1      18.935   0.985  24.629  0.00  0.00    +0.000 A 
ATOM     28  C   UNL     1      19.864   0.470  23.749  0.00  0.00    +0.000 A 
ATOM     29  C   UNL     1      19.948  -0.919  23.624  0.00  0.00    +0.000 A 
ATOM     30  C   UNL     1      19.126  -1.720  24.362  0.00  0.00    +0.000 A 
ATOM     31  C   UNL     1      18.189  -1.228  25.250  0.00  0.00    +0.000 A 
ENDBRANCH  25  26
ENDBRANCH  24  25
ENDBRANCH  23  24
ENDBRANCH   5  21
TORSDOF 7
ENDMDL
MODEL 8
REMARK VINA RESULT:      -7.6      3.306      6.012
REMARK  Name = 
REMARK  7 active torsions:
REMARK  status: ('A' for Active; 'I' for Inactive)
REMARK    1  A    between atoms: O_2  and  C_3
REMARK    2  A    between atoms: C_7  and  C_8
REMARK    3  A    between atoms: N_10  and  C_11
REMARK    4  A    between atoms: C_15  and  C_16
REMARK    5  A    between atoms: N_18  and  C_19
REMARK    6  A    between atoms: C_19  and  C_20
REMARK    7  A    between atoms: C_20  and  C_21
REMARK                            x       y       z     vdW  Elec       q    Type
REMARK                         _______ _______ _______ _____ _____    ______ ____
ROOT
ATOM      1  C   UNL     1      39.427  -0.167  13.765  0.00  0.00    +0.000 A 
ATOM      2  S   UNL     1      40.620   0.562  12.686  0.00  0.00    +0.000 S 
ATOM      3  C   UNL     1      41.606  -0.771  12.416  0.00  0.00    +0.000 A 
ATOM      4  C   UNL     1      41.018  -1.744  13.145  0.00  0.00    +0.000 A 
ATOM      5  C   UNL     1      39.890  -1.447  13.848  0.00  0.00    +0.000 A 
ATOM      6  C   UNL     1      41.690  -3.140  13.106  0.00  0.00    +0.000 C 
ATOM      7  C   UNL     1      42.303  -3.282  11.732  0.00  0.00    +0.000 C 
ATOM      8  C   UNL     1      43.449  -2.261  11.723  0.00  0.00    +0.000 C 
ATOM      9  C   UNL     1      42.846  -0.923  11.581  0.00  0.00    +0.000 C 
ENDROOT
BRANCH   1  12
ATOM     10  C   UNL     1      37.574   1.041  15.127  0.00  0.00    +0.000 C 
ATOM     11  O   UNL     1      37.574   0.507  16.255  0.00  0.00    +0.000 OA
ATOM     12  N   UNL     1      38.423   0.624  14.218  0.00  0.00    +0.000 NA
BRANCH  10  17
ATOM     13  C   UNL     1      35.857   4.166  13.870  0.00  0.00    +0.000 A 
ATOM     14  C   UNL     1      34.703   4.156  14.591  0.00  0.00    +0.000 A 
ATOM     15  C   UNL     1      34.464   3.131  15.500  0.00  0.00    +0.000 A 
ATOM     16  C   UNL     1      35.407   2.137  15.654  0.00  0.00    +0.000 A 
ATOM     17  C   UNL     1      36.571   2.138  14.934  0.00  0.00    +0.000 A 
ATOM     18  C   UNL     1      36.788   3.161  14.040  0.00  0.00    +0.000 A 
BRANCH  13  20
ATOM     19  C   UNL     1      35.618   6.515  13.220  0.00  0.00    +0.000 C 
ATOM     20  O   UNL     1      36.083   5.212  12.954  0.00  0.00    +0.000 OA
ENDBRANCH  13  20
ENDBRANCH  10  17
ENDBRANCH   1  12
BRANCH   5  21
ATOM     21  C   UNL     1      39.181  -2.460  14.683  0.00  0.00    +0.000 C 
ATOM     22  O   UNL     1      38.282  -3.173  14.284  0.00  0.00    +0.000 OA
ATOM     23  N   UNL     1      39.554  -2.635  16.050  0.00  0.00    +0.000 NA
BRANCH  23  24
ATOM     24  C   UNL     1      38.863  -3.631  16.888  0.00  0.00    +0.000 C 
BRANCH  24  25
ATOM     25  C   UNL     1      38.632  -3.049  18.263  0.00  0.00    +0.000 C 
BRANCH  25  26
ATOM     26  C   UNL     1      37.340  -2.319  18.218  0.00  0.00    +0.000 A 
ATOM     27  C   UNL     1      37.153  -1.290  19.118  0.00  0.00    +0.000 A 
ATOM     28  C   UNL     1      35.980  -0.564  19.137  0.00  0.00    +0.000 A 
ATOM     29  C   UNL     1      34.985  -0.902  18.217  0.00  0.00    +0.000 A 
ATOM     30  C   UNL     1      35.192  -1.923  17.335  0.00  0.00    +0.000 A 
ATOM     31  C   UNL     1      36.356  -2.663  17.296  0.00  0.00    +0.000 A 
ENDBRANCH  25  26
ENDBRANCH  24  25
ENDBRANCH  23  24
ENDBRANCH   5  21
TORSDOF 7
ENDMDL
MODEL 9
REMARK VINA RESULT:      -7.6      3.722      5.927
REMARK  Name = 
REMARK  7 active torsions:
REMARK  status: ('A' for Active; 'I' for Inactive)
REMARK    1  A    between atoms: O_2  and  C_3
REMARK    2  A    between atoms: C_7  and  C_8
REMARK    3  A    between atoms: N_10  and  C_11
REMARK    4  A    between atoms: C_15  and  C_16
REMARK    5  A    between atoms: N_18  and  C_19
REMARK    6  A    between atoms: C_19  and  C_20
REMARK    7  A    between atoms: C_20  and  C_21
REMARK                            x       y       z     vdW  Elec       q    Type
REMARK                         _______ _______ _______ _____ _____    ______ ____
ROOT
ATOM      1  C   UNL     1      36.414   3.860  15.243  0.00  0.00    +0.000 A 
ATOM      2  S   UNL     1      35.270   4.474  14.046  0.00  0.00    +0.000 S 
ATOM      3  C   UNL     1      35.900   6.016  13.822  0.00  0.00    +0.000 A 
ATOM      4  C   UNL     1      36.963   6.041  14.655  0.00  0.00    +0.000 A 
ATOM      5  C   UNL     1      37.242   4.933  15.397  0.00  0.00    +0.000 A 
ATOM      6  C   UNL     1      37.789   7.351  14.683  0.00  0.00    +0.000 C 
ATOM      7  C   UNL     1      37.716   7.935  13.291  0.00  0.00    +0.000 C 
ATOM      8  C   UNL     1      36.250   8.363  13.139  0.00  0.00    +0.000 C 
ATOM      9  C   UNL     1      35.452   7.141  12.931  0.00  0.00    +0.000 C 
ENDROOT
BRANCH   1  12
ATOM     10  C   UNL     1      36.253   1.658  16.611  0.00  0.00    +0.000 C 
ATOM     11  O   UNL     1      36.616   1.946  17.769  0.00  0.00    +0.000 OA
ATOM     12  N   UNL     1      36.234   2.593  15.692  0.00  0.00    +0.000 NA
BRANCH  10  17
ATOM     13  C   UNL     1      36.051  -1.840  15.192  0.00  0.00    +0.000 A 
ATOM     14  C   UNL     1      35.134  -2.419  16.014  0.00  0.00    +0.000 A 
ATOM     15  C   UNL     1      34.566  -1.681  17.047  0.00  0.00    +0.000 A 
ATOM     16  C   UNL     1      34.944  -0.366  17.218  0.00  0.00    +0.000 A 
ATOM     17  C   UNL     1      35.865   0.226  16.395  0.00  0.00    +0.000 A 
ATOM     18  C   UNL     1      36.415  -0.522  15.381  0.00  0.00    +0.000 A 
BRANCH  13  20
ATOM     19  C   UNL     1      37.885  -3.197  14.302  0.00  0.00    +0.000 C 
ATOM     20  O   UNL     1      36.616  -2.604  14.151  0.00  0.00    +0.000 OA
ENDBRANCH  13  20
ENDBRANCH  10  17
ENDBRANCH   1  12
BRANCH   5  21
ATOM     21  C   UNL     1      38.392   4.877  16.344  0.00  0.00    +0.000 C 
ATOM     22  O   UNL     1      39.542   4.657  16.020  0.00  0.00    +0.000 OA
ATOM     23  N   UNL     1      38.170   5.092  17.738  0.00  0.00    +0.000 NA
BRANCH  23  24
ATOM     24  C   UNL     1      39.296   5.040  18.688  0.00  0.00    +0.000 C 
BRANCH  24  25
ATOM     25  C   UNL     1      39.613   6.440  19.160  0.00  0.00    +0.000 C 
BRANCH  25  26
ATOM     26  C   UNL     1      41.091   6.565  19.196  0.00  0.00    +0.000 A 
ATOM     27  C   UNL     1      41.757   6.660  17.992  0.00  0.00    +0.000 A 
ATOM     28  C   UNL     1      43.130   6.780  17.943  0.00  0.00    +0.000 A 
ATOM     29  C   UNL     1      43.830   6.803  19.152  0.00  0.00    +0.000 A 
ATOM     30  C   UNL     1      43.151   6.708  20.332  0.00  0.00    +0.000 A 
ATOM     31  C   UNL     1      41.777   6.588  20.407  0.00  0.00    +0.000 A 
ENDBRANCH  25  26
ENDBRANCH  24  25
ENDBRANCH  23  24
ENDBRANCH   5  21
TORSDOF 7
ENDMDL
MODEL 10
REMARK VINA RESULT:      -7.5      4.756      8.858
REMARK  Name = 
REMARK  7 active torsions:
REMARK  status: ('A' for Active; 'I' for Inactive)
REMARK    1  A    between atoms: O_2  and  C_3
REMARK    2  A    between atoms: C_7  and  C_8
REMARK    3  A    between atoms: N_10  and  C_11
REMARK    4  A    between atoms: C_15  and  C_16
REMARK    5  A    between atoms: N_18  and  C_19
REMARK    6  A    between atoms: C_19  and  C_20
REMARK    7  A    between atoms: C_20  and  C_21
REMARK                            x       y       z     vdW  Elec       q    Type
REMARK                         _______ _______ _______ _____ _____    ______ ____
ROOT
ATOM      1  C   UNL     1      37.209   6.166  15.228  0.00  0.00    +0.000 A 
ATOM      2  S   UNL     1      37.655   7.711  15.958  0.00  0.00    +0.000 S 
ATOM      3  C   UNL     1      38.378   7.155  17.369  0.00  0.00    +0.000 A 
ATOM      4  C   UNL     1      38.270   5.813  17.266  0.00  0.00    +0.000 A 
ATOM      5  C   UNL     1      37.668   5.286  16.164  0.00  0.00    +0.000 A 
ATOM      6  C   UNL     1      38.862   4.980  18.430  0.00  0.00    +0.000 C 
ATOM      7  C   UNL     1      40.049   5.756  18.953  0.00  0.00    +0.000 C 
ATOM      8  C   UNL     1      39.429   7.003  19.598  0.00  0.00    +0.000 C 
ATOM      9  C   UNL     1      39.013   7.903  18.507  0.00  0.00    +0.000 C 
ENDROOT
BRANCH   1  12
ATOM     10  C   UNL     1      35.530   6.333  13.253  0.00  0.00    +0.000 C 
ATOM     11  O   UNL     1      34.419   6.574  13.767  0.00  0.00    +0.000 OA
ATOM     12  N   UNL     1      36.580   6.196  14.028  0.00  0.00    +0.000 NA
BRANCH  10  17
ATOM     13  C   UNL     1      34.718   6.881   9.602  0.00  0.00    +0.000 A 
ATOM     14  C   UNL     1      35.571   6.011   8.996  0.00  0.00    +0.000 A 
ATOM     15  C   UNL     1      36.426   5.230   9.766  0.00  0.00    +0.000 A 
ATOM     16  C   UNL     1      36.393   5.352  11.138  0.00  0.00    +0.000 A 
ATOM     17  C   UNL     1      35.539   6.225  11.758  0.00  0.00    +0.000 A 
ATOM     18  C   UNL     1      34.701   6.988  10.978  0.00  0.00    +0.000 A 
BRANCH  13  20
ATOM     19  C   UNL     1      34.378   8.521   7.816  0.00  0.00    +0.000 C 
ATOM     20  O   UNL     1      33.859   7.664   8.806  0.00  0.00    +0.000 OA
ENDBRANCH  13  20
ENDBRANCH  10  17
ENDBRANCH   1  12
BRANCH   5  21
ATOM     21  C   UNL     1      37.503   3.816  15.972  0.00  0.00    +0.000 C 
ATOM     22  O   UNL     1      38.418   3.036  15.801  0.00  0.00    +0.000 OA
ATOM     23  N   UNL     1      36.194   3.245  15.985  0.00  0.00    +0.000 NA
BRANCH  23  24
ATOM     24  C   UNL     1      36.014   1.794  15.796  0.00  0.00    +0.000 C 
BRANCH  24  25
ATOM     25  C   UNL     1      35.067   1.271  16.851  0.00  0.00    +0.000 C 
BRANCH  25  26
ATOM     26  C   UNL     1      35.692   0.059  17.438  0.00  0.00    +0.000 A 
ATOM     27  C   UNL     1      35.816  -1.053  16.632  0.00  0.00    +0.000 A 
ATOM     28  C   UNL     1      36.387  -2.216  17.105  0.00  0.00    +0.000 A 
ATOM     29  C   UNL     1      36.838  -2.235  18.427  0.00  0.00    +0.000 A 
ATOM     30  C   UNL     1      36.705  -1.123  19.207  0.00  0.00    +0.000 A 
ATOM     31  C   UNL     1      36.138   0.053  18.757  0.00  0.00    +0.000 A 
ENDBRANCH  25  26
ENDBRANCH  24  25
ENDBRANCH  23  24
ENDBRANCH   5  21
TORSDOF 7
ENDMDL
