MODEL 1
REMARK VINA RESULT:      -7.7      0.000      0.000
REMARK  Name = 
REMARK  8 active torsions:
REMARK  status: ('A' for Active; 'I' for Inactive)
REMARK    1  A    between atoms: C_6  and  O_7
REMARK    2  A    between atoms: O_7  and  C_8
REMARK    3  A    between atoms: C_8  and  C_9
REMARK    4  A    between atoms: C_9  and  N_10
REMARK    5  A    between atoms: C_11  and  C_13
REMARK    6  A    between atoms: C_18  and  S_19
REMARK    7  A    between atoms: S_19  and  C_20
REMARK    8  A    between atoms: C_25  and  C_26
REMARK                            x       y       z     vdW  Elec       q    Type
REMARK                         _______ _______ _______ _____ _____    ______ ____
ROOT
ATOM      1  N   UNL     1      39.009   2.257  15.212  0.00  0.00    +0.000 NA
ATOM      2  C   UNL     1      39.076   1.310  14.129  0.00  0.00    +0.000 C 
ATOM      3  O   UNL     1      38.540   1.667  13.067  0.00  0.00    +0.000 OA
ENDROOT
BRANCH   2   4
ATOM      4  C   UNL     1      39.742   0.035  14.327  0.00  0.00    +0.000 A 
ATOM      5  C   UNL     1      41.145  -0.009  14.236  0.00  0.00    +0.000 A 
ATOM      6  C   UNL     1      41.790  -1.196  14.455  0.00  0.00    +0.000 A 
ATOM      7  C   UNL     1      41.088  -2.327  14.759  0.00  0.00    +0.000 A 
ATOM      8  C   UNL     1      39.719  -2.324  14.857  0.00  0.00    +0.000 A 
ATOM      9  C   UNL     1      39.053  -1.106  14.632  0.00  0.00    +0.000 A 
BRANCH   9  10
ATOM     10  S   UNL     1      37.265  -1.047  14.769  0.00  0.00    +0.000 S 
BRANCH  10  11
ATOM     11  C   UNL     1      36.769  -0.672  16.433  0.00  0.00    +0.000 A 
ATOM     12  C   UNL     1      37.159  -1.444  17.484  0.00  0.00    +0.000 A 
ATOM     13  C   UNL     1      36.795  -1.189  18.806  0.00  0.00    +0.000 A 
ATOM     14  C   UNL     1      36.003  -0.102  19.040  0.00  0.00    +0.000 A 
ATOM     15  C   UNL     1      35.593   0.696  17.992  0.00  0.00    +0.000 A 
ATOM     16  C   UNL     1      35.960   0.436  16.678  0.00  0.00    +0.000 A 
BRANCH  16  17
ATOM     17  C   UNL     1      35.511   1.290  15.630  0.00  0.00    +0.000 C 
ATOM     18  N   UNL     1      35.127   1.979  14.767  0.00  0.00    +0.000 NA
ENDBRANCH  16  17
ENDBRANCH  10  11
ENDBRANCH   9  10
ENDBRANCH   2   4
BRANCH   1  19
ATOM     19  C   UNL     1      38.360   3.535  15.071  0.00  0.00    +0.000 C 
BRANCH  19  20
ATOM     20  C   UNL     1      38.474   4.316  16.313  0.00  0.00    +0.000 C 
BRANCH  20  21
ATOM     21  O   UNL     1      38.972   5.596  16.211  0.00  0.00    +0.000 OA
BRANCH  21  27
ATOM     22  C   UNL     1      44.083   7.076  18.077  0.00  0.00    +0.000 C 
ATOM     23  C   UNL     1      42.710   6.686  17.663  0.00  0.00    +0.000 A 
ATOM     24  C   UNL     1      41.701   6.481  18.555  0.00  0.00    +0.000 A 
ATOM     25  C   UNL     1      40.431   6.117  18.117  0.00  0.00    +0.000 A 
ATOM     26  C   UNL     1      39.336   5.936  19.126  0.00  0.00    +0.000 C 
ATOM     27  C   UNL     1      40.170   5.958  16.801  0.00  0.00    +0.000 A 
ATOM     28  C   UNL     1      41.219   6.172  15.887  0.00  0.00    +0.000 A 
ATOM     29  C   UNL     1      40.947   6.002  14.425  0.00  0.00    +0.000 C 
ATOM     30  C   UNL     1      42.468   6.531  16.317  0.00  0.00    +0.000 A 
ENDBRANCH  21  27
ENDBRANCH  20  21
ENDBRANCH  19  20
ENDBRANCH   1  19
TORSDOF 8
ENDMDL
MODEL 2
REMARK VINA RESULT:      -7.4      1.369      3.884
REMARK  Name = 
REMARK  8 active torsions:
REMARK  status: ('A' for Active; 'I' for Inactive)
REMARK    1  A    between atoms: C_6  and  O_7
REMARK    2  A    between atoms: O_7  and  C_8
REMARK    3  A    between atoms: C_8  and  C_9
REMARK    4  A    between atoms: C_9  and  N_10
REMARK    5  A    between atoms: C_11  and  C_13
REMARK    6  A    between atoms: C_18  and  S_19
REMARK    7  A    between atoms: S_19  and  C_20
REMARK    8  A    between atoms: C_25  and  C_26
REMARK                            x       y       z     vdW  Elec       q    Type
REMARK                         _______ _______ _______ _____ _____    ______ ____
ROOT
ATOM      1  N   UNL     1      37.212   2.584  16.201  0.00  0.00    +0.000 NA
ATOM      2  C   UNL     1      36.050   1.958  15.627  0.00  0.00    +0.000 C 
ATOM      3  O   UNL     1      35.366   2.675  14.878  0.00  0.00    +0.000 OA
ENDROOT
BRANCH   2   4
ATOM      4  C   UNL     1      35.749   0.572  15.940  0.00  0.00    +0.000 A 
ATOM      5  C   UNL     1      34.882   0.301  17.015  0.00  0.00    +0.000 A 
ATOM      6  C   UNL     1      34.562  -0.998  17.301  0.00  0.00    +0.000 A 
ATOM      7  C   UNL     1      35.072  -2.023  16.558  0.00  0.00    +0.000 A 
ATOM      8  C   UNL     1      35.920  -1.800  15.503  0.00  0.00    +0.000 A 
ATOM      9  C   UNL     1      36.252  -0.465  15.206  0.00  0.00    +0.000 A 
BRANCH   9  10
ATOM     10  S   UNL     1      37.341  -0.121  13.823  0.00  0.00    +0.000 S 
BRANCH  10  11
ATOM     11  C   UNL     1      38.976  -0.743  14.132  0.00  0.00    +0.000 A 
ATOM     12  C   UNL     1      39.194  -2.052  14.437  0.00  0.00    +0.000 A 
ATOM     13  C   UNL     1      40.458  -2.587  14.687  0.00  0.00    +0.000 A 
ATOM     14  C   UNL     1      41.523  -1.735  14.620  0.00  0.00    +0.000 A 
ATOM     15  C   UNL     1      41.329  -0.404  14.314  0.00  0.00    +0.000 A 
ATOM     16  C   UNL     1      40.068   0.121  14.066  0.00  0.00    +0.000 A 
BRANCH  16  17
ATOM     17  C   UNL     1      39.918   1.503  13.754  0.00  0.00    +0.000 C 
ATOM     18  N   UNL     1      39.791   2.633  13.480  0.00  0.00    +0.000 NA
ENDBRANCH  16  17
ENDBRANCH  10  11
ENDBRANCH   9  10
ENDBRANCH   2   4
BRANCH   1  19
ATOM     19  C   UNL     1      37.558   3.954  15.925  0.00  0.00    +0.000 C 
BRANCH  19  20
ATOM     20  C   UNL     1      38.537   4.452  16.905  0.00  0.00    +0.000 C 
BRANCH  20  21
ATOM     21  O   UNL     1      39.042   5.718  16.706  0.00  0.00    +0.000 OA
BRANCH  21  27
ATOM     22  C   UNL     1      44.334   7.143  18.030  0.00  0.00    +0.000 C 
ATOM     23  C   UNL     1      42.920   6.775  17.761  0.00  0.00    +0.000 A 
ATOM     24  C   UNL     1      41.981   6.687  18.743  0.00  0.00    +0.000 A 
ATOM     25  C   UNL     1      40.668   6.338  18.439  0.00  0.00    +0.000 A 
ATOM     26  C   UNL     1      39.653   6.286  19.542  0.00  0.00    +0.000 C 
ATOM     27  C   UNL     1      40.296   6.080  17.167  0.00  0.00    +0.000 A 
ATOM     28  C   UNL     1      41.273   6.174  16.158  0.00  0.00    +0.000 A 
ATOM     29  C   UNL     1      40.877   5.892  14.743  0.00  0.00    +0.000 C 
ATOM     30  C   UNL     1      42.564   6.517  16.456  0.00  0.00    +0.000 A 
ENDBRANCH  21  27
ENDBRANCH  20  21
ENDBRANCH  19  20
ENDBRANCH   1  19
TORSDOF 8
ENDMDL
MODEL 3
REMARK VINA RESULT:      -7.3      1.648      4.029
REMARK  Name = 
REMARK  8 active torsions:
REMARK  status: ('A' for Active; 'I' for Inactive)
REMARK    1  A    between atoms: C_6  and  O_7
REMARK    2  A    between atoms: O_7  and  C_8
REMARK    3  A    between atoms: C_8  and  C_9
REMARK    4  A    between atoms: C_9  and  N_10
REMARK    5  A    between atoms: C_11  and  C_13
REMARK    6  A    between atoms: C_18  and  S_19
REMARK    7  A    between atoms: S_19  and  C_20
REMARK    8  A    between atoms: C_25  and  C_26
REMARK                            x       y       z     vdW  Elec       q    Type
REMARK                         _______ _______ _______ _____ _____    ______ ____
ROOT
ATOM      1  N   UNL     1      37.859   2.743  16.076  0.00  0.00    +0.000 NA
ATOM      2  C   UNL     1      36.549   2.318  15.652  0.00  0.00    +0.000 C 
ATOM      3  O   UNL     1      35.932   3.116  14.928  0.00  0.00    +0.000 OA
ENDROOT
BRANCH   2   4
ATOM      4  C   UNL     1      36.040   1.027  16.076  0.00  0.00    +0.000 A 
ATOM      5  C   UNL     1      35.333   0.951  17.291  0.00  0.00    +0.000 A 
ATOM      6  C   UNL     1      34.817  -0.252  17.687  0.00  0.00    +0.000 A 
ATOM      7  C   UNL     1      34.979  -1.370  16.920  0.00  0.00    +0.000 A 
ATOM      8  C   UNL     1      35.661  -1.337  15.730  0.00  0.00    +0.000 A 
ATOM      9  C   UNL     1      36.195  -0.101  15.320  0.00  0.00    +0.000 A 
BRANCH   9  10
ATOM     10  S   UNL     1      37.077  -0.004  13.761  0.00  0.00    +0.000 S 
BRANCH  10  11
ATOM     11  C   UNL     1      38.784  -0.448  13.969  0.00  0.00    +0.000 A 
ATOM     12  C   UNL     1      39.751   0.497  14.129  0.00  0.00    +0.000 A 
ATOM     13  C   UNL     1      41.103   0.198  14.296  0.00  0.00    +0.000 A 
ATOM     14  C   UNL     1      41.457  -1.121  14.295  0.00  0.00    +0.000 A 
ATOM     15  C   UNL     1      40.497  -2.098  14.133  0.00  0.00    +0.000 A 
ATOM     16  C   UNL     1      39.153  -1.792  13.968  0.00  0.00    +0.000 A 
BRANCH  16  17
ATOM     17  C   UNL     1      38.198  -2.836  13.805  0.00  0.00    +0.000 C 
ATOM     18  N   UNL     1      37.426  -3.702  13.658  0.00  0.00    +0.000 NA
ENDBRANCH  16  17
ENDBRANCH  10  11
ENDBRANCH   9  10
ENDBRANCH   2   4
BRANCH   1  19
ATOM     19  C   UNL     1      38.414   4.013  15.685  0.00  0.00    +0.000 C 
BRANCH  19  20
ATOM     20  C   UNL     1      38.568   4.895  16.853  0.00  0.00    +0.000 C 
BRANCH  20  21
ATOM     21  O   UNL     1      39.269   6.067  16.671  0.00  0.00    +0.000 OA
BRANCH  21  27
ATOM     22  C   UNL     1      44.416   6.989  18.781  0.00  0.00    +0.000 C 
ATOM     23  C   UNL     1      43.030   6.752  18.301  0.00  0.00    +0.000 A 
ATOM     24  C   UNL     1      41.959   6.692  19.141  0.00  0.00    +0.000 A 
ATOM     25  C   UNL     1      40.679   6.468  18.643  0.00  0.00    +0.000 A 
ATOM     26  C   UNL     1      39.519   6.445  19.593  0.00  0.00    +0.000 C 
ATOM     27  C   UNL     1      40.469   6.302  17.318  0.00  0.00    +0.000 A 
ATOM     28  C   UNL     1      41.582   6.365  16.459  0.00  0.00    +0.000 A 
ATOM     29  C   UNL     1      41.368   6.185  14.988  0.00  0.00    +0.000 C 
ATOM     30  C   UNL     1      42.841   6.587  16.948  0.00  0.00    +0.000 A 
ENDBRANCH  21  27
ENDBRANCH  20  21
ENDBRANCH  19  20
ENDBRANCH   1  19
TORSDOF 8
ENDMDL
MODEL 4
REMARK VINA RESULT:      -7.2      2.561      7.909
REMARK  Name = 
REMARK  8 active torsions:
REMARK  status: ('A' for Active; 'I' for Inactive)
REMARK    1  A    between atoms: C_6  and  O_7
REMARK    2  A    between atoms: O_7  and  C_8
REMARK    3  A    between atoms: C_8  and  C_9
REMARK    4  A    between atoms: C_9  and  N_10
REMARK    5  A    between atoms: C_11  and  C_13
REMARK    6  A    between atoms: C_18  and  S_19
REMARK    7  A    between atoms: S_19  and  C_20
REMARK    8  A    between atoms: C_25  and  C_26
REMARK                            x       y       z     vdW  Elec       q    Type
REMARK                         _______ _______ _______ _____ _____    ______ ____
ROOT
ATOM      1  N   UNL     1      38.646   2.985  15.416  0.00  0.00    +0.000 NA
ATOM      2  C   UNL     1      38.620   4.422  15.333  0.00  0.00    +0.000 C 
ATOM      3  O   UNL     1      37.510   4.929  15.103  0.00  0.00    +0.000 OA
ENDROOT
BRANCH   2   4
ATOM      4  C   UNL     1      39.848   5.175  15.515  0.00  0.00    +0.000 A 
ATOM      5  C   UNL     1      40.656   5.423  14.390  0.00  0.00    +0.000 A 
ATOM      6  C   UNL     1      41.798   6.161  14.540  0.00  0.00    +0.000 A 
ATOM      7  C   UNL     1      42.157   6.655  15.761  0.00  0.00    +0.000 A 
ATOM      8  C   UNL     1      41.395   6.435  16.882  0.00  0.00    +0.000 A 
ATOM      9  C   UNL     1      40.220   5.676  16.731  0.00  0.00    +0.000 A 
BRANCH   9  10
ATOM     10  S   UNL     1      39.181   5.380  18.164  0.00  0.00    +0.000 S 
BRANCH  10  11
ATOM     11  C   UNL     1      38.797   6.902  18.995  0.00  0.00    +0.000 A 
ATOM     12  C   UNL     1      37.679   7.616  18.692  0.00  0.00    +0.000 A 
ATOM     13  C   UNL     1      37.334   8.815  19.317  0.00  0.00    +0.000 A 
ATOM     14  C   UNL     1      38.179   9.283  20.282  0.00  0.00    +0.000 A 
ATOM     15  C   UNL     1      39.320   8.579  20.607  0.00  0.00    +0.000 A 
ATOM     16  C   UNL     1      39.655   7.386  19.981  0.00  0.00    +0.000 A 
BRANCH  16  17
ATOM     17  C   UNL     1      40.845   6.695  20.351  0.00  0.00    +0.000 C 
ATOM     18  N   UNL     1      41.813   6.123  20.673  0.00  0.00    +0.000 NA
ENDBRANCH  16  17
ENDBRANCH  10  11
ENDBRANCH   9  10
ENDBRANCH   2   4
BRANCH   1  19
ATOM     19  C   UNL     1      37.459   2.188  15.244  0.00  0.00    +0.000 C 
BRANCH  19  20
ATOM     20  C   UNL     1      37.803   0.838  14.769  0.00  0.00    +0.000 C 
BRANCH  20  21
ATOM     21  O   UNL     1      36.988  -0.199  15.169  0.00  0.00    +0.000 OA
BRANCH  21  27
ATOM     22  C   UNL     1      37.559  -2.478  20.294  0.00  0.00    +0.000 C 
ATOM     23  C   UNL     1      37.343  -1.837  18.971  0.00  0.00    +0.000 A 
ATOM     24  C   UNL     1      36.304  -0.993  18.722  0.00  0.00    +0.000 A 
ATOM     25  C   UNL     1      36.143  -0.417  17.465  0.00  0.00    +0.000 A 
ATOM     26  C   UNL     1      35.008   0.537  17.238  0.00  0.00    +0.000 C 
ATOM     27  C   UNL     1      37.012  -0.682  16.465  0.00  0.00    +0.000 A 
ATOM     28  C   UNL     1      38.083  -1.556  16.731  0.00  0.00    +0.000 A 
ATOM     29  C   UNL     1      39.056  -1.860  15.635  0.00  0.00    +0.000 C 
ATOM     30  C   UNL     1      38.241  -2.122  17.968  0.00  0.00    +0.000 A 
ENDBRANCH  21  27
ENDBRANCH  20  21
ENDBRANCH  19  20
ENDBRANCH   1  19
TORSDOF 8
ENDMDL
MODEL 5
REMARK VINA RESULT:      -7.2      1.662      2.440
REMARK  Name = 
REMARK  8 active torsions:
REMARK  status: ('A' for Active; 'I' for Inactive)
REMARK    1  A    between atoms: C_6  and  O_7
REMARK    2  A    between atoms: O_7  and  C_8
REMARK    3  A    between atoms: C_8  and  C_9
REMARK    4  A    between atoms: C_9  and  N_10
REMARK    5  A    between atoms: C_11  and  C_13
REMARK    6  A    between atoms: C_18  and  S_19
REMARK    7  A    between atoms: S_19  and  C_20
REMARK    8  A    between atoms: C_25  and  C_26
REMARK                            x       y       z     vdW  Elec       q    Type
REMARK                         _______ _______ _______ _____ _____    ______ ____
ROOT
ATOM      1  N   UNL     1      38.467   2.189  14.044  0.00  0.00    +0.000 NA
ATOM      2  C   UNL     1      38.746   1.033  13.232  0.00  0.00    +0.000 C 
ATOM      3  O   UNL     1      38.389   1.110  12.045  0.00  0.00    +0.000 OA
ENDROOT
BRANCH   2   4
ATOM      4  C   UNL     1      39.404  -0.119  13.821  0.00  0.00    +0.000 A 
ATOM      5  C   UNL     1      40.798  -0.070  14.010  0.00  0.00    +0.000 A 
ATOM      6  C   UNL     1      41.428  -1.134  14.595  0.00  0.00    +0.000 A 
ATOM      7  C   UNL     1      40.722  -2.232  14.995  0.00  0.00    +0.000 A 
ATOM      8  C   UNL     1      39.362  -2.317  14.828  0.00  0.00    +0.000 A 
ATOM      9  C   UNL     1      38.711  -1.225  14.226  0.00  0.00    +0.000 A 
BRANCH   9  10
ATOM     10  S   UNL     1      36.932  -1.281  14.005  0.00  0.00    +0.000 S 
BRANCH  10  11
ATOM     11  C   UNL     1      36.092  -0.851  15.510  0.00  0.00    +0.000 A 
ATOM     12  C   UNL     1      35.769   0.439  15.801  0.00  0.00    +0.000 A 
ATOM     13  C   UNL     1      35.110   0.826  16.968  0.00  0.00    +0.000 A 
ATOM     14  C   UNL     1      34.780  -0.157  17.856  0.00  0.00    +0.000 A 
ATOM     15  C   UNL     1      35.097  -1.472  17.585  0.00  0.00    +0.000 A 
ATOM     16  C   UNL     1      35.752  -1.849  16.421  0.00  0.00    +0.000 A 
BRANCH  16  17
ATOM     17  C   UNL     1      36.058  -3.221  16.186  0.00  0.00    +0.000 C 
ATOM     18  N   UNL     1      36.305  -4.344  15.974  0.00  0.00    +0.000 NA
ENDBRANCH  16  17
ENDBRANCH  10  11
ENDBRANCH   9  10
ENDBRANCH   2   4
BRANCH   1  19
ATOM     19  C   UNL     1      37.816   3.358  13.512  0.00  0.00    +0.000 C 
BRANCH  19  20
ATOM     20  C   UNL     1      38.237   4.565  14.242  0.00  0.00    +0.000 C 
BRANCH  20  21
ATOM     21  O   UNL     1      39.395   4.483  14.983  0.00  0.00    +0.000 OA
BRANCH  21  27
ATOM     22  C   UNL     1      40.152   6.784  20.074  0.00  0.00    +0.000 C 
ATOM     23  C   UNL     1      39.888   6.137  18.763  0.00  0.00    +0.000 A 
ATOM     24  C   UNL     1      38.880   5.242  18.573  0.00  0.00    +0.000 A 
ATOM     25  C   UNL     1      38.673   4.662  17.324  0.00  0.00    +0.000 A 
ATOM     26  C   UNL     1      37.531   3.708  17.143  0.00  0.00    +0.000 C 
ATOM     27  C   UNL     1      39.466   4.973  16.275  0.00  0.00    +0.000 A 
ATOM     28  C   UNL     1      40.505   5.899  16.482  0.00  0.00    +0.000 A 
ATOM     29  C   UNL     1      41.392   6.256  15.330  0.00  0.00    +0.000 C 
ATOM     30  C   UNL     1      40.709   6.470  17.709  0.00  0.00    +0.000 A 
ENDBRANCH  21  27
ENDBRANCH  20  21
ENDBRANCH  19  20
ENDBRANCH   1  19
TORSDOF 8
ENDMDL
MODEL 6
REMARK VINA RESULT:      -7.2      1.366      2.132
REMARK  Name = 
REMARK  8 active torsions:
REMARK  status: ('A' for Active; 'I' for Inactive)
REMARK    1  A    between atoms: C_6  and  O_7
REMARK    2  A    between atoms: O_7  and  C_8
REMARK    3  A    between atoms: C_8  and  C_9
REMARK    4  A    between atoms: C_9  and  N_10
REMARK    5  A    between atoms: C_11  and  C_13
REMARK    6  A    between atoms: C_18  and  S_19
REMARK    7  A    between atoms: S_19  and  C_20
REMARK    8  A    between atoms: C_25  and  C_26
REMARK                            x       y       z     vdW  Elec       q    Type
REMARK                         _______ _______ _______ _____ _____    ______ ____
ROOT
ATOM      1  N   UNL     1      39.585   2.816  13.311  0.00  0.00    +0.000 NA
ATOM      2  C   UNL     1      39.396   1.842  14.355  0.00  0.00    +0.000 C 
ATOM      3  O   UNL     1      38.948   2.281  15.427  0.00  0.00    +0.000 OA
ENDROOT
BRANCH   2   4
ATOM      4  C   UNL     1      39.726   0.450  14.108  0.00  0.00    +0.000 A 
ATOM      5  C   UNL     1      41.055   0.031  14.304  0.00  0.00    +0.000 A 
ATOM      6  C   UNL     1      41.374  -1.284  14.109  0.00  0.00    +0.000 A 
ATOM      7  C   UNL     1      40.422  -2.187  13.731  0.00  0.00    +0.000 A 
ATOM      8  C   UNL     1      39.115  -1.817  13.531  0.00  0.00    +0.000 A 
ATOM      9  C   UNL     1      38.784  -0.465  13.729  0.00  0.00    +0.000 A 
BRANCH   9  10
ATOM     10  S   UNL     1      37.084   0.062  13.499  0.00  0.00    +0.000 S 
BRANCH  10  11
ATOM     11  C   UNL     1      36.184  -0.015  15.028  0.00  0.00    +0.000 A 
ATOM     12  C   UNL     1      36.082  -1.172  15.737  0.00  0.00    +0.000 A 
ATOM     13  C   UNL     1      35.387  -1.282  16.942  0.00  0.00    +0.000 A 
ATOM     14  C   UNL     1      34.780  -0.156  17.419  0.00  0.00    +0.000 A 
ATOM     15  C   UNL     1      34.867   1.029  16.719  0.00  0.00    +0.000 A 
ATOM     16  C   UNL     1      35.561   1.130  15.522  0.00  0.00    +0.000 A 
BRANCH  16  17
ATOM     17  C   UNL     1      35.622   2.378  14.835  0.00  0.00    +0.000 C 
ATOM     18  N   UNL     1      35.675   3.410  14.289  0.00  0.00    +0.000 NA
ENDBRANCH  16  17
ENDBRANCH  10  11
ENDBRANCH   9  10
ENDBRANCH   2   4
BRANCH   1  19
ATOM     19  C   UNL     1      39.274   4.210  13.500  0.00  0.00    +0.000 C 
BRANCH  19  20
ATOM     20  C   UNL     1      40.370   4.896  14.204  0.00  0.00    +0.000 C 
BRANCH  20  21
ATOM     21  O   UNL     1      40.032   5.957  15.015  0.00  0.00    +0.000 OA
BRANCH  21  27
ATOM     22  C   UNL     1      41.645   6.359  20.403  0.00  0.00    +0.000 C 
ATOM     23  C   UNL     1      41.295   6.276  18.961  0.00  0.00    +0.000 A 
ATOM     24  C   UNL     1      42.180   6.575  17.970  0.00  0.00    +0.000 A 
ATOM     25  C   UNL     1      41.805   6.482  16.633  0.00  0.00    +0.000 A 
ATOM     26  C   UNL     1      42.817   6.784  15.568  0.00  0.00    +0.000 C 
ATOM     27  C   UNL     1      40.558   6.093  16.288  0.00  0.00    +0.000 A 
ATOM     28  C   UNL     1      39.651   5.786  17.319  0.00  0.00    +0.000 A 
ATOM     29  C   UNL     1      38.265   5.352  16.955  0.00  0.00    +0.000 C 
ATOM     30  C   UNL     1      40.019   5.877  18.635  0.00  0.00    +0.000 A 
ENDBRANCH  21  27
ENDBRANCH  20  21
ENDBRANCH  19  20
ENDBRANCH   1  19
TORSDOF 8
ENDMDL
MODEL 7
REMARK VINA RESULT:      -7.0      2.619      7.728
REMARK  Name = 
REMARK  8 active torsions:
REMARK  status: ('A' for Active; 'I' for Inactive)
REMARK    1  A    between atoms: C_6  and  O_7
REMARK    2  A    between atoms: O_7  and  C_8
REMARK    3  A    between atoms: C_8  and  C_9
REMARK    4  A    between atoms: C_9  and  N_10
REMARK    5  A    between atoms: C_11  and  C_13
REMARK    6  A    between atoms: C_18  and  S_19
REMARK    7  A    between atoms: S_19  and  C_20
REMARK    8  A    between atoms: C_25  and  C_26
REMARK                            x       y       z     vdW  Elec       q    Type
REMARK                         _______ _______ _______ _____ _____    ______ ____
ROOT
ATOM      1  N   UNL     1      36.416   2.911  13.969  0.00  0.00    +0.000 NA
ATOM      2  C   UNL     1      36.714   4.053  13.144  0.00  0.00    +0.000 C 
ATOM      3  O   UNL     1      37.166   3.798  12.016  0.00  0.00    +0.000 OA
ENDROOT
BRANCH   2   4
ATOM      4  C   UNL     1      36.479   5.391  13.655  0.00  0.00    +0.000 A 
ATOM      5  C   UNL     1      35.244   6.006  13.379  0.00  0.00    +0.000 A 
ATOM      6  C   UNL     1      34.994   7.253  13.883  0.00  0.00    +0.000 A 
ATOM      7  C   UNL     1      35.924   7.899  14.644  0.00  0.00    +0.000 A 
ATOM      8  C   UNL     1      37.140   7.333  14.935  0.00  0.00    +0.000 A 
ATOM      9  C   UNL     1      37.401   6.051  14.418  0.00  0.00    +0.000 A 
BRANCH   9  10
ATOM     10  S   UNL     1      38.968   5.260  14.788  0.00  0.00    +0.000 S 
BRANCH  10  11
ATOM     11  C   UNL     1      39.486   5.624  16.448  0.00  0.00    +0.000 A 
ATOM     12  C   UNL     1      40.473   6.526  16.704  0.00  0.00    +0.000 A 
ATOM     13  C   UNL     1      40.913   6.845  17.989  0.00  0.00    +0.000 A 
ATOM     14  C   UNL     1      40.310   6.207  19.034  0.00  0.00    +0.000 A 
ATOM     15  C   UNL     1      39.308   5.288  18.802  0.00  0.00    +0.000 A 
ATOM     16  C   UNL     1      38.875   4.976  17.520  0.00  0.00    +0.000 A 
BRANCH  16  17
ATOM     17  C   UNL     1      37.836   4.019  17.330  0.00  0.00    +0.000 C 
ATOM     18  N   UNL     1      36.975   3.247  17.162  0.00  0.00    +0.000 NA
ENDBRANCH  16  17
ENDBRANCH  10  11
ENDBRANCH   9  10
ENDBRANCH   2   4
BRANCH   1  19
ATOM     19  C   UNL     1      36.630   1.561  13.514  0.00  0.00    +0.000 C 
BRANCH  19  20
ATOM     20  C   UNL     1      37.325   0.769  14.541  0.00  0.00    +0.000 C 
BRANCH  20  21
ATOM     21  O   UNL     1      36.673  -0.342  15.029  0.00  0.00    +0.000 OA
BRANCH  21  27
ATOM     22  C   UNL     1      37.581  -2.384  20.206  0.00  0.00    +0.000 C 
ATOM     23  C   UNL     1      37.410  -1.884  18.817  0.00  0.00    +0.000 A 
ATOM     24  C   UNL     1      38.297  -2.157  17.821  0.00  0.00    +0.000 A 
ATOM     25  C   UNL     1      38.093  -1.665  16.535  0.00  0.00    +0.000 A 
ATOM     26  C   UNL     1      39.073  -2.017  15.455  0.00  0.00    +0.000 C 
ATOM     27  C   UNL     1      37.013  -0.907  16.246  0.00  0.00    +0.000 A 
ATOM     28  C   UNL     1      36.101  -0.630  17.281  0.00  0.00    +0.000 A 
ATOM     29  C   UNL     1      34.898   0.207  16.979  0.00  0.00    +0.000 C 
ATOM     30  C   UNL     1      36.301  -1.114  18.547  0.00  0.00    +0.000 A 
ENDBRANCH  21  27
ENDBRANCH  20  21
ENDBRANCH  19  20
ENDBRANCH   1  19
TORSDOF 8
ENDMDL
MODEL 8
REMARK VINA RESULT:      -7.0      3.431      7.933
REMARK  Name = 
REMARK  8 active torsions:
REMARK  status: ('A' for Active; 'I' for Inactive)
REMARK    1  A    between atoms: C_6  and  O_7
REMARK    2  A    between atoms: O_7  and  C_8
REMARK    3  A    between atoms: C_8  and  C_9
REMARK    4  A    between atoms: C_9  and  N_10
REMARK    5  A    between atoms: C_11  and  C_13
REMARK    6  A    between atoms: C_18  and  S_19
REMARK    7  A    between atoms: S_19  and  C_20
REMARK    8  A    between atoms: C_25  and  C_26
REMARK                            x       y       z     vdW  Elec       q    Type
REMARK                         _______ _______ _______ _____ _____    ______ ____
ROOT
ATOM      1  N   UNL     1      38.301   2.646  15.392  0.00  0.00    +0.000 NA
ATOM      2  C   UNL     1      37.512   3.638  16.075  0.00  0.00    +0.000 C 
ATOM      3  O   UNL     1      36.281   3.488  16.005  0.00  0.00    +0.000 OA
ENDROOT
BRANCH   2   4
ATOM      4  C   UNL     1      38.171   4.719  16.784  0.00  0.00    +0.000 A 
ATOM      5  C   UNL     1      38.558   4.507  18.120  0.00  0.00    +0.000 A 
ATOM      6  C   UNL     1      39.211   5.505  18.791  0.00  0.00    +0.000 A 
ATOM      7  C   UNL     1      39.488   6.693  18.180  0.00  0.00    +0.000 A 
ATOM      8  C   UNL     1      39.128   6.938  16.878  0.00  0.00    +0.000 A 
ATOM      9  C   UNL     1      38.455   5.915  16.186  0.00  0.00    +0.000 A 
BRANCH   9  10
ATOM     10  S   UNL     1      37.981   6.180  14.476  0.00  0.00    +0.000 S 
BRANCH  10  11
ATOM     11  C   UNL     1      36.335   6.839  14.369  0.00  0.00    +0.000 A 
ATOM     12  C   UNL     1      35.261   6.037  14.132  0.00  0.00    +0.000 A 
ATOM     13  C   UNL     1      33.951   6.507  14.040  0.00  0.00    +0.000 A 
ATOM     14  C   UNL     1      33.755   7.849  14.198  0.00  0.00    +0.000 A 
ATOM     15  C   UNL     1      34.826   8.684  14.437  0.00  0.00    +0.000 A 
ATOM     16  C   UNL     1      36.127   8.208  14.528  0.00  0.00    +0.000 A 
BRANCH  16  17
ATOM     17  C   UNL     1      37.202   9.110  14.777  0.00  0.00    +0.000 C 
ATOM     18  N   UNL     1      38.087   9.842  14.999  0.00  0.00    +0.000 NA
ENDBRANCH  16  17
ENDBRANCH  10  11
ENDBRANCH   9  10
ENDBRANCH   2   4
BRANCH   1  19
ATOM     19  C   UNL     1      37.700   1.552  14.673  0.00  0.00    +0.000 C 
BRANCH  19  20
ATOM     20  C   UNL     1      38.366   0.282  15.006  0.00  0.00    +0.000 C 
BRANCH  20  21
ATOM     21  O   UNL     1      37.563  -0.768  15.396  0.00  0.00    +0.000 OA
BRANCH  21  27
ATOM     22  C   UNL     1      37.675  -2.767  20.667  0.00  0.00    +0.000 C 
ATOM     23  C   UNL     1      37.584  -2.191  19.300  0.00  0.00    +0.000 A 
ATOM     24  C   UNL     1      36.660  -1.252  18.956  0.00  0.00    +0.000 A 
ATOM     25  C   UNL     1      36.615  -0.742  17.662  0.00  0.00    +0.000 A 
ATOM     26  C   UNL     1      35.607   0.318  17.330  0.00  0.00    +0.000 C 
ATOM     27  C   UNL     1      37.483  -1.168  16.718  0.00  0.00    +0.000 A 
ATOM     28  C   UNL     1      38.434  -2.139  17.083  0.00  0.00    +0.000 A 
ATOM     29  C   UNL     1      39.405  -2.621  16.051  0.00  0.00    +0.000 C 
ATOM     30  C   UNL     1      38.480  -2.640  18.356  0.00  0.00    +0.000 A 
ENDBRANCH  21  27
ENDBRANCH  20  21
ENDBRANCH  19  20
ENDBRANCH   1  19
TORSDOF 8
ENDMDL
MODEL 9
REMARK VINA RESULT:      -6.9      3.205      7.777
REMARK  Name = 
REMARK  8 active torsions:
REMARK  status: ('A' for Active; 'I' for Inactive)
REMARK    1  A    between atoms: C_6  and  O_7
REMARK    2  A    between atoms: O_7  and  C_8
REMARK    3  A    between atoms: C_8  and  C_9
REMARK    4  A    between atoms: C_9  and  N_10
REMARK    5  A    between atoms: C_11  and  C_13
REMARK    6  A    between atoms: C_18  and  S_19
REMARK    7  A    between atoms: S_19  and  C_20
REMARK    8  A    between atoms: C_25  and  C_26
REMARK                            x       y       z     vdW  Elec       q    Type
REMARK                         _______ _______ _______ _____ _____    ______ ____
ROOT
ATOM      1  N   UNL     1      36.728   3.861  16.615  0.00  0.00    +0.000 NA
ATOM      2  C   UNL     1      38.125   4.198  16.526  0.00  0.00    +0.000 C 
ATOM      3  O   UNL     1      38.813   3.456  15.806  0.00  0.00    +0.000 OA
ENDROOT
BRANCH   2   4
ATOM      4  C   UNL     1      38.637   5.344  17.255  0.00  0.00    +0.000 A 
ATOM      5  C   UNL     1      39.010   5.170  18.601  0.00  0.00    +0.000 A 
ATOM      6  C   UNL     1      39.526   6.232  19.292  0.00  0.00    +0.000 A 
ATOM      7  C   UNL     1      39.682   7.448  18.691  0.00  0.00    +0.000 A 
ATOM      8  C   UNL     1      39.331   7.657  17.381  0.00  0.00    +0.000 A 
ATOM      9  C   UNL     1      38.798   6.567  16.668  0.00  0.00    +0.000 A 
BRANCH   9  10
ATOM     10  S   UNL     1      38.343   6.787  14.946  0.00  0.00    +0.000 S 
BRANCH  10  11
ATOM     11  C   UNL     1      36.656   7.322  14.800  0.00  0.00    +0.000 A 
ATOM     12  C   UNL     1      36.209   8.446  15.424  0.00  0.00    +0.000 A 
ATOM     13  C   UNL     1      34.895   8.907  15.339  0.00  0.00    +0.000 A 
ATOM     14  C   UNL     1      34.023   8.176  14.583  0.00  0.00    +0.000 A 
ATOM     15  C   UNL     1      34.451   7.033  13.941  0.00  0.00    +0.000 A 
ATOM     16  C   UNL     1      35.761   6.581  14.030  0.00  0.00    +0.000 A 
BRANCH  16  17
ATOM     17  C   UNL     1      36.155   5.394  13.348  0.00  0.00    +0.000 C 
ATOM     18  N   UNL     1      36.474   4.428  12.771  0.00  0.00    +0.000 NA
ENDBRANCH  16  17
ENDBRANCH  10  11
ENDBRANCH   9  10
ENDBRANCH   2   4
BRANCH   1  19
ATOM     19  C   UNL     1      36.166   2.736  15.913  0.00  0.00    +0.000 C 
BRANCH  19  20
ATOM     20  C   UNL     1      35.834   1.651  16.850  0.00  0.00    +0.000 C 
BRANCH  20  21
ATOM     21  O   UNL     1      35.709   0.382  16.329  0.00  0.00    +0.000 OA
BRANCH  21  27
ATOM     22  C   UNL     1      40.002  -3.244  15.874  0.00  0.00    +0.000 C 
ATOM     23  C   UNL     1      38.872  -2.301  16.075  0.00  0.00    +0.000 A 
ATOM     24  C   UNL     1      38.329  -2.051  17.299  0.00  0.00    +0.000 A 
ATOM     25  C   UNL     1      37.270  -1.159  17.435  0.00  0.00    +0.000 A 
ATOM     26  C   UNL     1      36.722  -0.880  18.803  0.00  0.00    +0.000 C 
ATOM     27  C   UNL     1      36.756  -0.522  16.360  0.00  0.00    +0.000 A 
ATOM     28  C   UNL     1      37.324  -0.787  15.100  0.00  0.00    +0.000 A 
ATOM     29  C   UNL     1      36.768  -0.089  13.898  0.00  0.00    +0.000 C 
ATOM     30  C   UNL     1      38.366  -1.664  14.965  0.00  0.00    +0.000 A 
ENDBRANCH  21  27
ENDBRANCH  20  21
ENDBRANCH  19  20
ENDBRANCH   1  19
TORSDOF 8
ENDMDL
MODEL 10
REMARK VINA RESULT:      -6.9      2.865      7.882
REMARK  Name = 
REMARK  8 active torsions:
REMARK  status: ('A' for Active; 'I' for Inactive)
REMARK    1  A    between atoms: C_6  and  O_7
REMARK    2  A    between atoms: O_7  and  C_8
REMARK    3  A    between atoms: C_8  and  C_9
REMARK    4  A    between atoms: C_9  and  N_10
REMARK    5  A    between atoms: C_11  and  C_13
REMARK    6  A    between atoms: C_18  and  S_19
REMARK    7  A    between atoms: S_19  and  C_20
REMARK    8  A    between atoms: C_25  and  C_26
REMARK                            x       y       z     vdW  Elec       q    Type
REMARK                         _______ _______ _______ _____ _____    ______ ____
ROOT
ATOM      1  N   UNL     1      36.496   3.435  14.908  0.00  0.00    +0.000 NA
ATOM      2  C   UNL     1      37.711   3.678  15.642  0.00  0.00    +0.000 C 
ATOM      3  O   UNL     1      37.692   3.347  16.839  0.00  0.00    +0.000 OA
ENDROOT
BRANCH   2   4
ATOM      4  C   UNL     1      38.851   4.274  14.971  0.00  0.00    +0.000 A 
ATOM      5  C   UNL     1      39.675   3.447  14.186  0.00  0.00    +0.000 A 
ATOM      6  C   UNL     1      40.733   4.000  13.518  0.00  0.00    +0.000 A 
ATOM      7  C   UNL     1      40.993   5.338  13.607  0.00  0.00    +0.000 A 
ATOM      8  C   UNL     1      40.213   6.178  14.362  0.00  0.00    +0.000 A 
ATOM      9  C   UNL     1      39.125   5.611  15.050  0.00  0.00    +0.000 A 
BRANCH   9  10
ATOM     10  S   UNL     1      38.064   6.672  16.034  0.00  0.00    +0.000 S 
BRANCH  10  11
ATOM     11  C   UNL     1      38.694   6.844  17.685  0.00  0.00    +0.000 A 
ATOM     12  C   UNL     1      39.666   6.020  18.166  0.00  0.00    +0.000 A 
ATOM     13  C   UNL     1      40.192   6.116  19.454  0.00  0.00    +0.000 A 
ATOM     14  C   UNL     1      39.692   7.096  20.264  0.00  0.00    +0.000 A 
ATOM     15  C   UNL     1      38.706   7.942  19.802  0.00  0.00    +0.000 A 
ATOM     16  C   UNL     1      38.188   7.841  18.518  0.00  0.00    +0.000 A 
BRANCH  16  17
ATOM     17  C   UNL     1      37.170   8.739  18.086  0.00  0.00    +0.000 C 
ATOM     18  N   UNL     1      36.345   9.481  17.715  0.00  0.00    +0.000 NA
ENDBRANCH  16  17
ENDBRANCH  10  11
ENDBRANCH   9  10
ENDBRANCH   2   4
BRANCH   1  19
ATOM     19  C   UNL     1      35.335   2.846  15.523  0.00  0.00    +0.000 C 
BRANCH  19  20
ATOM     20  C   UNL     1      35.360   1.382  15.387  0.00  0.00    +0.000 C 
BRANCH  20  21
ATOM     21  O   UNL     1      35.771   0.652  16.481  0.00  0.00    +0.000 OA
BRANCH  21  27
ATOM     22  C   UNL     1      37.221  -4.791  16.246  0.00  0.00    +0.000 C 
ATOM     23  C   UNL     1      36.908  -3.339  16.269  0.00  0.00    +0.000 A 
ATOM     24  C   UNL     1      37.747  -2.396  15.756  0.00  0.00    +0.000 A 
ATOM     25  C   UNL     1      37.409  -1.047  15.801  0.00  0.00    +0.000 A 
ATOM     26  C   UNL     1      38.341  -0.041  15.194  0.00  0.00    +0.000 C 
ATOM     27  C   UNL     1      36.245  -0.641  16.354  0.00  0.00    +0.000 A 
ATOM     28  C   UNL     1      35.385  -1.622  16.882  0.00  0.00    +0.000 A 
ATOM     29  C   UNL     1      34.090  -1.191  17.497  0.00  0.00    +0.000 C 
ATOM     30  C   UNL     1      35.716  -2.950  16.837  0.00  0.00    +0.000 A 
ENDBRANCH  21  27
ENDBRANCH  20  21
ENDBRANCH  19  20
ENDBRANCH   1  19
TORSDOF 8
ENDMDL
