MODEL 1
REMARK VINA RESULT:      -6.4      0.000      0.000
REMARK  Name = 
REMARK  4 active torsions:
REMARK  status: ('A' for Active; 'I' for Inactive)
REMARK    1  A    between atoms: C_2  and  C_4
REMARK    2  A    between atoms: C_4  and  C_5
REMARK    3  A    between atoms: N_9  and  C_10
REMARK    4  A    between atoms: C_10  and  C_11
REMARK                            x       y       z     vdW  Elec       q    Type
REMARK                         _______ _______ _______ _____ _____    ______ ____
ROOT
ATOM      1  C   UNL     1      30.003  22.118  12.319  0.00  0.00    +0.000 C 
ATOM      2  N   UNL     1      31.272  23.025  12.026  0.00  0.00    +0.000 NA
ATOM      3  C   UNL     1      32.045  22.269  11.145  0.00  0.00    +0.000 C 
ATOM      4  O   UNL     1      33.308  22.407  10.994  0.00  0.00    +0.000 OA
ATOM      5  N   UNL     1      31.198  21.312  10.452  0.00  0.00    +0.000 N 
ATOM      6  C   UNL     1      29.899  21.477  10.897  0.00  0.00    +0.000 C 
ATOM      7  O   UNL     1      28.802  21.193  10.328  0.00  0.00    +0.000 OA
ENDROOT
BRANCH   1   8
ATOM      8  C   UNL     1      28.995  23.452  11.958  0.00  0.00    +0.000 C 
BRANCH   8  10
ATOM      9  C   UNL     1      26.764  22.992  13.117  0.00  0.00    +0.000 C 
ATOM     10  C   UNL     1      28.138  23.556  13.133  0.00  0.00    +0.000 C 
ATOM     11  C   UNL     1      28.560  24.375  14.259  0.00  0.00    +0.000 C 
ENDBRANCH   8  10
ENDBRANCH   1   8
BRANCH   5  12
ATOM     12  C   UNL     1      31.842  20.549   9.391  0.00  0.00    +0.000 C 
BRANCH  12  13
ATOM     13  C   UNL     1      31.239  20.829   8.041  0.00  0.00    +0.000 A 
ATOM     14  C   UNL     1      30.357  19.872   7.514  0.00  0.00    +0.000 A 
ATOM     15  C   UNL     1      29.948  19.872   6.230  0.00  0.00    +0.000 A 
ATOM     16  C   UNL     1      30.431  20.879   5.379  0.00  0.00    +0.000 A 
ATOM     17  C   UNL     1      31.317  21.875   5.836  0.00  0.00    +0.000 A 
ATOM     18  C   UNL     1      31.706  21.810   7.228  0.00  0.00    +0.000 A 
ATOM     19 CL   UNL     1      32.740  23.165   7.765  0.00  0.00    +0.000 Cl
ENDBRANCH  12  13
ENDBRANCH   5  12
TORSDOF 4
ENDMDL
MODEL 2
REMARK VINA RESULT:      -6.4     11.793     14.700
REMARK  Name = 
REMARK  4 active torsions:
REMARK  status: ('A' for Active; 'I' for Inactive)
REMARK    1  A    between atoms: C_2  and  C_4
REMARK    2  A    between atoms: C_4  and  C_5
REMARK    3  A    between atoms: N_9  and  C_10
REMARK    4  A    between atoms: C_10  and  C_11
REMARK                            x       y       z     vdW  Elec       q    Type
REMARK                         _______ _______ _______ _____ _____    ______ ____
ROOT
ATOM      1  C   UNL     1      27.997  26.372  21.057  0.00  0.00    +0.000 C 
ATOM      2  N   UNL     1      27.591  26.865  22.510  0.00  0.00    +0.000 NA
ATOM      3  C   UNL     1      27.250  25.697  23.192  0.00  0.00    +0.000 C 
ATOM      4  O   UNL     1      26.474  25.658  24.209  0.00  0.00    +0.000 OA
ATOM      5  N   UNL     1      27.897  24.558  22.562  0.00  0.00    +0.000 N 
ATOM      6  C   UNL     1      28.644  25.018  21.493  0.00  0.00    +0.000 C 
ATOM      7  O   UNL     1      29.658  24.505  20.929  0.00  0.00    +0.000 OA
ENDROOT
BRANCH   1   8
ATOM      8  C   UNL     1      29.442  27.278  21.178  0.00  0.00    +0.000 C 
BRANCH   8  10
ATOM      9  C   UNL     1      30.281  27.304  18.764  0.00  0.00    +0.000 C 
ATOM     10  C   UNL     1      29.537  27.938  19.881  0.00  0.00    +0.000 C 
ATOM     11  C   UNL     1      29.059  29.306  19.735  0.00  0.00    +0.000 C 
ENDBRANCH   8  10
ENDBRANCH   1   8
BRANCH   5  12
ATOM     12  C   UNL     1      27.749  23.285  23.254  0.00  0.00    +0.000 C 
BRANCH  12  13
ATOM     13  C   UNL     1      28.705  23.150  24.409  0.00  0.00    +0.000 A 
ATOM     14  C   UNL     1      30.075  23.075  24.111  0.00  0.00    +0.000 A 
ATOM     15  C   UNL     1      31.007  22.705  25.011  0.00  0.00    +0.000 A 
ATOM     16  C   UNL     1      30.584  22.377  26.309  0.00  0.00    +0.000 A 
ATOM     17  C   UNL     1      29.227  22.430  26.683  0.00  0.00    +0.000 A 
ATOM     18  C   UNL     1      28.287  22.841  25.662  0.00  0.00    +0.000 A 
ATOM     19 CL   UNL     1      26.602  22.994  26.235  0.00  0.00    +0.000 Cl
ENDBRANCH  12  13
ENDBRANCH   5  12
TORSDOF 4
ENDMDL
MODEL 3
REMARK VINA RESULT:      -6.1      2.901      4.244
REMARK  Name = 
REMARK  4 active torsions:
REMARK  status: ('A' for Active; 'I' for Inactive)
REMARK    1  A    between atoms: C_2  and  C_4
REMARK    2  A    between atoms: C_4  and  C_5
REMARK    3  A    between atoms: N_9  and  C_10
REMARK    4  A    between atoms: C_10  and  C_11
REMARK                            x       y       z     vdW  Elec       q    Type
REMARK                         _______ _______ _______ _____ _____    ______ ____
ROOT
ATOM      1  C   UNL     1      29.580  22.929  11.487  0.00  0.00    +0.000 C 
ATOM      2  N   UNL     1      29.329  21.928  10.281  0.00  0.00    +0.000 NA
ATOM      3  C   UNL     1      30.539  21.249  10.135  0.00  0.00    +0.000 C 
ATOM      4  O   UNL     1      30.923  20.688   9.051  0.00  0.00    +0.000 OA
ATOM      5  N   UNL     1      31.279  21.295  11.385  0.00  0.00    +0.000 N 
ATOM      6  C   UNL     1      30.526  21.997  12.309  0.00  0.00    +0.000 C 
ATOM      7  O   UNL     1      30.544  21.949  13.578  0.00  0.00    +0.000 OA
ENDROOT
BRANCH   1   8
ATOM      8  C   UNL     1      28.140  22.370  12.220  0.00  0.00    +0.000 C 
BRANCH   8  10
ATOM      9  C   UNL     1      27.836  24.313  13.852  0.00  0.00    +0.000 C 
ATOM     10  C   UNL     1      27.457  23.599  12.606  0.00  0.00    +0.000 C 
ATOM     11  C   UNL     1      26.278  24.028  11.867  0.00  0.00    +0.000 C 
ENDBRANCH   8  10
ENDBRANCH   1   8
BRANCH   5  12
ATOM     12  C   UNL     1      32.499  20.503  11.428  0.00  0.00    +0.000 C 
BRANCH  12  13
ATOM     13  C   UNL     1      33.734  21.349  11.268  0.00  0.00    +0.000 A 
ATOM     14  C   UNL     1      33.596  22.577  10.601  0.00  0.00    +0.000 A 
ATOM     15  C   UNL     1      34.645  23.306  10.171  0.00  0.00    +0.000 A 
ATOM     16  C   UNL     1      35.938  22.810  10.402  0.00  0.00    +0.000 A 
ATOM     17  C   UNL     1      36.156  21.587  11.066  0.00  0.00    +0.000 A 
ATOM     18  C   UNL     1      34.979  20.865  11.501  0.00  0.00    +0.000 A 
ATOM     19 CL   UNL     1      35.332  19.381  12.432  0.00  0.00    +0.000 Cl
ENDBRANCH  12  13
ENDBRANCH   5  12
TORSDOF 4
ENDMDL
MODEL 4
REMARK VINA RESULT:      -6.0     12.719     14.918
REMARK  Name = 
REMARK  4 active torsions:
REMARK  status: ('A' for Active; 'I' for Inactive)
REMARK    1  A    between atoms: C_2  and  C_4
REMARK    2  A    between atoms: C_4  and  C_5
REMARK    3  A    between atoms: N_9  and  C_10
REMARK    4  A    between atoms: C_10  and  C_11
REMARK                            x       y       z     vdW  Elec       q    Type
REMARK                         _______ _______ _______ _____ _____    ______ ____
ROOT
ATOM      1  C   UNL     1      28.328  27.162  22.462  0.00  0.00    +0.000 C 
ATOM      2  N   UNL     1      28.743  26.506  21.078  0.00  0.00    +0.000 NA
ATOM      3  C   UNL     1      28.996  25.170  21.387  0.00  0.00    +0.000 C 
ATOM      4  O   UNL     1      29.752  24.402  20.697  0.00  0.00    +0.000 OA
ATOM      5  N   UNL     1      28.285  24.807  22.602  0.00  0.00    +0.000 N 
ATOM      6  C   UNL     1      27.586  25.916  23.044  0.00  0.00    +0.000 C 
ATOM      7  O   UNL     1      26.549  25.986  23.772  0.00  0.00    +0.000 OA
ENDROOT
BRANCH   1   8
ATOM      8  C   UNL     1      26.944  27.824  21.707  0.00  0.00    +0.000 C 
BRANCH   8  10
ATOM      9  C   UNL     1      26.136  29.578  23.382  0.00  0.00    +0.000 C 
ATOM     10  C   UNL     1      26.927  29.203  22.181  0.00  0.00    +0.000 C 
ATOM     11  C   UNL     1      27.535  30.249  21.372  0.00  0.00    +0.000 C 
ENDBRANCH   8  10
ENDBRANCH   1   8
BRANCH   5  12
ATOM     12  C   UNL     1      28.338  23.399  22.970  0.00  0.00    +0.000 C 
BRANCH  12  13
ATOM     13  C   UNL     1      28.956  23.187  24.326  0.00  0.00    +0.000 A 
ATOM     14  C   UNL     1      30.357  23.133  24.399  0.00  0.00    +0.000 A 
ATOM     15  C   UNL     1      31.024  22.704  25.489  0.00  0.00    +0.000 A 
ATOM     16  C   UNL     1      30.277  22.289  26.604  0.00  0.00    +0.000 A 
ATOM     17  C   UNL     1      28.869  22.318  26.606  0.00  0.00    +0.000 A 
ATOM     18  C   UNL     1      28.227  22.796  25.400  0.00  0.00    +0.000 A 
ATOM     19 CL   UNL     1      26.447  22.909  25.514  0.00  0.00    +0.000 Cl
ENDBRANCH  12  13
ENDBRANCH   5  12
TORSDOF 4
ENDMDL
MODEL 5
REMARK VINA RESULT:      -5.8     30.245     31.770
REMARK  Name = 
REMARK  4 active torsions:
REMARK  status: ('A' for Active; 'I' for Inactive)
REMARK    1  A    between atoms: C_2  and  C_4
REMARK    2  A    between atoms: C_4  and  C_5
REMARK    3  A    between atoms: N_9  and  C_10
REMARK    4  A    between atoms: C_10  and  C_11
REMARK                            x       y       z     vdW  Elec       q    Type
REMARK                         _______ _______ _______ _____ _____    ______ ____
ROOT
ATOM      1  C   UNL     1      21.240  11.337  37.969  0.00  0.00    +0.000 C 
ATOM      2  N   UNL     1      20.702  10.914  39.401  0.00  0.00    +0.000 NA
ATOM      3  C   UNL     1      19.463  10.324  39.148  0.00  0.00    +0.000 C 
ATOM      4  O   UNL     1      18.518  10.240  40.006  0.00  0.00    +0.000 OA
ATOM      5  N   UNL     1      19.422   9.845  37.776  0.00  0.00    +0.000 N 
ATOM      6  C   UNL     1      20.637  10.131  37.180  0.00  0.00    +0.000 C 
ATOM      7  O   UNL     1      21.209   9.575  36.193  0.00  0.00    +0.000 OA
ENDROOT
BRANCH   1   8
ATOM      8  C   UNL     1      22.723  10.562  38.322  0.00  0.00    +0.000 C 
BRANCH   8  10
ATOM      9  C   UNL     1      23.972  12.790  38.409  0.00  0.00    +0.000 C 
ATOM     10  C   UNL     1      23.720  11.472  37.771  0.00  0.00    +0.000 C 
ATOM     11  C   UNL     1      24.338  11.170  36.489  0.00  0.00    +0.000 C 
ENDBRANCH   8  10
ENDBRANCH   1   8
BRANCH   5  12
ATOM     12  C   UNL     1      18.242   9.076  37.410  0.00  0.00    +0.000 C 
BRANCH  12  13
ATOM     13  C   UNL     1      17.477   9.709  36.279  0.00  0.00    +0.000 A 
ATOM     14  C   UNL     1      17.932   9.466  34.973  0.00  0.00    +0.000 A 
ATOM     15  C   UNL     1      17.504  10.162  33.900  0.00  0.00    +0.000 A 
ATOM     16  C   UNL     1      16.558  11.180  34.103  0.00  0.00    +0.000 A 
ATOM     17  C   UNL     1      16.054  11.480  35.383  0.00  0.00    +0.000 A 
ATOM     18  C   UNL     1      16.558  10.686  36.483  0.00  0.00    +0.000 A 
ATOM     19 CL   UNL     1      15.794  11.046  38.058  0.00  0.00    +0.000 Cl
ENDBRANCH  12  13
ENDBRANCH   5  12
TORSDOF 4
ENDMDL
MODEL 6
REMARK VINA RESULT:      -5.8     14.428     17.055
REMARK  Name = 
REMARK  4 active torsions:
REMARK  status: ('A' for Active; 'I' for Inactive)
REMARK    1  A    between atoms: C_2  and  C_4
REMARK    2  A    between atoms: C_4  and  C_5
REMARK    3  A    between atoms: N_9  and  C_10
REMARK    4  A    between atoms: C_10  and  C_11
REMARK                            x       y       z     vdW  Elec       q    Type
REMARK                         _______ _______ _______ _____ _____    ______ ____
ROOT
ATOM      1  C   UNL     1      31.164  23.094  24.940  0.00  0.00    +0.000 C 
ATOM      2  N   UNL     1      30.377  23.587  23.652  0.00  0.00    +0.000 NA
ATOM      3  C   UNL     1      29.079  23.108  23.832  0.00  0.00    +0.000 C 
ATOM      4  O   UNL     1      28.251  22.896  22.880  0.00  0.00    +0.000 OA
ATOM      5  N   UNL     1      28.834  22.885  25.247  0.00  0.00    +0.000 N 
ATOM      6  C   UNL     1      29.977  23.230  25.946  0.00  0.00    +0.000 C 
ATOM      7  O   UNL     1      30.112  23.592  27.155  0.00  0.00    +0.000 OA
ENDROOT
BRANCH   1   8
ATOM      8  C   UNL     1      31.740  24.689  25.169  0.00  0.00    +0.000 C 
BRANCH   8  10
ATOM      9  C   UNL     1      33.536  24.530  26.980  0.00  0.00    +0.000 C 
ATOM     10  C   UNL     1      33.133  24.493  25.551  0.00  0.00    +0.000 C 
ATOM     11  C   UNL     1      34.160  24.445  24.521  0.00  0.00    +0.000 C 
ENDBRANCH   8  10
ENDBRANCH   1   8
BRANCH   5  12
ATOM     12  C   UNL     1      27.470  22.521  25.603  0.00  0.00    +0.000 C 
BRANCH  12  13
ATOM     13  C   UNL     1      26.822  23.546  26.496  0.00  0.00    +0.000 A 
ATOM     14  C   UNL     1      26.781  23.273  27.872  0.00  0.00    +0.000 A 
ATOM     15  C   UNL     1      26.021  23.970  28.741  0.00  0.00    +0.000 A 
ATOM     16  C   UNL     1      25.231  25.018  28.241  0.00  0.00    +0.000 A 
ATOM     17  C   UNL     1      25.222  25.352  26.873  0.00  0.00    +0.000 A 
ATOM     18  C   UNL     1      26.068  24.561  26.005  0.00  0.00    +0.000 A 
ATOM     19 CL   UNL     1      26.091  25.110  24.304  0.00  0.00    +0.000 Cl
ENDBRANCH  12  13
ENDBRANCH   5  12
TORSDOF 4
ENDMDL
MODEL 7
REMARK VINA RESULT:      -5.6     12.883     15.372
REMARK  Name = 
REMARK  4 active torsions:
REMARK  status: ('A' for Active; 'I' for Inactive)
REMARK    1  A    between atoms: C_2  and  C_4
REMARK    2  A    between atoms: C_4  and  C_5
REMARK    3  A    between atoms: N_9  and  C_10
REMARK    4  A    between atoms: C_10  and  C_11
REMARK                            x       y       z     vdW  Elec       q    Type
REMARK                         _______ _______ _______ _____ _____    ______ ____
ROOT
ATOM      1  C   UNL     1      29.779  23.713  26.227  0.00  0.00    +0.000 C 
ATOM      2  N   UNL     1      28.524  22.774  26.477  0.00  0.00    +0.000 NA
ATOM      3  C   UNL     1      27.740  22.928  25.334  0.00  0.00    +0.000 C 
ATOM      4  O   UNL     1      26.479  22.713  25.292  0.00  0.00    +0.000 OA
ATOM      5  N   UNL     1      28.571  23.375  24.228  0.00  0.00    +0.000 N 
ATOM      6  C   UNL     1      29.872  23.492  24.683  0.00  0.00    +0.000 C 
ATOM      7  O   UNL     1      30.966  23.442  24.040  0.00  0.00    +0.000 OA
ENDROOT
BRANCH   1   8
ATOM      8  C   UNL     1      30.807  22.408  26.630  0.00  0.00    +0.000 C 
BRANCH   8  10
ATOM      9  C   UNL     1      32.725  23.845  27.520  0.00  0.00    +0.000 C 
ATOM     10  C   UNL     1      31.584  22.923  27.752  0.00  0.00    +0.000 C 
ATOM     11  C   UNL     1      31.358  22.388  29.086  0.00  0.00    +0.000 C 
ENDBRANCH   8  10
ENDBRANCH   1   8
BRANCH   5  12
ATOM     12  C   UNL     1      27.915  23.441  22.930  0.00  0.00    +0.000 C 
BRANCH  12  13
ATOM     13  C   UNL     1      28.102  24.778  22.264  0.00  0.00    +0.000 A 
ATOM     14  C   UNL     1      29.036  24.856  21.218  0.00  0.00    +0.000 A 
ATOM     15  C   UNL     1      29.481  26.024  20.712  0.00  0.00    +0.000 A 
ATOM     16  C   UNL     1      28.986  27.218  21.260  0.00  0.00    +0.000 A 
ATOM     17  C   UNL     1      28.045  27.219  22.309  0.00  0.00    +0.000 A 
ATOM     18  C   UNL     1      27.613  25.926  22.795  0.00  0.00    +0.000 A 
ATOM     19 CL   UNL     1      26.340  26.002  24.047  0.00  0.00    +0.000 Cl
ENDBRANCH  12  13
ENDBRANCH   5  12
TORSDOF 4
ENDMDL
MODEL 8
REMARK VINA RESULT:      -5.5     31.755     33.329
REMARK  Name = 
REMARK  4 active torsions:
REMARK  status: ('A' for Active; 'I' for Inactive)
REMARK    1  A    between atoms: C_2  and  C_4
REMARK    2  A    between atoms: C_4  and  C_5
REMARK    3  A    between atoms: N_9  and  C_10
REMARK    4  A    between atoms: C_10  and  C_11
REMARK                            x       y       z     vdW  Elec       q    Type
REMARK                         _______ _______ _______ _____ _____    ______ ____
ROOT
ATOM      1  C   UNL     1      34.394   0.381  35.884  0.00  0.00    +0.000 C 
ATOM      2  N   UNL     1      33.614   0.050  37.226  0.00  0.00    +0.000 NA
ATOM      3  C   UNL     1      33.748   1.202  38.001  0.00  0.00    +0.000 C 
ATOM      4  O   UNL     1      33.661   1.225  39.278  0.00  0.00    +0.000 OA
ATOM      5  N   UNL     1      34.010   2.342  37.139  0.00  0.00    +0.000 N 
ATOM      6  C   UNL     1      34.032   1.900  35.828  0.00  0.00    +0.000 C 
ATOM      7  O   UNL     1      33.814   2.536  34.752  0.00  0.00    +0.000 OA
ENDROOT
BRANCH   1   8
ATOM      8  C   UNL     1      33.030  -0.134  34.991  0.00  0.00    +0.000 C 
BRANCH   8  10
ATOM      9  C   UNL     1      34.222  -0.161  32.730  0.00  0.00    +0.000 C 
ATOM     10  C   UNL     1      33.614  -0.877  33.881  0.00  0.00    +0.000 C 
ATOM     11  C   UNL     1      33.436  -2.320  33.810  0.00  0.00    +0.000 C 
ENDBRANCH   8  10
ENDBRANCH   1   8
BRANCH   5  12
ATOM     12  C   UNL     1      34.030   3.641  37.796  0.00  0.00    +0.000 C 
BRANCH  12  13
ATOM     13  C   UNL     1      34.825   4.659  37.023  0.00  0.00    +0.000 A 
ATOM     14  C   UNL     1      34.109   5.596  36.260  0.00  0.00    +0.000 A 
ATOM     15  C   UNL     1      34.685   6.390  35.335  0.00  0.00    +0.000 A 
ATOM     16  C   UNL     1      36.068   6.271  35.126  0.00  0.00    +0.000 A 
ATOM     17  C   UNL     1      36.852   5.355  35.854  0.00  0.00    +0.000 A 
ATOM     18  C   UNL     1      36.162   4.541  36.832  0.00  0.00    +0.000 A 
ATOM     19 CL   UNL     1      37.234   3.484  37.794  0.00  0.00    +0.000 Cl
ENDBRANCH  12  13
ENDBRANCH   5  12
TORSDOF 4
ENDMDL
MODEL 9
REMARK VINA RESULT:      -5.5     15.355     17.547
REMARK  Name = 
REMARK  4 active torsions:
REMARK  status: ('A' for Active; 'I' for Inactive)
REMARK    1  A    between atoms: C_2  and  C_4
REMARK    2  A    between atoms: C_4  and  C_5
REMARK    3  A    between atoms: N_9  and  C_10
REMARK    4  A    between atoms: C_10  and  C_11
REMARK                            x       y       z     vdW  Elec       q    Type
REMARK                         _______ _______ _______ _____ _____    ______ ____
ROOT
ATOM      1  C   UNL     1      25.347  25.830  26.925  0.00  0.00    +0.000 C 
ATOM      2  N   UNL     1      24.794  25.512  25.472  0.00  0.00    +0.000 NA
ATOM      3  C   UNL     1      25.611  24.482  25.006  0.00  0.00    +0.000 C 
ATOM      4  O   UNL     1      25.806  24.222  23.768  0.00  0.00    +0.000 OA
ATOM      5  N   UNL     1      26.199  23.777  26.134  0.00  0.00    +0.000 N 
ATOM      6  C   UNL     1      25.742  24.366  27.299  0.00  0.00    +0.000 C 
ATOM      7  O   UNL     1      25.637  23.881  28.468  0.00  0.00    +0.000 OA
ENDROOT
BRANCH   1   8
ATOM      8  C   UNL     1      23.752  25.717  27.532  0.00  0.00    +0.000 C 
BRANCH   8  10
ATOM      9  C   UNL     1      23.851  26.588  29.933  0.00  0.00    +0.000 C 
ATOM     10  C   UNL     1      23.671  26.824  28.478  0.00  0.00    +0.000 C 
ATOM     11  C   UNL     1      23.229  28.132  28.016  0.00  0.00    +0.000 C 
ENDBRANCH   8  10
ENDBRANCH   1   8
BRANCH   5  12
ATOM     12  C   UNL     1      26.963  22.582  25.804  0.00  0.00    +0.000 C 
BRANCH  12  13
ATOM     13  C   UNL     1      28.440  22.859  25.709  0.00  0.00    +0.000 A 
ATOM     14  C   UNL     1      28.985  23.034  24.428  0.00  0.00    +0.000 A 
ATOM     15  C   UNL     1      30.311  23.035  24.183  0.00  0.00    +0.000 A 
ATOM     16  C   UNL     1      31.186  22.850  25.265  0.00  0.00    +0.000 A 
ATOM     17  C   UNL     1      30.713  22.671  26.580  0.00  0.00    +0.000 A 
ATOM     18  C   UNL     1      29.278  22.686  26.762  0.00  0.00    +0.000 A 
ATOM     19 CL   UNL     1      28.753  22.565  28.466  0.00  0.00    +0.000 Cl
ENDBRANCH  12  13
ENDBRANCH   5  12
TORSDOF 4
ENDMDL
MODEL 10
REMARK VINA RESULT:      -5.5     12.989     15.449
REMARK  Name = 
REMARK  4 active torsions:
REMARK  status: ('A' for Active; 'I' for Inactive)
REMARK    1  A    between atoms: C_2  and  C_4
REMARK    2  A    between atoms: C_4  and  C_5
REMARK    3  A    between atoms: N_9  and  C_10
REMARK    4  A    between atoms: C_10  and  C_11
REMARK                            x       y       z     vdW  Elec       q    Type
REMARK                         _______ _______ _______ _____ _____    ______ ____
ROOT
ATOM      1  C   UNL     1      29.280  26.947  23.334  0.00  0.00    +0.000 C 
ATOM      2  N   UNL     1      29.289  26.415  21.838  0.00  0.00    +0.000 NA
ATOM      3  C   UNL     1      29.295  25.026  21.961  0.00  0.00    +0.000 C 
ATOM      4  O   UNL     1      29.730  24.225  21.063  0.00  0.00    +0.000 OA
ATOM      5  N   UNL     1      28.748  24.649  23.255  0.00  0.00    +0.000 N 
ATOM      6  C   UNL     1      28.398  25.804  23.931  0.00  0.00    +0.000 C 
ATOM      7  O   UNL     1      27.547  25.978  24.857  0.00  0.00    +0.000 OA
ENDROOT
BRANCH   1   8
ATOM      8  C   UNL     1      27.963  27.964  22.939  0.00  0.00    +0.000 C 
BRANCH   8  10
ATOM      9  C   UNL     1      27.926  29.699  24.815  0.00  0.00    +0.000 C 
ATOM     10  C   UNL     1      28.368  29.262  23.467  0.00  0.00    +0.000 C 
ATOM     11  C   UNL     1      29.053  30.208  22.598  0.00  0.00    +0.000 C 
ENDBRANCH   8  10
ENDBRANCH   1   8
BRANCH   5  12
ATOM     12  C   UNL     1      28.556  23.222  23.469  0.00  0.00    +0.000 C 
BRANCH  12  13
ATOM     13  C   UNL     1      28.887  22.807  24.878  0.00  0.00    +0.000 A 
ATOM     14  C   UNL     1      27.814  22.593  25.759  0.00  0.00    +0.000 A 
ATOM     15  C   UNL     1      27.968  22.468  27.092  0.00  0.00    +0.000 A 
ATOM     16  C   UNL     1      29.265  22.558  27.623  0.00  0.00    +0.000 A 
ATOM     17  C   UNL     1      30.390  22.770  26.801  0.00  0.00    +0.000 A 
ATOM     18  C   UNL     1      30.144  22.889  25.380  0.00  0.00    +0.000 A 
ATOM     19 CL   UNL     1      31.623  23.044  24.390  0.00  0.00    +0.000 Cl
ENDBRANCH  12  13
ENDBRANCH   5  12
TORSDOF 4
ENDMDL
