MODEL 1
REMARK VINA RESULT:      -7.7      0.000      0.000
REMARK  Name = 
REMARK  3 active torsions:
REMARK  status: ('A' for Active; 'I' for Inactive)
REMARK    1  A    between atoms: C_2  and  C_4
REMARK    2  A    between atoms: C_4  and  C_5
REMARK    3  A    between atoms: C_5  and  C_7
REMARK                            x       y       z     vdW  Elec       q    Type
REMARK                         _______ _______ _______ _____ _____    ______ ____
ROOT
ATOM      1  C   UNL     1      14.961  12.611  33.133  0.00  0.00    +0.000 A 
ATOM      2  C   UNL     1      14.058  13.607  33.185  0.00  0.00    +0.000 A 
ATOM      3  C   UNL     1      13.585  14.073  34.382  0.00  0.00    +0.000 A 
ATOM      4  N   UNL     1      12.629  15.134  34.320  0.00  0.00    +0.000 NA
ATOM      5  N   UNL     1      14.014  13.546  35.520  0.00  0.00    +0.000 NA
ATOM      6  C   UNL     1      14.911  12.556  35.481  0.00  0.00    +0.000 A 
ATOM      7  N   UNL     1      15.467  11.892  36.502  0.00  0.00    +0.000 NA
ATOM      8  C   UNL     1      16.307  10.985  36.018  0.00  0.00    +0.000 A 
ATOM      9  C   UNL     1      17.111  10.062  36.663  0.00  0.00    +0.000 A 
ATOM     10  C   UNL     1      17.884   9.242  35.870  0.00  0.00    +0.000 A 
ATOM     11  C   UNL     1      17.829   9.369  34.489  0.00  0.00    +0.000 A 
ATOM     12  C   UNL     1      17.029  10.285  33.860  0.00  0.00    +0.000 A 
ATOM     13  C   UNL     1      16.252  11.111  34.644  0.00  0.00    +0.000 A 
ATOM     14  N   UNL     1      15.392  12.081  34.284  0.00  0.00    +0.000 N 
ENDROOT
BRANCH   1  15
ATOM     15  C   UNL     1      15.540  12.029  31.802  0.00  0.00    +0.000 C 
ATOM     16  C   UNL     1      14.377  10.906  31.534  0.00  0.00    +0.000 C 
BRANCH  15  17
ATOM     17  C   UNL     1      14.783  13.137  30.819  0.00  0.00    +0.000 C 
BRANCH  17  19
ATOM     18  C   UNL     1      15.925  15.362  30.570  0.00  0.00    +0.000 C 
ATOM     19  C   UNL     1      15.878  13.919  30.189  0.00  0.00    +0.000 C 
ATOM     20  C   UNL     1      17.208  13.246  30.163  0.00  0.00    +0.000 C 
ENDBRANCH  17  19
ENDBRANCH  15  17
ENDBRANCH   1  15
TORSDOF 3
ENDMDL
MODEL 2
REMARK VINA RESULT:      -6.9      1.462      2.020
REMARK  Name = 
REMARK  3 active torsions:
REMARK  status: ('A' for Active; 'I' for Inactive)
REMARK    1  A    between atoms: C_2  and  C_4
REMARK    2  A    between atoms: C_4  and  C_5
REMARK    3  A    between atoms: C_5  and  C_7
REMARK                            x       y       z     vdW  Elec       q    Type
REMARK                         _______ _______ _______ _____ _____    ______ ____
ROOT
ATOM      1  C   UNL     1      15.231  11.830  34.866  0.00  0.00    +0.000 A 
ATOM      2  C   UNL     1      14.060  12.463  35.065  0.00  0.00    +0.000 A 
ATOM      3  C   UNL     1      13.517  12.567  36.318  0.00  0.00    +0.000 A 
ATOM      4  N   UNL     1      12.271  13.260  36.415  0.00  0.00    +0.000 NA
ATOM      5  N   UNL     1      14.142  12.044  37.363  0.00  0.00    +0.000 NA
ATOM      6  C   UNL     1      15.304  11.413  37.176  0.00  0.00    +0.000 A 
ATOM      7  N   UNL     1      16.089  10.819  38.085  0.00  0.00    +0.000 NA
ATOM      8  C   UNL     1      17.151  10.314  37.471  0.00  0.00    +0.000 A 
ATOM      9  C   UNL     1      18.236   9.614  37.970  0.00  0.00    +0.000 A 
ATOM     10  C   UNL     1      19.195   9.215  37.064  0.00  0.00    +0.000 A 
ATOM     11  C   UNL     1      19.041   9.521  35.719  0.00  0.00    +0.000 A 
ATOM     12  C   UNL     1      17.963  10.214  35.235  0.00  0.00    +0.000 A 
ATOM     13  C   UNL     1      16.999  10.619  36.133  0.00  0.00    +0.000 A 
ATOM     14  N   UNL     1      15.859  11.302  35.922  0.00  0.00    +0.000 N 
ENDROOT
BRANCH   1  15
ATOM     15  C   UNL     1      15.906  11.671  33.464  0.00  0.00    +0.000 C 
ATOM     16  C   UNL     1      15.009  10.405  32.936  0.00  0.00    +0.000 C 
BRANCH  15  17
ATOM     17  C   UNL     1      14.916  12.769  32.701  0.00  0.00    +0.000 C 
BRANCH  17  19
ATOM     18  C   UNL     1      14.030  12.956  30.356  0.00  0.00    +0.000 C 
ATOM     19  C   UNL     1      15.169  12.586  31.248  0.00  0.00    +0.000 C 
ATOM     20  C   UNL     1      16.502  13.053  30.770  0.00  0.00    +0.000 C 
ENDBRANCH  17  19
ENDBRANCH  15  17
ENDBRANCH   1  15
TORSDOF 3
ENDMDL
MODEL 3
REMARK VINA RESULT:      -6.2     15.865     18.297
REMARK  Name = 
REMARK  3 active torsions:
REMARK  status: ('A' for Active; 'I' for Inactive)
REMARK    1  A    between atoms: C_2  and  C_4
REMARK    2  A    between atoms: C_4  and  C_5
REMARK    3  A    between atoms: C_5  and  C_7
REMARK                            x       y       z     vdW  Elec       q    Type
REMARK                         _______ _______ _______ _____ _____    ______ ____
ROOT
ATOM      1  C   UNL     1      28.388  22.660  29.692  0.00  0.00    +0.000 A 
ATOM      2  C   UNL     1      28.833  22.619  30.961  0.00  0.00    +0.000 A 
ATOM      3  C   UNL     1      30.172  22.582  31.240  0.00  0.00    +0.000 A 
ATOM      4  N   UNL     1      30.533  22.542  32.623  0.00  0.00    +0.000 NA
ATOM      5  N   UNL     1      31.060  22.586  30.257  0.00  0.00    +0.000 NA
ATOM      6  C   UNL     1      30.629  22.626  28.993  0.00  0.00    +0.000 A 
ATOM      7  N   UNL     1      31.351  22.636  27.864  0.00  0.00    +0.000 NA
ATOM      8  C   UNL     1      30.524  22.678  26.827  0.00  0.00    +0.000 A 
ATOM      9  C   UNL     1      30.781  22.703  25.467  0.00  0.00    +0.000 A 
ATOM     10  C   UNL     1      29.691  22.746  24.625  0.00  0.00    +0.000 A 
ATOM     11  C   UNL     1      28.409  22.762  25.157  0.00  0.00    +0.000 A 
ATOM     12  C   UNL     1      28.166  22.738  26.505  0.00  0.00    +0.000 A 
ATOM     13  C   UNL     1      29.249  22.695  27.356  0.00  0.00    +0.000 A 
ATOM     14  N   UNL     1      29.287  22.664  28.701  0.00  0.00    +0.000 N 
ENDROOT
BRANCH   1  15
ATOM     15  C   UNL     1      26.874  22.700  29.302  0.00  0.00    +0.000 C 
ATOM     16  C   UNL     1      26.348  21.563  30.358  0.00  0.00    +0.000 C 
BRANCH  15  17
ATOM     17  C   UNL     1      26.488  23.936  30.346  0.00  0.00    +0.000 C 
BRANCH  17  19
ATOM     18  C   UNL     1      25.457  24.540  28.134  0.00  0.00    +0.000 C 
ATOM     19  C   UNL     1      25.863  24.987  29.500  0.00  0.00    +0.000 C 
ATOM     20  C   UNL     1      24.860  25.847  30.190  0.00  0.00    +0.000 C 
ENDBRANCH  17  19
ENDBRANCH  15  17
ENDBRANCH   1  15
TORSDOF 3
ENDMDL
MODEL 4
REMARK VINA RESULT:      -6.2     17.113     19.786
REMARK  Name = 
REMARK  3 active torsions:
REMARK  status: ('A' for Active; 'I' for Inactive)
REMARK    1  A    between atoms: C_2  and  C_4
REMARK    2  A    between atoms: C_4  and  C_5
REMARK    3  A    between atoms: C_5  and  C_7
REMARK                            x       y       z     vdW  Elec       q    Type
REMARK                         _______ _______ _______ _____ _____    ______ ____
ROOT
ATOM      1  C   UNL     1      27.150  24.377  25.023  0.00  0.00    +0.000 A 
ATOM      2  C   UNL     1      26.195  23.943  24.180  0.00  0.00    +0.000 A 
ATOM      3  C   UNL     1      26.519  23.335  22.997  0.00  0.00    +0.000 A 
ATOM      4  N   UNL     1      25.425  22.914  22.178  0.00  0.00    +0.000 NA
ATOM      5  N   UNL     1      27.788  23.161  22.660  0.00  0.00    +0.000 NA
ATOM      6  C   UNL     1      28.745  23.588  23.489  0.00  0.00    +0.000 A 
ATOM      7  N   UNL     1      30.074  23.513  23.342  0.00  0.00    +0.000 NA
ATOM      8  C   UNL     1      30.655  24.059  24.402  0.00  0.00    +0.000 A 
ATOM      9  C   UNL     1      31.993  24.222  24.715  0.00  0.00    +0.000 A 
ATOM     10  C   UNL     1      32.286  24.839  25.912  0.00  0.00    +0.000 A 
ATOM     11  C   UNL     1      31.254  25.264  26.738  0.00  0.00    +0.000 A 
ATOM     12  C   UNL     1      29.933  25.098  26.419  0.00  0.00    +0.000 A 
ATOM     13  C   UNL     1      29.630  24.481  25.224  0.00  0.00    +0.000 A 
ATOM     14  N   UNL     1      28.431  24.200  24.680  0.00  0.00    +0.000 N 
ENDROOT
BRANCH   1  15
ATOM     15  C   UNL     1      26.852  25.081  26.387  0.00  0.00    +0.000 C 
ATOM     16  C   UNL     1      25.410  25.742  25.978  0.00  0.00    +0.000 C 
BRANCH  15  17
ATOM     17  C   UNL     1      26.120  23.757  27.077  0.00  0.00    +0.000 C 
BRANCH  17  19
ATOM     18  C   UNL     1      26.230  23.312  29.549  0.00  0.00    +0.000 C 
ATOM     19  C   UNL     1      26.962  23.407  28.251  0.00  0.00    +0.000 C 
ATOM     20  C   UNL     1      27.953  22.317  28.022  0.00  0.00    +0.000 C 
ENDBRANCH  17  19
ENDBRANCH  15  17
ENDBRANCH   1  15
TORSDOF 3
ENDMDL
MODEL 5
REMARK VINA RESULT:      -6.0     16.612     19.012
REMARK  Name = 
REMARK  3 active torsions:
REMARK  status: ('A' for Active; 'I' for Inactive)
REMARK    1  A    between atoms: C_2  and  C_4
REMARK    2  A    between atoms: C_4  and  C_5
REMARK    3  A    between atoms: C_5  and  C_7
REMARK                            x       y       z     vdW  Elec       q    Type
REMARK                         _______ _______ _______ _____ _____    ______ ____
ROOT
ATOM      1  C   UNL     1      29.442  22.862  29.386  0.00  0.00    +0.000 A 
ATOM      2  C   UNL     1      28.435  22.657  30.256  0.00  0.00    +0.000 A 
ATOM      3  C   UNL     1      27.168  22.380  29.819  0.00  0.00    +0.000 A 
ATOM      4  N   UNL     1      26.177  22.179  30.830  0.00  0.00    +0.000 NA
ATOM      5  N   UNL     1      26.909  22.308  28.522  0.00  0.00    +0.000 NA
ATOM      6  C   UNL     1      27.900  22.510  27.650  0.00  0.00    +0.000 A 
ATOM      7  N   UNL     1      27.854  22.485  26.311  0.00  0.00    +0.000 NA
ATOM      8  C   UNL     1      29.066  22.740  25.834  0.00  0.00    +0.000 A 
ATOM      9  C   UNL     1      29.525  22.825  24.532  0.00  0.00    +0.000 A 
ATOM     10  C   UNL     1      30.862  23.112  24.356  0.00  0.00    +0.000 A 
ATOM     11  C   UNL     1      31.677  23.300  25.464  0.00  0.00    +0.000 A 
ATOM     12  C   UNL     1      31.212  23.214  26.749  0.00  0.00    +0.000 A 
ATOM     13  C   UNL     1      29.876  22.927  26.936  0.00  0.00    +0.000 A 
ATOM     14  N   UNL     1      29.177  22.789  28.077  0.00  0.00    +0.000 N 
ENDROOT
BRANCH   1  15
ATOM     15  C   UNL     1      30.910  23.186  29.815  0.00  0.00    +0.000 C 
ATOM     16  C   UNL     1      30.567  24.399  30.862  0.00  0.00    +0.000 C 
BRANCH  15  17
ATOM     17  C   UNL     1      30.955  22.060  31.039  0.00  0.00    +0.000 C 
BRANCH  17  19
ATOM     18  C   UNL     1      32.812  21.452  29.458  0.00  0.00    +0.000 C 
ATOM     19  C   UNL     1      32.193  21.272  30.806  0.00  0.00    +0.000 C 
ATOM     20  C   UNL     1      33.167  21.265  31.934  0.00  0.00    +0.000 C 
ENDBRANCH  17  19
ENDBRANCH  15  17
ENDBRANCH   1  15
TORSDOF 3
ENDMDL
MODEL 6
REMARK VINA RESULT:      -6.0     16.823     18.958
REMARK  Name = 
REMARK  3 active torsions:
REMARK  status: ('A' for Active; 'I' for Inactive)
REMARK    1  A    between atoms: C_2  and  C_4
REMARK    2  A    between atoms: C_4  and  C_5
REMARK    3  A    between atoms: C_5  and  C_7
REMARK                            x       y       z     vdW  Elec       q    Type
REMARK                         _______ _______ _______ _____ _____    ______ ____
ROOT
ATOM      1  C   UNL     1      28.452  22.689  27.377  0.00  0.00    +0.000 A 
ATOM      2  C   UNL     1      29.552  22.499  28.129  0.00  0.00    +0.000 A 
ATOM      3  C   UNL     1      30.801  22.504  27.570  0.00  0.00    +0.000 A 
ATOM      4  N   UNL     1      31.899  22.293  28.461  0.00  0.00    +0.000 NA
ATOM      5  N   UNL     1      30.950  22.698  26.267  0.00  0.00    +0.000 NA
ATOM      6  C   UNL     1      29.864  22.887  25.511  0.00  0.00    +0.000 A 
ATOM      7  N   UNL     1      29.793  23.097  24.190  0.00  0.00    +0.000 NA
ATOM      8  C   UNL     1      28.518  23.233  23.845  0.00  0.00    +0.000 A 
ATOM      9  C   UNL     1      27.936  23.462  22.611  0.00  0.00    +0.000 A 
ATOM     10  C   UNL     1      26.561  23.556  22.575  0.00  0.00    +0.000 A 
ATOM     11  C   UNL     1      25.831  23.421  23.748  0.00  0.00    +0.000 A 
ATOM     12  C   UNL     1      26.418  23.196  24.965  0.00  0.00    +0.000 A 
ATOM     13  C   UNL     1      27.793  23.100  25.011  0.00  0.00    +0.000 A 
ATOM     14  N   UNL     1      28.605  22.884  26.062  0.00  0.00    +0.000 N 
ENDROOT
BRANCH   1  15
ATOM     15  C   UNL     1      26.997  22.693  27.949  0.00  0.00    +0.000 C 
ATOM     16  C   UNL     1      27.349  22.104  29.437  0.00  0.00    +0.000 C 
BRANCH  15  17
ATOM     17  C   UNL     1      27.057  24.265  28.489  0.00  0.00    +0.000 C 
BRANCH  17  19
ATOM     18  C   UNL     1      25.421  25.320  30.080  0.00  0.00    +0.000 C 
ATOM     19  C   UNL     1      25.647  24.641  28.769  0.00  0.00    +0.000 C 
ATOM     20  C   UNL     1      24.911  25.251  27.625  0.00  0.00    +0.000 C 
ENDBRANCH  17  19
ENDBRANCH  15  17
ENDBRANCH   1  15
TORSDOF 3
ENDMDL
MODEL 7
REMARK VINA RESULT:      -5.9     16.528     18.881
REMARK  Name = 
REMARK  3 active torsions:
REMARK  status: ('A' for Active; 'I' for Inactive)
REMARK    1  A    between atoms: C_2  and  C_4
REMARK    2  A    between atoms: C_4  and  C_5
REMARK    3  A    between atoms: C_5  and  C_7
REMARK                            x       y       z     vdW  Elec       q    Type
REMARK                         _______ _______ _______ _____ _____    ______ ____
ROOT
ATOM      1  C   UNL     1      28.509  23.064  25.505  0.00  0.00    +0.000 A 
ATOM      2  C   UNL     1      28.122  23.112  24.217  0.00  0.00    +0.000 A 
ATOM      3  C   UNL     1      26.825  23.392  23.879  0.00  0.00    +0.000 A 
ATOM      4  N   UNL     1      26.524  23.419  22.482  0.00  0.00    +0.000 NA
ATOM      5  N   UNL     1      25.922  23.622  24.822  0.00  0.00    +0.000 NA
ATOM      6  C   UNL     1      26.296  23.576  26.103  0.00  0.00    +0.000 A 
ATOM      7  N   UNL     1      25.551  23.774  27.199  0.00  0.00    +0.000 NA
ATOM      8  C   UNL     1      26.319  23.632  28.272  0.00  0.00    +0.000 A 
ATOM      9  C   UNL     1      26.018  23.737  29.618  0.00  0.00    +0.000 A 
ATOM     10  C   UNL     1      27.050  23.530  30.509  0.00  0.00    +0.000 A 
ATOM     11  C   UNL     1      28.320  23.233  30.034  0.00  0.00    +0.000 A 
ATOM     12  C   UNL     1      28.608  23.132  28.699  0.00  0.00    +0.000 A 
ATOM     13  C   UNL     1      27.582  23.337  27.800  0.00  0.00    +0.000 A 
ATOM     14  N   UNL     1      27.596  23.296  26.455  0.00  0.00    +0.000 N 
ENDROOT
BRANCH   1  15
ATOM     15  C   UNL     1      29.971  22.747  25.963  0.00  0.00    +0.000 C 
ATOM     16  C   UNL     1      30.562  22.302  24.501  0.00  0.00    +0.000 C 
BRANCH  15  17
ATOM     17  C   UNL     1      30.521  24.306  25.779  0.00  0.00    +0.000 C 
BRANCH  17  19
ATOM     18  C   UNL     1      32.774  25.245  25.176  0.00  0.00    +0.000 C 
ATOM     19  C   UNL     1      31.996  24.226  25.943  0.00  0.00    +0.000 C 
ATOM     20  C   UNL     1      32.471  24.012  27.339  0.00  0.00    +0.000 C 
ENDBRANCH  17  19
ENDBRANCH  15  17
ENDBRANCH   1  15
TORSDOF 3
ENDMDL
MODEL 8
REMARK VINA RESULT:      -5.9      5.375      7.713
REMARK  Name = 
REMARK  3 active torsions:
REMARK  status: ('A' for Active; 'I' for Inactive)
REMARK    1  A    between atoms: C_2  and  C_4
REMARK    2  A    between atoms: C_4  and  C_5
REMARK    3  A    between atoms: C_5  and  C_7
REMARK                            x       y       z     vdW  Elec       q    Type
REMARK                         _______ _______ _______ _____ _____    ______ ____
ROOT
ATOM      1  C   UNL     1      20.335  12.066  38.155  0.00  0.00    +0.000 A 
ATOM      2  C   UNL     1      19.816  13.179  38.704  0.00  0.00    +0.000 A 
ATOM      3  C   UNL     1      20.620  14.219  39.088  0.00  0.00    +0.000 A 
ATOM      4  N   UNL     1      19.963  15.353  39.660  0.00  0.00    +0.000 NA
ATOM      5  N   UNL     1      21.933  14.146  38.923  0.00  0.00    +0.000 NA
ATOM      6  C   UNL     1      22.458  13.044  38.379  0.00  0.00    +0.000 A 
ATOM      7  N   UNL     1      23.745  12.769  38.127  0.00  0.00    +0.000 NA
ATOM      8  C   UNL     1      23.827  11.562  37.581  0.00  0.00    +0.000 A 
ATOM      9  C   UNL     1      24.924  10.838  37.150  0.00  0.00    +0.000 A 
ATOM     10  C   UNL     1      24.682   9.590  36.619  0.00  0.00    +0.000 A 
ATOM     11  C   UNL     1      23.379   9.117  36.538  0.00  0.00    +0.000 A 
ATOM     12  C   UNL     1      22.300   9.842  36.968  0.00  0.00    +0.000 A 
ATOM     13  C   UNL     1      22.532  11.092  37.501  0.00  0.00    +0.000 A 
ATOM     14  N   UNL     1      21.661  11.995  37.989  0.00  0.00    +0.000 N 
ENDROOT
BRANCH   1  15
ATOM     15  C   UNL     1      19.478  10.841  37.697  0.00  0.00    +0.000 C 
ATOM     16  C   UNL     1      19.019  10.330  39.185  0.00  0.00    +0.000 C 
BRANCH  15  17
ATOM     17  C   UNL     1      18.075  11.712  37.496  0.00  0.00    +0.000 C 
BRANCH  17  19
ATOM     18  C   UNL     1      15.627  11.154  37.618  0.00  0.00    +0.000 C 
ATOM     19  C   UNL     1      17.009  10.700  37.279  0.00  0.00    +0.000 C 
ATOM     20  C   UNL     1      17.110   9.931  36.006  0.00  0.00    +0.000 C 
ENDBRANCH  17  19
ENDBRANCH  15  17
ENDBRANCH   1  15
TORSDOF 3
ENDMDL
MODEL 9
REMARK VINA RESULT:      -5.9     20.778     23.429
REMARK  Name = 
REMARK  3 active torsions:
REMARK  status: ('A' for Active; 'I' for Inactive)
REMARK    1  A    between atoms: C_2  and  C_4
REMARK    2  A    between atoms: C_4  and  C_5
REMARK    3  A    between atoms: C_5  and  C_7
REMARK                            x       y       z     vdW  Elec       q    Type
REMARK                         _______ _______ _______ _____ _____    ______ ____
ROOT
ATOM      1  C   UNL     1      21.472  -9.552  26.005  0.00  0.00    +0.000 A 
ATOM      2  C   UNL     1      22.675  -9.781  25.446  0.00  0.00    +0.000 A 
ATOM      3  C   UNL     1      23.368  -8.778  24.825  0.00  0.00    +0.000 A 
ATOM      4  N   UNL     1      24.636  -9.132  24.266  0.00  0.00    +0.000 NA
ATOM      5  N   UNL     1      22.862  -7.554  24.762  0.00  0.00    +0.000 NA
ATOM      6  C   UNL     1      21.669  -7.316  25.313  0.00  0.00    +0.000 A 
ATOM      7  N   UNL     1      20.985  -6.165  25.361  0.00  0.00    +0.000 NA
ATOM      8  C   UNL     1      19.841  -6.372  26.002  0.00  0.00    +0.000 A 
ATOM      9  C   UNL     1      18.806  -5.505  26.304  0.00  0.00    +0.000 A 
ATOM     10  C   UNL     1      17.732  -6.027  26.992  0.00  0.00    +0.000 A 
ATOM     11  C   UNL     1      17.729  -7.369  27.348  0.00  0.00    +0.000 A 
ATOM     12  C   UNL     1      18.760  -8.219  27.045  0.00  0.00    +0.000 A 
ATOM     13  C   UNL     1      19.839  -7.706  26.356  0.00  0.00    +0.000 A 
ATOM     14  N   UNL     1      20.964  -8.316  25.941  0.00  0.00    +0.000 N 
ENDROOT
BRANCH   1  15
ATOM     15  C   UNL     1      20.625 -10.651  26.727  0.00  0.00    +0.000 C 
ATOM     16  C   UNL     1      21.472 -11.953  26.206  0.00  0.00    +0.000 C 
BRANCH  15  17
ATOM     17  C   UNL     1      21.484 -10.584  28.150  0.00  0.00    +0.000 C 
BRANCH  17  19
ATOM     18  C   UNL     1      20.786 -12.256  29.893  0.00  0.00    +0.000 C 
ATOM     19  C   UNL     1      20.515 -10.953  29.214  0.00  0.00    +0.000 C 
ATOM     20  C   UNL     1      20.130  -9.847  30.137  0.00  0.00    +0.000 C 
ENDBRANCH  17  19
ENDBRANCH  15  17
ENDBRANCH   1  15
TORSDOF 3
ENDMDL
MODEL 10
REMARK VINA RESULT:      -5.9      4.071      6.586
REMARK  Name = 
REMARK  3 active torsions:
REMARK  status: ('A' for Active; 'I' for Inactive)
REMARK    1  A    between atoms: C_2  and  C_4
REMARK    2  A    between atoms: C_4  and  C_5
REMARK    3  A    between atoms: C_5  and  C_7
REMARK                            x       y       z     vdW  Elec       q    Type
REMARK                         _______ _______ _______ _____ _____    ______ ____
ROOT
ATOM      1  C   UNL     1      18.396   9.922  37.847  0.00  0.00    +0.000 A 
ATOM      2  C   UNL     1      17.349   9.855  38.690  0.00  0.00    +0.000 A 
ATOM      3  C   UNL     1      17.526   9.558  40.014  0.00  0.00    +0.000 A 
ATOM      4  N   UNL     1      16.345   9.513  40.820  0.00  0.00    +0.000 NA
ATOM      5  N   UNL     1      18.741   9.330  40.492  0.00  0.00    +0.000 NA
ATOM      6  C   UNL     1      19.787   9.394  39.663  0.00  0.00    +0.000 A 
ATOM      7  N   UNL     1      21.084   9.199  39.938  0.00  0.00    +0.000 NA
ATOM      8  C   UNL     1      21.787   9.358  38.824  0.00  0.00    +0.000 A 
ATOM      9  C   UNL     1      23.148   9.261  38.593  0.00  0.00    +0.000 A 
ATOM     10  C   UNL     1      23.582   9.485  37.304  0.00  0.00    +0.000 A 
ATOM     11  C   UNL     1      22.662   9.791  36.311  0.00  0.00    +0.000 A 
ATOM     12  C   UNL     1      21.316   9.884  36.550  0.00  0.00    +0.000 A 
ATOM     13  C   UNL     1      20.872   9.663  37.836  0.00  0.00    +0.000 A 
ATOM     14  N   UNL     1      19.621   9.692  38.332  0.00  0.00    +0.000 N 
ENDROOT
BRANCH   1  15
ATOM     15  C   UNL     1      18.266  10.253  36.323  0.00  0.00    +0.000 C 
ATOM     16  C   UNL     1      17.964   8.731  35.797  0.00  0.00    +0.000 C 
BRANCH  15  17
ATOM     17  C   UNL     1      16.644  10.617  36.392  0.00  0.00    +0.000 C 
BRANCH  17  19
ATOM     18  C   UNL     1      16.077  11.574  34.137  0.00  0.00    +0.000 C 
ATOM     19  C   UNL     1      16.477  11.832  35.553  0.00  0.00    +0.000 C 
ATOM     20  C   UNL     1      15.749  12.960  36.202  0.00  0.00    +0.000 C 
ENDBRANCH  17  19
ENDBRANCH  15  17
ENDBRANCH   1  15
TORSDOF 3
ENDMDL
