MODEL 1
REMARK VINA RESULT:      -8.2      0.000      0.000
REMARK  Name = 
REMARK  8 active torsions:
REMARK  status: ('A' for Active; 'I' for Inactive)
REMARK    1  A    between atoms: O_2  and  C_3
REMARK    2  A    between atoms: C_6  and  C_7
REMARK    3  A    between atoms: C_7  and  C_8
REMARK    4  A    between atoms: C_8  and  N_9
REMARK    5  A    between atoms: C_10  and  C_12
REMARK    6  A    between atoms: C_14  and  C_15
REMARK    7  A    between atoms: C_18  and  O_19
REMARK    8  A    between atoms: C_21  and  O_22
REMARK                            x       y       z     vdW  Elec       q    Type
REMARK                         _______ _______ _______ _____ _____    ______ ____
ROOT
ATOM      1  C   UNL     1      37.621   0.789  15.293  0.00  0.00    +0.000 A 
ATOM      2  C   UNL     1      38.725   0.208  14.706  0.00  0.00    +0.000 A 
ATOM      3  C   UNL     1      38.900  -1.159  14.674  0.00  0.00    +0.000 A 
ATOM      4  N   UNL     1      37.940  -1.906  15.244  0.00  0.00    +0.000 NA
ATOM      5  C   UNL     1      36.847  -1.405  15.827  0.00  0.00    +0.000 A 
ATOM      6  C   UNL     1      35.874  -2.197  16.407  0.00  0.00    +0.000 A 
ATOM      7  C   UNL     1      34.750  -1.706  17.010  0.00  0.00    +0.000 A 
ATOM      8  C   UNL     1      34.597  -0.321  17.029  0.00  0.00    +0.000 A 
ATOM      9  C   UNL     1      35.553   0.501  16.457  0.00  0.00    +0.000 A 
ATOM     10  C   UNL     1      36.664  -0.022  15.863  0.00  0.00    +0.000 A 
ENDROOT
BRANCH   3  11
ATOM     11  C   UNL     1      40.068  -1.780  14.055  0.00  0.00    +0.000 A 
ATOM     12  C   UNL     1      39.927  -2.635  12.985  0.00  0.00    +0.000 A 
ATOM     13  C   UNL     1      41.021  -3.242  12.373  0.00  0.00    +0.000 A 
ATOM     14  C   UNL     1      42.292  -2.989  12.844  0.00  0.00    +0.000 A 
ATOM     15  C   UNL     1      42.463  -2.136  13.914  0.00  0.00    +0.000 A 
ATOM     16  C   UNL     1      41.346  -1.542  14.506  0.00  0.00    +0.000 A 
BRANCH  14  17
ATOM     17  O   UNL     1      43.398  -3.566  12.271  0.00  0.00    +0.000 OA
ATOM     18  C   UNL     1      43.545  -3.813  10.898  0.00  0.00    +0.000 C 
ENDBRANCH  14  17
BRANCH  15  19
ATOM     19  O   UNL     1      43.747  -1.895  14.371  0.00  0.00    +0.000 OA
ATOM     20  C   UNL     1      44.055  -0.581  14.821  0.00  0.00    +0.000 C 
ENDBRANCH  15  19
ENDBRANCH   3  11
BRANCH   1  22
ATOM     21  N   UNL     1      37.949   3.083  16.333  0.00  0.00    +0.000 NA
ATOM     22  C   UNL     1      37.426   2.229  15.329  0.00  0.00    +0.000 C 
ATOM     23  O   UNL     1      36.751   2.757  14.409  0.00  0.00    +0.000 OA
BRANCH  21  24
ATOM     24  C   UNL     1      37.715   4.528  16.305  0.00  0.00    +0.000 C 
BRANCH  24  25
ATOM     25  C   UNL     1      39.042   5.191  16.026  0.00  0.00    +0.000 C 
BRANCH  25  29
ATOM     26  C   UNL     1      41.201   6.584  19.403  0.00  0.00    +0.000 A 
ATOM     27  C   UNL     1      41.768   6.555  18.149  0.00  0.00    +0.000 A 
ATOM     28  C   UNL     1      41.049   6.101  17.076  0.00  0.00    +0.000 A 
ATOM     29  C   UNL     1      39.731   5.665  17.250  0.00  0.00    +0.000 A 
ATOM     30  C   UNL     1      39.166   5.695  18.505  0.00  0.00    +0.000 A 
ATOM     31  C   UNL     1      39.915   6.160  19.583  0.00  0.00    +0.000 A 
BRANCH  26  33
ATOM     32  C   UNL     1      42.905   6.161  21.044  0.00  0.00    +0.000 C 
ATOM     33  O   UNL     1      41.988   7.057  20.451  0.00  0.00    +0.000 OA
ENDBRANCH  26  33
ENDBRANCH  25  29
ENDBRANCH  24  25
ENDBRANCH  21  24
ENDBRANCH   1  22
TORSDOF 8
ENDMDL
MODEL 2
REMARK VINA RESULT:      -8.2      2.441      8.822
REMARK  Name = 
REMARK  8 active torsions:
REMARK  status: ('A' for Active; 'I' for Inactive)
REMARK    1  A    between atoms: O_2  and  C_3
REMARK    2  A    between atoms: C_6  and  C_7
REMARK    3  A    between atoms: C_7  and  C_8
REMARK    4  A    between atoms: C_8  and  N_9
REMARK    5  A    between atoms: C_10  and  C_12
REMARK    6  A    between atoms: C_14  and  C_15
REMARK    7  A    between atoms: C_18  and  O_19
REMARK    8  A    between atoms: C_21  and  O_22
REMARK                            x       y       z     vdW  Elec       q    Type
REMARK                         _______ _______ _______ _____ _____    ______ ____
ROOT
ATOM      1  C   UNL     1      38.114   1.785  15.070  0.00  0.00    +0.000 A 
ATOM      2  C   UNL     1      38.491   3.041  15.498  0.00  0.00    +0.000 A 
ATOM      3  C   UNL     1      37.818   3.702  16.502  0.00  0.00    +0.000 A 
ATOM      4  N   UNL     1      36.769   3.066  17.050  0.00  0.00    +0.000 NA
ATOM      5  C   UNL     1      36.354   1.851  16.681  0.00  0.00    +0.000 A 
ATOM      6  C   UNL     1      35.271   1.218  17.262  0.00  0.00    +0.000 A 
ATOM      7  C   UNL     1      34.827  -0.023  16.899  0.00  0.00    +0.000 A 
ATOM      8  C   UNL     1      35.526  -0.671  15.881  0.00  0.00    +0.000 A 
ATOM      9  C   UNL     1      36.615  -0.066  15.279  0.00  0.00    +0.000 A 
ATOM     10  C   UNL     1      37.032   1.175  15.665  0.00  0.00    +0.000 A 
ENDROOT
BRANCH   3  11
ATOM     11  C   UNL     1      38.212   5.032  16.959  0.00  0.00    +0.000 A 
ATOM     12  C   UNL     1      38.081   6.128  16.137  0.00  0.00    +0.000 A 
ATOM     13  C   UNL     1      38.447   7.408  16.544  0.00  0.00    +0.000 A 
ATOM     14  C   UNL     1      38.961   7.599  17.809  0.00  0.00    +0.000 A 
ATOM     15  C   UNL     1      39.103   6.520  18.656  0.00  0.00    +0.000 A 
ATOM     16  C   UNL     1      38.726   5.248  18.218  0.00  0.00    +0.000 A 
BRANCH  14  17
ATOM     17  O   UNL     1      39.334   8.844  18.252  0.00  0.00    +0.000 OA
ATOM     18  C   UNL     1      38.440   9.843  18.665  0.00  0.00    +0.000 C 
ENDBRANCH  14  17
BRANCH  15  19
ATOM     19  O   UNL     1      39.619   6.733  19.922  0.00  0.00    +0.000 OA
ATOM     20  C   UNL     1      40.984   6.402  20.146  0.00  0.00    +0.000 C 
ENDBRANCH  15  19
ENDBRANCH   3  11
BRANCH   1  22
ATOM     21  N   UNL     1      39.949   0.246  14.224  0.00  0.00    +0.000 NA
ATOM     22  C   UNL     1      38.820   1.078  14.014  0.00  0.00    +0.000 C 
ATOM     23  O   UNL     1      38.404   1.210  12.836  0.00  0.00    +0.000 OA
BRANCH  21  24
ATOM     24  C   UNL     1      40.610  -0.438  13.111  0.00  0.00    +0.000 C 
BRANCH  24  25
ATOM     25  C   UNL     1      40.808  -1.877  13.524  0.00  0.00    +0.000 C 
BRANCH  25  29
ATOM     26  C   UNL     1      37.372  -3.711  15.209  0.00  0.00    +0.000 A 
ATOM     27  C   UNL     1      38.465  -3.387  15.979  0.00  0.00    +0.000 A 
ATOM     28  C   UNL     1      39.561  -2.796  15.410  0.00  0.00    +0.000 A 
ATOM     29  C   UNL     1      39.573  -2.516  14.040  0.00  0.00    +0.000 A 
ATOM     30  C   UNL     1      38.479  -2.840  13.270  0.00  0.00    +0.000 A 
ATOM     31  C   UNL     1      37.375  -3.442  13.869  0.00  0.00    +0.000 A 
BRANCH  26  33
ATOM     32  C   UNL     1      35.087  -4.451  15.123  0.00  0.00    +0.000 C 
ATOM     33  O   UNL     1      36.291  -4.312  15.849  0.00  0.00    +0.000 OA
ENDBRANCH  26  33
ENDBRANCH  25  29
ENDBRANCH  24  25
ENDBRANCH  21  24
ENDBRANCH   1  22
TORSDOF 8
ENDMDL
MODEL 3
REMARK VINA RESULT:      -8.1      2.276      8.959
REMARK  Name = 
REMARK  8 active torsions:
REMARK  status: ('A' for Active; 'I' for Inactive)
REMARK    1  A    between atoms: O_2  and  C_3
REMARK    2  A    between atoms: C_6  and  C_7
REMARK    3  A    between atoms: C_7  and  C_8
REMARK    4  A    between atoms: C_8  and  N_9
REMARK    5  A    between atoms: C_10  and  C_12
REMARK    6  A    between atoms: C_14  and  C_15
REMARK    7  A    between atoms: C_18  and  O_19
REMARK    8  A    between atoms: C_21  and  O_22
REMARK                            x       y       z     vdW  Elec       q    Type
REMARK                         _______ _______ _______ _____ _____    ______ ____
ROOT
ATOM      1  C   UNL     1      37.373   3.191  16.315  0.00  0.00    +0.000 A 
ATOM      2  C   UNL     1      37.967   4.067  17.199  0.00  0.00    +0.000 A 
ATOM      3  C   UNL     1      39.044   4.849  16.841  0.00  0.00    +0.000 A 
ATOM      4  N   UNL     1      39.494   4.718  15.582  0.00  0.00    +0.000 NA
ATOM      5  C   UNL     1      38.964   3.890  14.678  0.00  0.00    +0.000 A 
ATOM      6  C   UNL     1      39.448   3.775  13.388  0.00  0.00    +0.000 A 
ATOM      7  C   UNL     1      38.922   2.933  12.448  0.00  0.00    +0.000 A 
ATOM      8  C   UNL     1      37.833   2.154  12.836  0.00  0.00    +0.000 A 
ATOM      9  C   UNL     1      37.324   2.245  14.120  0.00  0.00    +0.000 A 
ATOM     10  C   UNL     1      37.873   3.096  15.035  0.00  0.00    +0.000 A 
ENDROOT
BRANCH   3  11
ATOM     11  C   UNL     1      39.677   5.777  17.773  0.00  0.00    +0.000 A 
ATOM     12  C   UNL     1      40.975   6.195  17.581  0.00  0.00    +0.000 A 
ATOM     13  C   UNL     1      41.605   7.079  18.451  0.00  0.00    +0.000 A 
ATOM     14  C   UNL     1      40.920   7.562  19.547  0.00  0.00    +0.000 A 
ATOM     15  C   UNL     1      39.618   7.161  19.764  0.00  0.00    +0.000 A 
ATOM     16  C   UNL     1      39.013   6.273  18.873  0.00  0.00    +0.000 A 
BRANCH  14  17
ATOM     17  O   UNL     1      41.503   8.436  20.431  0.00  0.00    +0.000 OA
ATOM     18  C   UNL     1      41.767   9.786  20.156  0.00  0.00    +0.000 C 
ENDBRANCH  14  17
BRANCH  15  19
ATOM     19  O   UNL     1      38.948   7.657  20.869  0.00  0.00    +0.000 OA
ATOM     20  C   UNL     1      38.112   8.793  20.684  0.00  0.00    +0.000 C 
ENDBRANCH  15  19
ENDBRANCH   3  11
BRANCH   1  22
ATOM     21  N   UNL     1      36.328   1.153  17.413  0.00  0.00    +0.000 NA
ATOM     22  C   UNL     1      36.235   2.365  16.683  0.00  0.00    +0.000 C 
ATOM     23  O   UNL     1      35.090   2.748  16.333  0.00  0.00    +0.000 OA
BRANCH  21  24
ATOM     24  C   UNL     1      35.137   0.372  17.751  0.00  0.00    +0.000 C 
BRANCH  24  25
ATOM     25  C   UNL     1      35.118  -0.832  16.841  0.00  0.00    +0.000 C 
BRANCH  25  29
ATOM     26  C   UNL     1      38.891  -2.695  16.300  0.00  0.00    +0.000 A 
ATOM     27  C   UNL     1      38.275  -2.009  15.279  0.00  0.00    +0.000 A 
ATOM     28  C   UNL     1      37.058  -1.417  15.480  0.00  0.00    +0.000 A 
ATOM     29  C   UNL     1      36.434  -1.506  16.729  0.00  0.00    +0.000 A 
ATOM     30  C   UNL     1      37.051  -2.193  17.750  0.00  0.00    +0.000 A 
ATOM     31  C   UNL     1      38.289  -2.788  17.523  0.00  0.00    +0.000 A 
BRANCH  26  33
ATOM     32  C   UNL     1      40.839  -2.815  14.897  0.00  0.00    +0.000 C 
ATOM     33  O   UNL     1      40.129  -3.275  16.029  0.00  0.00    +0.000 OA
ENDBRANCH  26  33
ENDBRANCH  25  29
ENDBRANCH  24  25
ENDBRANCH  21  24
ENDBRANCH   1  22
TORSDOF 8
ENDMDL
MODEL 4
REMARK VINA RESULT:      -8.1      1.331      2.171
REMARK  Name = 
REMARK  8 active torsions:
REMARK  status: ('A' for Active; 'I' for Inactive)
REMARK    1  A    between atoms: O_2  and  C_3
REMARK    2  A    between atoms: C_6  and  C_7
REMARK    3  A    between atoms: C_7  and  C_8
REMARK    4  A    between atoms: C_8  and  N_9
REMARK    5  A    between atoms: C_10  and  C_12
REMARK    6  A    between atoms: C_14  and  C_15
REMARK    7  A    between atoms: C_18  and  O_19
REMARK    8  A    between atoms: C_21  and  O_22
REMARK                            x       y       z     vdW  Elec       q    Type
REMARK                         _______ _______ _______ _____ _____    ______ ____
ROOT
ATOM      1  C   UNL     1      37.762   1.435  15.064  0.00  0.00    +0.000 A 
ATOM      2  C   UNL     1      38.665   0.666  14.360  0.00  0.00    +0.000 A 
ATOM      3  C   UNL     1      38.564  -0.707  14.299  0.00  0.00    +0.000 A 
ATOM      4  N   UNL     1      37.539  -1.269  14.962  0.00  0.00    +0.000 NA
ATOM      5  C   UNL     1      36.631  -0.581  15.660  0.00  0.00    +0.000 A 
ATOM      6  C   UNL     1      35.586  -1.185  16.334  0.00  0.00    +0.000 A 
ATOM      7  C   UNL     1      34.647  -0.502  17.056  0.00  0.00    +0.000 A 
ATOM      8  C   UNL     1      34.772   0.886  17.101  0.00  0.00    +0.000 A 
ATOM      9  C   UNL     1      35.807   1.522  16.438  0.00  0.00    +0.000 A 
ATOM     10  C   UNL     1      36.728   0.809  15.726  0.00  0.00    +0.000 A 
ENDROOT
BRANCH   3  11
ATOM     11  C   UNL     1      39.517  -1.526  13.555  0.00  0.00    +0.000 A 
ATOM     12  C   UNL     1      40.605  -2.087  14.185  0.00  0.00    +0.000 A 
ATOM     13  C   UNL     1      41.531  -2.873  13.504  0.00  0.00    +0.000 A 
ATOM     14  C   UNL     1      41.366  -3.105  12.154  0.00  0.00    +0.000 A 
ATOM     15  C   UNL     1      40.284  -2.556  11.498  0.00  0.00    +0.000 A 
ATOM     16  C   UNL     1      39.373  -1.772  12.209  0.00  0.00    +0.000 A 
BRANCH  14  17
ATOM     17  O   UNL     1      42.254  -3.874  11.443  0.00  0.00    +0.000 OA
ATOM     18  C   UNL     1      43.636  -3.641  11.382  0.00  0.00    +0.000 C 
ENDBRANCH  14  17
BRANCH  15  19
ATOM     19  O   UNL     1      40.136  -2.800  10.144  0.00  0.00    +0.000 OA
ATOM     20  C   UNL     1      40.514  -1.771   9.238  0.00  0.00    +0.000 C 
ENDBRANCH  15  19
ENDBRANCH   3  11
BRANCH   1  22
ATOM     21  N   UNL     1      38.537   3.594  16.154  0.00  0.00    +0.000 NA
ATOM     22  C   UNL     1      37.858   2.883  15.131  0.00  0.00    +0.000 C 
ATOM     23  O   UNL     1      37.306   3.554  14.224  0.00  0.00    +0.000 OA
BRANCH  21  24
ATOM     24  C   UNL     1      38.596   5.057  16.157  0.00  0.00    +0.000 C 
BRANCH  24  25
ATOM     25  C   UNL     1      38.565   5.503  17.599  0.00  0.00    +0.000 C 
BRANCH  25  29
ATOM     26  C   UNL     1      42.273   6.692  19.286  0.00  0.00    +0.000 A 
ATOM     27  C   UNL     1      41.164   6.468  20.071  0.00  0.00    +0.000 A 
ATOM     28  C   UNL     1      39.981   6.085  19.500  0.00  0.00    +0.000 A 
ATOM     29  C   UNL     1      39.892   5.917  18.115  0.00  0.00    +0.000 A 
ATOM     30  C   UNL     1      41.001   6.142  17.331  0.00  0.00    +0.000 A 
ATOM     31  C   UNL     1      42.196   6.532  17.931  0.00  0.00    +0.000 A 
BRANCH  26  33
ATOM     32  C   UNL     1      44.651   7.029  19.192  0.00  0.00    +0.000 C 
ATOM     33  O   UNL     1      43.446   7.081  19.929  0.00  0.00    +0.000 OA
ENDBRANCH  26  33
ENDBRANCH  25  29
ENDBRANCH  24  25
ENDBRANCH  21  24
ENDBRANCH   1  22
TORSDOF 8
ENDMDL
MODEL 5
REMARK VINA RESULT:      -8.0     23.970     28.730
REMARK  Name = 
REMARK  8 active torsions:
REMARK  status: ('A' for Active; 'I' for Inactive)
REMARK    1  A    between atoms: O_2  and  C_3
REMARK    2  A    between atoms: C_6  and  C_7
REMARK    3  A    between atoms: C_7  and  C_8
REMARK    4  A    between atoms: C_8  and  N_9
REMARK    5  A    between atoms: C_10  and  C_12
REMARK    6  A    between atoms: C_14  and  C_15
REMARK    7  A    between atoms: C_18  and  O_19
REMARK    8  A    between atoms: C_21  and  O_22
REMARK                            x       y       z     vdW  Elec       q    Type
REMARK                         _______ _______ _______ _____ _____    ______ ____
ROOT
ATOM      1  C   UNL     1      12.826   0.280  26.920  0.00  0.00    +0.000 A 
ATOM      2  C   UNL     1      12.278  -0.838  26.326  0.00  0.00    +0.000 A 
ATOM      3  C   UNL     1      11.078  -0.791  25.650  0.00  0.00    +0.000 A 
ATOM      4  N   UNL     1      10.460   0.400  25.595  0.00  0.00    +0.000 NA
ATOM      5  C   UNL     1      10.938   1.519  26.147  0.00  0.00    +0.000 A 
ATOM      6  C   UNL     1      10.280   2.733  26.076  0.00  0.00    +0.000 A 
ATOM      7  C   UNL     1      10.749   3.888  26.635  0.00  0.00    +0.000 A 
ATOM      8  C   UNL     1      11.965   3.814  27.313  0.00  0.00    +0.000 A 
ATOM      9  C   UNL     1      12.649   2.615  27.403  0.00  0.00    +0.000 A 
ATOM     10  C   UNL     1      12.153   1.478  26.833  0.00  0.00    +0.000 A 
ENDROOT
BRANCH   3  11
ATOM     11  C   UNL     1      10.493  -1.972  25.020  0.00  0.00    +0.000 A 
ATOM     12  C   UNL     1      10.941  -3.235  25.337  0.00  0.00    +0.000 A 
ATOM     13  C   UNL     1      10.402  -4.378  24.754  0.00  0.00    +0.000 A 
ATOM     14  C   UNL     1       9.388  -4.259  23.827  0.00  0.00    +0.000 A 
ATOM     15  C   UNL     1       8.919  -3.006  23.492  0.00  0.00    +0.000 A 
ATOM     16  C   UNL     1       9.479  -1.877  24.094  0.00  0.00    +0.000 A 
BRANCH  14  17
ATOM     17  O   UNL     1       8.828  -5.360  23.228  0.00  0.00    +0.000 OA
ATOM     18  C   UNL     1       9.558  -6.412  22.658  0.00  0.00    +0.000 C 
ENDBRANCH  14  17
BRANCH  15  19
ATOM     19  O   UNL     1       7.900  -2.907  22.561  0.00  0.00    +0.000 OA
ATOM     20  C   UNL     1       7.749  -1.672  21.870  0.00  0.00    +0.000 C 
ENDBRANCH  15  19
ENDBRANCH   3  11
BRANCH   1  22
ATOM     21  N   UNL     1      15.362   0.401  27.019  0.00  0.00    +0.000 NA
ATOM     22  C   UNL     1      14.093   0.241  27.632  0.00  0.00    +0.000 C 
ATOM     23  O   UNL     1      14.065   0.056  28.875  0.00  0.00    +0.000 OA
BRANCH  21  24
ATOM     24  C   UNL     1      16.598   0.353  27.801  0.00  0.00    +0.000 C 
BRANCH  24  25
ATOM     25  C   UNL     1      17.659   1.076  27.005  0.00  0.00    +0.000 C 
BRANCH  25  29
ATOM     26  C   UNL     1      19.571  -1.177  23.960  0.00  0.00    +0.000 A 
ATOM     27  C   UNL     1      19.487   0.196  23.894  0.00  0.00    +0.000 A 
ATOM     28  C   UNL     1      18.864   0.898  24.891  0.00  0.00    +0.000 A 
ATOM     29  C   UNL     1      18.312   0.222  25.984  0.00  0.00    +0.000 A 
ATOM     30  C   UNL     1      18.397  -1.150  26.048  0.00  0.00    +0.000 A 
ATOM     31  C   UNL     1      19.034  -1.845  25.023  0.00  0.00    +0.000 A 
BRANCH  26  33
ATOM     32  C   UNL     1      21.017  -1.056  22.044  0.00  0.00    +0.000 C 
ATOM     33  O   UNL     1      20.217  -1.831  22.913  0.00  0.00    +0.000 OA
ENDBRANCH  26  33
ENDBRANCH  25  29
ENDBRANCH  24  25
ENDBRANCH  21  24
ENDBRANCH   1  22
TORSDOF 8
ENDMDL
MODEL 6
REMARK VINA RESULT:      -7.9      1.711      2.077
REMARK  Name = 
REMARK  8 active torsions:
REMARK  status: ('A' for Active; 'I' for Inactive)
REMARK    1  A    between atoms: O_2  and  C_3
REMARK    2  A    between atoms: C_6  and  C_7
REMARK    3  A    between atoms: C_7  and  C_8
REMARK    4  A    between atoms: C_8  and  N_9
REMARK    5  A    between atoms: C_10  and  C_12
REMARK    6  A    between atoms: C_14  and  C_15
REMARK    7  A    between atoms: C_18  and  O_19
REMARK    8  A    between atoms: C_21  and  O_22
REMARK                            x       y       z     vdW  Elec       q    Type
REMARK                         _______ _______ _______ _____ _____    ______ ____
ROOT
ATOM      1  C   UNL     1      37.602   1.339  15.197  0.00  0.00    +0.000 A 
ATOM      2  C   UNL     1      38.538   0.675  14.432  0.00  0.00    +0.000 A 
ATOM      3  C   UNL     1      38.507  -0.692  14.264  0.00  0.00    +0.000 A 
ATOM      4  N   UNL     1      37.518  -1.357  14.885  0.00  0.00    +0.000 NA
ATOM      5  C   UNL     1      36.581  -0.774  15.638  0.00  0.00    +0.000 A 
ATOM      6  C   UNL     1      35.574  -1.482  16.266  0.00  0.00    +0.000 A 
ATOM      7  C   UNL     1      34.607  -0.907  17.043  0.00  0.00    +0.000 A 
ATOM      8  C   UNL     1      34.661   0.478  17.196  0.00  0.00    +0.000 A 
ATOM      9  C   UNL     1      35.656   1.216  16.581  0.00  0.00    +0.000 A 
ATOM     10  C   UNL     1      36.607   0.611  15.812  0.00  0.00    +0.000 A 
ENDROOT
BRANCH   3  11
ATOM     11  C   UNL     1      39.496  -1.400  13.455  0.00  0.00    +0.000 A 
ATOM     12  C   UNL     1      39.208  -1.782  12.164  0.00  0.00    +0.000 A 
ATOM     13  C   UNL     1      40.129  -2.457  11.369  0.00  0.00    +0.000 A 
ATOM     14  C   UNL     1      41.375  -2.761  11.877  0.00  0.00    +0.000 A 
ATOM     15  C   UNL     1      41.692  -2.390  13.167  0.00  0.00    +0.000 A 
ATOM     16  C   UNL     1      40.746  -1.713  13.940  0.00  0.00    +0.000 A 
BRANCH  14  17
ATOM     17  O   UNL     1      42.314  -3.425  11.127  0.00  0.00    +0.000 OA
ATOM     18  C   UNL     1      42.016  -4.369  10.134  0.00  0.00    +0.000 C 
ENDBRANCH  14  17
BRANCH  15  19
ATOM     19  O   UNL     1      42.947  -2.703  13.658  0.00  0.00    +0.000 OA
ATOM     20  C   UNL     1      43.754  -1.638  14.146  0.00  0.00    +0.000 C 
ENDBRANCH  15  19
ENDBRANCH   3  11
BRANCH   1  22
ATOM     21  N   UNL     1      38.203   3.440  16.492  0.00  0.00    +0.000 NA
ATOM     22  C   UNL     1      37.624   2.781  15.378  0.00  0.00    +0.000 C 
ATOM     23  O   UNL     1      37.097   3.495  14.488  0.00  0.00    +0.000 OA
BRANCH  21  24
ATOM     24  C   UNL     1      38.191   4.899  16.606  0.00  0.00    +0.000 C 
BRANCH  24  25
ATOM     25  C   UNL     1      39.276   5.280  17.584  0.00  0.00    +0.000 C 
BRANCH  25  29
ATOM     26  C   UNL     1      38.399   8.513  20.189  0.00  0.00    +0.000 A 
ATOM     27  C   UNL     1      39.351   7.571  20.507  0.00  0.00    +0.000 A 
ATOM     28  C   UNL     1      39.614   6.538  19.648  0.00  0.00    +0.000 A 
ATOM     29  C   UNL     1      38.917   6.437  18.440  0.00  0.00    +0.000 A 
ATOM     30  C   UNL     1      37.965   7.379  18.123  0.00  0.00    +0.000 A 
ATOM     31  C   UNL     1      37.713   8.422  19.012  0.00  0.00    +0.000 A 
BRANCH  26  33
ATOM     32  C   UNL     1      38.365  10.868  20.669  0.00  0.00    +0.000 C 
ATOM     33  O   UNL     1      38.179   9.538  21.107  0.00  0.00    +0.000 OA
ENDBRANCH  26  33
ENDBRANCH  25  29
ENDBRANCH  24  25
ENDBRANCH  21  24
ENDBRANCH   1  22
TORSDOF 8
ENDMDL
MODEL 7
REMARK VINA RESULT:      -7.3     24.928     29.792
REMARK  Name = 
REMARK  8 active torsions:
REMARK  status: ('A' for Active; 'I' for Inactive)
REMARK    1  A    between atoms: O_2  and  C_3
REMARK    2  A    between atoms: C_6  and  C_7
REMARK    3  A    between atoms: C_7  and  C_8
REMARK    4  A    between atoms: C_8  and  N_9
REMARK    5  A    between atoms: C_10  and  C_12
REMARK    6  A    between atoms: C_14  and  C_15
REMARK    7  A    between atoms: C_18  and  O_19
REMARK    8  A    between atoms: C_21  and  O_22
REMARK                            x       y       z     vdW  Elec       q    Type
REMARK                         _______ _______ _______ _____ _____    ______ ____
ROOT
ATOM      1  C   UNL     1      11.867   0.110  26.340  0.00  0.00    +0.000 A 
ATOM      2  C   UNL     1      10.925  -0.672  25.705  0.00  0.00    +0.000 A 
ATOM      3  C   UNL     1       9.726  -0.156  25.263  0.00  0.00    +0.000 A 
ATOM      4  N   UNL     1       9.512   1.153  25.482  0.00  0.00    +0.000 NA
ATOM      5  C   UNL     1      10.383   1.963  26.090  0.00  0.00    +0.000 A 
ATOM      6  C   UNL     1      10.137   3.306  26.303  0.00  0.00    +0.000 A 
ATOM      7  C   UNL     1      11.012   4.153  26.925  0.00  0.00    +0.000 A 
ATOM      8  C   UNL     1      12.218   3.606  27.361  0.00  0.00    +0.000 A 
ATOM      9  C   UNL     1      12.495   2.265  27.164  0.00  0.00    +0.000 A 
ATOM     10  C   UNL     1      11.599   1.446  26.539  0.00  0.00    +0.000 A 
ENDROOT
BRANCH   3  11
ATOM     11  C   UNL     1       8.725  -0.978  24.589  0.00  0.00    +0.000 A 
ATOM     12  C   UNL     1       8.948  -2.318  24.365  0.00  0.00    +0.000 A 
ATOM     13  C   UNL     1       8.013  -3.128  23.726  0.00  0.00    +0.000 A 
ATOM     14  C   UNL     1       6.820  -2.585  23.299  0.00  0.00    +0.000 A 
ATOM     15  C   UNL     1       6.568  -1.245  23.511  0.00  0.00    +0.000 A 
ATOM     16  C   UNL     1       7.526  -0.459  24.155  0.00  0.00    +0.000 A 
BRANCH  14  17
ATOM     17  O   UNL     1       5.870  -3.347  22.665  0.00  0.00    +0.000 OA
ATOM     18  C   UNL     1       6.150  -4.465  21.866  0.00  0.00    +0.000 C 
ENDBRANCH  14  17
BRANCH  15  19
ATOM     19  O   UNL     1       5.365  -0.719  23.075  0.00  0.00    +0.000 OA
ATOM     20  C   UNL     1       5.314   0.673  22.788  0.00  0.00    +0.000 C 
ENDBRANCH  15  19
ENDBRANCH   3  11
BRANCH   1  22
ATOM     21  N   UNL     1      14.356  -0.330  26.091  0.00  0.00    +0.000 NA
ATOM     22  C   UNL     1      13.135  -0.425  26.807  0.00  0.00    +0.000 C 
ATOM     23  O   UNL     1      13.156  -1.010  27.919  0.00  0.00    +0.000 OA
BRANCH  21  24
ATOM     24  C   UNL     1      15.599  -0.890  26.624  0.00  0.00    +0.000 C 
BRANCH  24  25
ATOM     25  C   UNL     1      16.621   0.221  26.638  0.00  0.00    +0.000 C 
BRANCH  25  29
ATOM     26  C   UNL     1      19.751  -0.588  23.890  0.00  0.00    +0.000 A 
ATOM     27  C   UNL     1      19.027  -1.602  24.474  0.00  0.00    +0.000 A 
ATOM     28  C   UNL     1      18.022  -1.313  25.358  0.00  0.00    +0.000 A 
ATOM     29  C   UNL     1      17.725   0.017  25.669  0.00  0.00    +0.000 A 
ATOM     30  C   UNL     1      18.450   1.031  25.085  0.00  0.00    +0.000 A 
ATOM     31  C   UNL     1      19.468   0.714  24.189  0.00  0.00    +0.000 A 
BRANCH  26  33
ATOM     32  C   UNL     1      20.521  -2.046  22.141  0.00  0.00    +0.000 C 
ATOM     33  O   UNL     1      20.760  -0.951  23.001  0.00  0.00    +0.000 OA
ENDBRANCH  26  33
ENDBRANCH  25  29
ENDBRANCH  24  25
ENDBRANCH  21  24
ENDBRANCH   1  22
TORSDOF 8
ENDMDL
MODEL 8
REMARK VINA RESULT:      -7.2     26.407     31.440
REMARK  Name = 
REMARK  8 active torsions:
REMARK  status: ('A' for Active; 'I' for Inactive)
REMARK    1  A    between atoms: O_2  and  C_3
REMARK    2  A    between atoms: C_6  and  C_7
REMARK    3  A    between atoms: C_7  and  C_8
REMARK    4  A    between atoms: C_8  and  N_9
REMARK    5  A    between atoms: C_10  and  C_12
REMARK    6  A    between atoms: C_14  and  C_15
REMARK    7  A    between atoms: C_18  and  O_19
REMARK    8  A    between atoms: C_21  and  O_22
REMARK                            x       y       z     vdW  Elec       q    Type
REMARK                         _______ _______ _______ _____ _____    ______ ____
ROOT
ATOM      1  C   UNL     1      11.317   1.490  28.400  0.00  0.00    +0.000 A 
ATOM      2  C   UNL     1      11.055   2.314  29.474  0.00  0.00    +0.000 A 
ATOM      3  C   UNL     1       9.942   3.126  29.518  0.00  0.00    +0.000 A 
ATOM      4  N   UNL     1       9.117   3.080  28.458  0.00  0.00    +0.000 NA
ATOM      5  C   UNL     1       9.313   2.305  27.389  0.00  0.00    +0.000 A 
ATOM      6  C   UNL     1       8.448   2.277  26.311  0.00  0.00    +0.000 A 
ATOM      7  C   UNL     1       8.630   1.493  25.206  0.00  0.00    +0.000 A 
ATOM      8  C   UNL     1       9.763   0.681  25.187  0.00  0.00    +0.000 A 
ATOM      9  C   UNL     1      10.650   0.684  26.250  0.00  0.00    +0.000 A 
ATOM     10  C   UNL     1      10.438   1.480  27.339  0.00  0.00    +0.000 A 
ENDROOT
BRANCH   3  11
ATOM     11  C   UNL     1       9.660   4.001  30.653  0.00  0.00    +0.000 A 
ATOM     12  C   UNL     1       9.959   3.607  31.938  0.00  0.00    +0.000 A 
ATOM     13  C   UNL     1       9.703   4.418  33.039  0.00  0.00    +0.000 A 
ATOM     14  C   UNL     1       9.131   5.659  32.853  0.00  0.00    +0.000 A 
ATOM     15  C   UNL     1       8.822   6.081  31.577  0.00  0.00    +0.000 A 
ATOM     16  C   UNL     1       9.091   5.244  30.492  0.00  0.00    +0.000 A 
BRANCH  14  17
ATOM     17  O   UNL     1       8.861   6.492  33.911  0.00  0.00    +0.000 OA
ATOM     18  C   UNL     1       7.980   6.187  34.959  0.00  0.00    +0.000 C 
ENDBRANCH  14  17
BRANCH  15  19
ATOM     19  O   UNL     1       8.249   7.330  31.411  0.00  0.00    +0.000 OA
ATOM     20  C   UNL     1       6.851   7.390  31.153  0.00  0.00    +0.000 C 
ENDBRANCH  15  19
ENDBRANCH   3  11
BRANCH   1  22
ATOM     21  N   UNL     1      13.722   0.991  27.754  0.00  0.00    +0.000 NA
ATOM     22  C   UNL     1      12.486   0.628  28.346  0.00  0.00    +0.000 C 
ATOM     23  O   UNL     1      12.399  -0.516  28.860  0.00  0.00    +0.000 OA
BRANCH  21  24
ATOM     24  C   UNL     1      14.860   0.071  27.738  0.00  0.00    +0.000 C 
BRANCH  24  25
ATOM     25  C   UNL     1      15.055  -0.377  26.310  0.00  0.00    +0.000 C 
BRANCH  25  29
ATOM     26  C   UNL     1      19.079   0.038  25.029  0.00  0.00    +0.000 A 
ATOM     27  C   UNL     1      18.301   1.135  25.324  0.00  0.00    +0.000 A 
ATOM     28  C   UNL     1      17.006   0.972  25.735  0.00  0.00    +0.000 A 
ATOM     29  C   UNL     1      16.466  -0.312  25.860  0.00  0.00    +0.000 A 
ATOM     30  C   UNL     1      17.245  -1.408  25.564  0.00  0.00    +0.000 A 
ATOM     31  C   UNL     1      18.560  -1.220  25.147  0.00  0.00    +0.000 A 
BRANCH  26  33
ATOM     32  C   UNL     1      20.583   1.028  23.437  0.00  0.00    +0.000 C 
ATOM     33  O   UNL     1      20.388   0.273  24.615  0.00  0.00    +0.000 OA
ENDBRANCH  26  33
ENDBRANCH  25  29
ENDBRANCH  24  25
ENDBRANCH  21  24
ENDBRANCH   1  22
TORSDOF 8
ENDMDL
MODEL 9
REMARK VINA RESULT:      -7.2      3.331      5.947
REMARK  Name = 
REMARK  8 active torsions:
REMARK  status: ('A' for Active; 'I' for Inactive)
REMARK    1  A    between atoms: O_2  and  C_3
REMARK    2  A    between atoms: C_6  and  C_7
REMARK    3  A    between atoms: C_7  and  C_8
REMARK    4  A    between atoms: C_8  and  N_9
REMARK    5  A    between atoms: C_10  and  C_12
REMARK    6  A    between atoms: C_14  and  C_15
REMARK    7  A    between atoms: C_18  and  O_19
REMARK    8  A    between atoms: C_21  and  O_22
REMARK                            x       y       z     vdW  Elec       q    Type
REMARK                         _______ _______ _______ _____ _____    ______ ____
ROOT
ATOM      1  C   UNL     1      37.952   4.488  15.884  0.00  0.00    +0.000 A 
ATOM      2  C   UNL     1      37.704   3.145  16.080  0.00  0.00    +0.000 A 
ATOM      3  C   UNL     1      36.631   2.507  15.496  0.00  0.00    +0.000 A 
ATOM      4  N   UNL     1      35.829   3.257  14.722  0.00  0.00    +0.000 NA
ATOM      5  C   UNL     1      36.014   4.560  14.492  0.00  0.00    +0.000 A 
ATOM      6  C   UNL     1      35.172   5.308  13.690  0.00  0.00    +0.000 A 
ATOM      7  C   UNL     1      35.341   6.642  13.442  0.00  0.00    +0.000 A 
ATOM      8  C   UNL     1      36.434   7.263  14.045  0.00  0.00    +0.000 A 
ATOM      9  C   UNL     1      37.296   6.543  14.853  0.00  0.00    +0.000 A 
ATOM     10  C   UNL     1      37.099   5.212  15.080  0.00  0.00    +0.000 A 
ENDROOT
BRANCH   3  11
ATOM     11  C   UNL     1      36.364   1.086  15.701  0.00  0.00    +0.000 A 
ATOM     12  C   UNL     1      35.249   0.671  16.393  0.00  0.00    +0.000 A 
ATOM     13  C   UNL     1      34.967  -0.676  16.603  0.00  0.00    +0.000 A 
ATOM     14  C   UNL     1      35.824  -1.637  16.109  0.00  0.00    +0.000 A 
ATOM     15  C   UNL     1      36.949  -1.250  15.411  0.00  0.00    +0.000 A 
ATOM     16  C   UNL     1      37.205   0.109  15.216  0.00  0.00    +0.000 A 
BRANCH  14  17
ATOM     17  O   UNL     1      35.584  -2.976  16.293  0.00  0.00    +0.000 OA
ATOM     18  C   UNL     1      34.627  -3.717  15.585  0.00  0.00    +0.000 C 
ENDBRANCH  14  17
BRANCH  15  19
ATOM     19  O   UNL     1      37.796  -2.230  14.923  0.00  0.00    +0.000 OA
ATOM     20  C   UNL     1      37.711  -2.551  13.540  0.00  0.00    +0.000 C 
ENDBRANCH  15  19
ENDBRANCH   3  11
BRANCH   1  22
ATOM     21  N   UNL     1      39.095   5.672  17.819  0.00  0.00    +0.000 NA
ATOM     22  C   UNL     1      39.082   5.168  16.493  0.00  0.00    +0.000 C 
ATOM     23  O   UNL     1      40.121   5.321  15.802  0.00  0.00    +0.000 OA
BRANCH  21  24
ATOM     24  C   UNL     1      40.273   6.346  18.368  0.00  0.00    +0.000 C 
BRANCH  24  25
ATOM     25  C   UNL     1      40.039   6.518  19.849  0.00  0.00    +0.000 C 
BRANCH  25  29
ATOM     26  C   UNL     1      39.659  10.595  20.964  0.00  0.00    +0.000 A 
ATOM     27  C   UNL     1      40.864  10.070  20.555  0.00  0.00    +0.000 A 
ATOM     28  C   UNL     1      40.959   8.752  20.201  0.00  0.00    +0.000 A 
ATOM     29  C   UNL     1      39.828   7.930  20.251  0.00  0.00    +0.000 A 
ATOM     30  C   UNL     1      38.624   8.456  20.661  0.00  0.00    +0.000 A 
ATOM     31  C   UNL     1      38.550   9.800  21.018  0.00  0.00    +0.000 A 
BRANCH  26  33
ATOM     32  C   UNL     1      38.370  12.551  21.503  0.00  0.00    +0.000 C 
ATOM     33  O   UNL     1      39.631  11.944  21.312  0.00  0.00    +0.000 OA
ENDBRANCH  26  33
ENDBRANCH  25  29
ENDBRANCH  24  25
ENDBRANCH  21  24
ENDBRANCH   1  22
TORSDOF 8
ENDMDL
MODEL 10
REMARK VINA RESULT:      -7.1     24.355     28.925
REMARK  Name = 
REMARK  8 active torsions:
REMARK  status: ('A' for Active; 'I' for Inactive)
REMARK    1  A    between atoms: O_2  and  C_3
REMARK    2  A    between atoms: C_6  and  C_7
REMARK    3  A    between atoms: C_7  and  C_8
REMARK    4  A    between atoms: C_8  and  N_9
REMARK    5  A    between atoms: C_10  and  C_12
REMARK    6  A    between atoms: C_14  and  C_15
REMARK    7  A    between atoms: C_18  and  O_19
REMARK    8  A    between atoms: C_21  and  O_22
REMARK                            x       y       z     vdW  Elec       q    Type
REMARK                         _______ _______ _______ _____ _____    ______ ____
ROOT
ATOM      1  C   UNL     1      11.585  -0.928  25.899  0.00  0.00    +0.000 A 
ATOM      2  C   UNL     1      11.499  -2.038  25.084  0.00  0.00    +0.000 A 
ATOM      3  C   UNL     1      10.472  -2.202  24.181  0.00  0.00    +0.000 A 
ATOM      4  N   UNL     1       9.549  -1.226  24.127  0.00  0.00    +0.000 NA
ATOM      5  C   UNL     1       9.576  -0.127  24.887  0.00  0.00    +0.000 A 
ATOM      6  C   UNL     1       8.614   0.862  24.812  0.00  0.00    +0.000 A 
ATOM      7  C   UNL     1       8.620   1.993  25.580  0.00  0.00    +0.000 A 
ATOM      8  C   UNL     1       9.671   2.135  26.486  0.00  0.00    +0.000 A 
ATOM      9  C   UNL     1      10.651   1.163  26.587  0.00  0.00    +0.000 A 
ATOM     10  C   UNL     1      10.614   0.045  25.804  0.00  0.00    +0.000 A 
ENDROOT
BRANCH   3  11
ATOM     11  C   UNL     1      10.375  -3.375  23.316  0.00  0.00    +0.000 A 
ATOM     12  C   UNL     1      11.344  -4.353  23.343  0.00  0.00    +0.000 A 
ATOM     13  C   UNL     1      11.279  -5.482  22.532  0.00  0.00    +0.000 A 
ATOM     14  C   UNL     1      10.216  -5.641  21.668  0.00  0.00    +0.000 A 
ATOM     15  C   UNL     1       9.230  -4.678  21.620  0.00  0.00    +0.000 A 
ATOM     16  C   UNL     1       9.323  -3.555  22.447  0.00  0.00    +0.000 A 
BRANCH  14  17
ATOM     17  O   UNL     1      10.112  -6.739  20.851  0.00  0.00    +0.000 OA
ATOM     18  C   UNL     1      10.835  -7.929  21.022  0.00  0.00    +0.000 C 
ENDBRANCH  14  17
BRANCH  15  19
ATOM     19  O   UNL     1       8.171  -4.855  20.747  0.00  0.00    +0.000 OA
ATOM     20  C   UNL     1       8.082  -3.984  19.626  0.00  0.00    +0.000 C 
ENDBRANCH  15  19
ENDBRANCH   3  11
BRANCH   1  22
ATOM     21  N   UNL     1      13.899  -0.110  26.554  0.00  0.00    +0.000 NA
ATOM     22  C   UNL     1      12.666  -0.744  26.853  0.00  0.00    +0.000 C 
ATOM     23  O   UNL     1      12.501  -1.174  28.022  0.00  0.00    +0.000 OA
BRANCH  21  24
ATOM     24  C   UNL     1      14.944   0.042  27.567  0.00  0.00    +0.000 C 
BRANCH  24  25
ATOM     25  C   UNL     1      15.959   1.017  27.020  0.00  0.00    +0.000 C 
BRANCH  25  29
ATOM     26  C   UNL     1      19.005  -0.612  24.556  0.00  0.00    +0.000 A 
ATOM     27  C   UNL     1      18.852   0.747  24.706  0.00  0.00    +0.000 A 
ATOM     28  C   UNL     1      17.860   1.246  25.507  0.00  0.00    +0.000 A 
ATOM     29  C   UNL     1      16.999   0.375  26.181  0.00  0.00    +0.000 A 
ATOM     30  C   UNL     1      17.153  -0.985  26.030  0.00  0.00    +0.000 A 
ATOM     31  C   UNL     1      18.168  -1.471  25.209  0.00  0.00    +0.000 A 
BRANCH  26  33
ATOM     32  C   UNL     1      20.664  -0.103  22.892  0.00  0.00    +0.000 C 
ATOM     33  O   UNL     1      20.033  -1.054  23.726  0.00  0.00    +0.000 OA
ENDBRANCH  26  33
ENDBRANCH  25  29
ENDBRANCH  24  25
ENDBRANCH  21  24
ENDBRANCH   1  22
TORSDOF 8
ENDMDL
