
     RDKit          3D

 22 25  0  0  0  0  0  0  0  0999 V2000
   -4.7910   -0.0559    2.3950 C   0  0  0  0  0  0  0  0  0  0  0  0
   -4.1440    0.3653    1.4820 C   0  0  0  0  0  0  0  0  0  0  0  0
   -3.3598    0.8939    0.3948 C   0  0  2  0  0  0  0  0  0  0  0  0
   -3.6907    2.2582    0.2538 O   0  0  0  0  0  0  0  0  0  0  0  0
   -3.7003    0.2702   -0.9469 C   0  0  0  0  0  0  0  0  0  0  0  0
   -2.3567    0.2205   -1.6767 C   0  0  0  0  0  0  0  0  0  0  0  0
   -1.6163   -0.5301   -0.4610 C   0  0  1  0  0  0  0  0  0  0  0  0
   -0.0696   -0.0433   -0.8380 C   0  0  2  0  0  0  0  0  0  0  0  0
    0.1985   -1.2559   -1.8687 C   0  0  0  0  0  0  0  0  0  0  0  0
    1.6504   -0.9306   -2.2612 C   0  0  0  0  0  0  0  0  0  0  0  0
    2.4239   -0.5057   -1.0713 C   0  0  0  0  0  0  0  0  0  0  0  0
    3.7396   -0.1079   -1.3225 C   0  0  0  0  0  0  0  0  0  0  0  0
    4.5819    0.3093   -0.3156 C   0  0  0  0  0  0  0  0  0  0  0  0
    5.9067    0.7098   -0.5691 O   0  0  0  0  0  0  0  0  0  0  0  0
    4.1163    0.3370    0.9832 C   0  0  0  0  0  0  0  0  0  0  0  0
    2.8042   -0.0610    1.2242 C   0  0  0  0  0  0  0  0  0  0  0  0
    2.0128   -0.4636    0.2024 C   0  0  0  0  0  0  0  0  0  0  0  0
    0.5404   -0.9180    0.4840 C   0  0  1  0  0  0  0  0  0  0  0  0
    0.2017    0.2538    1.5382 C   0  0  0  0  0  0  0  0  0  0  0  0
   -1.3197    0.2108    1.7669 C   0  0  0  0  0  0  0  0  0  0  0  0
   -1.9027    0.7171    0.5228 C   0  0  2  0  0  0  0  0  0  0  0  0
   -1.2258    1.9473    0.0835 C   0  0  0  0  0  0  0  0  0  0  0  0
  1  2  3  0
  2  3  1  0
  3  4  1  6
  3  5  1  0
  5  6  1  0
  7  6  1  6
  7  8  1  0
  8  9  1  6
  9 10  1  0
 10 11  1  0
 11 12  2  0
 12 13  1  0
 13 14  1  0
 13 15  2  0
 15 16  1  0
 16 17  2  0
 17 18  1  0
 18 19  1  1
 19 20  1  0
 20 21  1  0
 21 22  1  6
 21  3  1  0
 21  7  1  0
 18  8  1  0
 17 11  1  0
M  END
>  <zinc_id>  (1) 
ZINC000003812897

>  <smiles>  (1) 
C#C[C@]1(O)CC[C@H]2[C@@H]3CCc4cc(O)ccc4[C@H]3CC[C@@]21C

$$$$
