
     RDKit          2D

 21 24  0  0  0  0  0  0  0  0999 V2000
   -3.2182   -1.9391    0.0000 C   0  0  0  0  0  0  0  0  0  0  0  0
   -2.4242   -0.6665    0.0000 C   0  0  0  0  0  0  0  0  0  0  0  0
   -1.5845   -1.9094    0.0000 C   0  0  0  0  0  0  0  0  0  0  0  0
   -0.0883   -1.8037    0.0000 C   0  0  0  0  0  0  0  0  0  0  0  0
    0.5683   -0.4551    0.0000 C   0  0  0  0  0  0  0  0  0  0  0  0
    2.0646   -0.3494    0.0000 C   0  0  0  0  0  0  0  0  0  0  0  0
    2.9043   -1.5923    0.0000 C   0  0  0  0  0  0  0  0  0  0  0  0
    4.4005   -1.4866    0.0000 C   0  0  0  0  0  0  0  0  0  0  0  0
    5.0571   -0.1379    0.0000 C   0  0  0  0  0  0  0  0  0  0  0  0
    6.5534   -0.0322    0.0000 O   0  0  0  0  0  0  0  0  0  0  0  0
    4.2174    1.1050    0.0000 C   0  0  0  0  0  0  0  0  0  0  0  0
    2.7212    0.9993    0.0000 C   0  0  0  0  0  0  0  0  0  0  0  0
    1.8815    2.2423    0.0000 C   0  0  0  0  0  0  0  0  0  0  0  0
    0.3852    2.1366    0.0000 C   0  0  0  0  0  0  0  0  0  0  0  0
   -0.2714    0.7879    0.0000 C   0  0  0  0  0  0  0  0  0  0  0  0
   -1.7676    0.6822    0.0000 C   0  0  0  0  0  0  0  0  0  0  0  0
   -2.8474    1.7234    0.0000 C   0  0  0  0  0  0  0  0  0  0  0  0
   -4.1713    1.0182    0.0000 C   0  0  0  0  0  0  0  0  0  0  0  0
   -5.5200    1.6748    0.0000 O   0  0  0  0  0  0  0  0  0  0  0  0
   -3.9098   -0.4588    0.0000 C   0  0  0  0  0  0  0  0  0  0  0  0
   -4.9510   -1.5386    0.0000 O   0  0  0  0  0  0  0  0  0  0  0  0
  2  1  1  6
  2  3  1  0
  3  4  1  0
  5  4  1  1
  5  6  1  0
  6  7  2  0
  7  8  1  0
  8  9  2  0
  9 10  1  0
  9 11  1  0
 11 12  2  0
 12 13  1  0
 13 14  1  0
 15 14  1  1
 15 16  1  0
 16 17  1  1
 17 18  1  0
 18 19  1  6
 18 20  1  0
 20 21  1  6
 16  2  1  0
 20  2  1  0
 15  5  1  0
 12  6  1  0
M  END
>  <zinc_id>  (1) 
ZINC000000585979

>  <smiles>  (1) 
C[C@@]12CC[C@@H]3c4ccc(O)cc4CC[C@@H]3[C@@H]1C[C@@H](O)[C@H]2O

$$$$
