
     RDKit          3D

 22 25  0  0  0  0  0  0  0  0999 V2000
   -2.4165    0.8579   -2.1755 C   0  0  0  0  0  0  0  0  0  0  0  0
   -2.2058    0.9018   -0.6807 C   0  0  2  0  0  0  0  0  0  0  0  0
   -1.4479    1.9405   -0.1167 C   0  0  0  0  0  0  0  0  0  0  0  0
   -0.0395    1.5070   -0.7955 C   0  0  1  0  0  0  0  0  0  0  0  0
    0.7116    2.9101   -0.5416 C   0  0  0  0  0  0  0  0  0  0  0  0
    0.7878    3.2838    1.1459 Cl  0  0  0  0  0  0  0  0  0  0  0  0
    0.5383    0.7637    0.5996 C   0  0  2  0  0  0  0  0  0  0  0  0
    1.5078   -0.1969   -0.0252 C   0  0  0  0  0  0  0  0  0  0  0  0
    2.0801   -0.0075   -1.2382 C   0  0  0  0  0  0  0  0  0  0  0  0
    3.0079   -0.9529   -1.7468 C   0  0  0  0  0  0  0  0  0  0  0  0
    3.3343   -2.0661   -1.0172 C   0  0  0  0  0  0  0  0  0  0  0  0
    4.2590   -3.0093   -1.5220 O   0  0  0  0  0  0  0  0  0  0  0  0
    2.7501   -2.2546    0.2145 C   0  0  0  0  0  0  0  0  0  0  0  0
    1.8481   -1.3081    0.6765 C   0  0  0  0  0  0  0  0  0  0  0  0
    1.1404   -1.4345    1.9972 C   0  0  0  0  0  0  0  0  0  0  0  0
   -0.2796   -1.5191    1.4309 C   0  0  0  0  0  0  0  0  0  0  0  0
   -0.7932   -0.0632    1.0897 C   0  0  2  0  0  0  0  0  0  0  0  0
   -1.4633   -0.5001   -0.3959 C   0  0  1  0  0  0  0  0  0  0  0  0
   -2.7131   -1.2648    0.2773 C   0  0  0  0  0  0  0  0  0  0  0  0
   -3.1534   -0.2193    1.2314 C   0  0  0  0  0  0  0  0  0  0  0  0
   -3.7000    0.6671   -0.0913 C   0  0  1  0  0  0  0  0  0  0  0  0
   -3.7531    1.9644    0.7213 O   0  0  0  0  0  0  0  0  0  0  0  0
  2  1  1  6
  2  3  1  0
  3  4  1  0
  4  5  1  1
  5  6  1  0
  4  7  1  0
  7  8  1  6
  8  9  2  0
  9 10  1  0
 10 11  2  0
 11 12  1  0
 11 13  1  0
 13 14  2  0
 14 15  1  0
 15 16  1  0
 17 16  1  1
 17 18  1  0
 18 19  1  1
 19 20  1  0
 20 21  1  0
 21 22  1  1
 18  2  1  0
 21  2  1  0
 17  7  1  0
 14  8  1  0
M  END
>  <zinc_id>  (1) 
ZINC000003815449

>  <smiles>  (1) 
C[C@]12C[C@@H](CCl)[C@@H]3c4ccc(O)cc4CC[C@@H]3[C@H]1CC[C@H]2O

$$$$
