
     RDKit          3D

 21 23  0  0  0  0  0  0  0  0999 V2000
   -6.0184   -0.6919   -0.5244 O   0  0  0  0  0  0  0  0  0  0  0  0
   -4.6514   -0.4744   -0.3515 C   0  0  0  0  0  0  0  0  0  0  0  0
   -3.7829   -1.0454   -1.2499 C   0  0  0  0  0  0  0  0  0  0  0  0
   -2.4331   -0.8389   -1.0909 C   0  0  0  0  0  0  0  0  0  0  0  0
   -1.9077   -0.0813   -0.0663 C   0  0  0  0  0  0  0  0  0  0  0  0
   -0.4583    0.1259    0.0838 C   0  0  0  0  0  0  0  0  0  0  0  0
    0.2124    0.8417    1.0346 C   0  0  0  0  0  0  0  0  0  0  0  0
    1.5712    0.7525    0.7724 C   0  0  0  0  0  0  0  0  0  0  0  0
    2.6853    1.2729    1.4011 C   0  0  0  0  0  0  0  0  0  0  0  0
    3.9508    1.0141    0.9072 C   0  0  0  0  0  0  0  0  0  0  0  0
    5.3885    1.6623    1.6855 Cl  0  0  0  0  0  0  0  0  0  0  0  0
    4.0511    0.2268   -0.2222 C   0  0  0  0  0  0  0  0  0  0  0  0
    5.3280   -0.0400   -0.7287 O   0  0  0  0  0  0  0  0  0  0  0  0
    2.9258   -0.2890   -0.8433 C   0  0  0  0  0  0  0  0  0  0  0  0
    1.6600   -0.0353   -0.3565 C   0  0  0  0  0  0  0  0  0  0  0  0
    0.4416   -0.4078   -0.7645 N   0  0  0  0  0  0  0  0  0  0  0  0
    0.1314   -1.2497   -1.9305 C   0  0  0  0  0  0  0  0  0  0  0  0
    0.1006   -2.9790   -1.4382 Cl  0  0  0  0  0  0  0  0  0  0  0  0
   -2.8043    0.4796    0.8206 C   0  0  0  0  0  0  0  0  0  0  0  0
   -2.2289    1.4668    2.1668 Cl  0  0  0  0  0  0  0  0  0  0  0  0
   -4.1619    0.2902    0.6867 C   0  0  0  0  0  0  0  0  0  0  0  0
  1  2  1  0
  2  3  2  0
  3  4  1  0
  4  5  2  0
  5  6  1  0
  6  7  2  0
  7  8  1  0
  8  9  2  0
  9 10  1  0
 10 11  1  0
 10 12  2  0
 12 13  1  0
 12 14  1  0
 14 15  2  0
 15 16  1  0
 16 17  1  0
 17 18  1  0
  5 19  1  0
 19 20  1  0
 19 21  2  0
 21  2  1  0
 16  6  1  0
 15  8  1  0
M  END
>  <zinc_id>  (1) 
ZINC000003815448

>  <smiles>  (1) 
Oc1ccc(-c2cc3cc(Cl)c(O)cc3n2CCl)c(Cl)c1

$$$$
