
     RDKit          3D

 21 22  0  0  0  0  0  0  0  0999 V2000
   -1.3246   -2.0444   -1.3103 C   0  0  0  0  0  0  0  0  0  0  0  0
    0.0386   -1.6675   -0.8625 C   0  0  0  0  0  0  0  0  0  0  0  0
    0.1610   -0.0417   -0.8605 C   0  0  2  0  0  0  0  0  0  0  0  0
    1.6425   -0.0179   -0.3687 C   0  0  0  0  0  0  0  0  0  0  0  0
    2.5242   -0.6484   -1.2089 C   0  0  0  0  0  0  0  0  0  0  0  0
    3.8959   -0.7005   -0.8889 C   0  0  0  0  0  0  0  0  0  0  0  0
    4.3389   -0.1117    0.2753 C   0  0  0  0  0  0  0  0  0  0  0  0
    5.7061   -0.1534    0.6121 O   0  0  0  0  0  0  0  0  0  0  0  0
    6.2002    0.4337    1.7888 C   0  0  0  0  0  0  0  0  0  0  0  0
    3.4232    0.5062    1.0834 C   0  0  0  0  0  0  0  0  0  0  0  0
    2.0684    0.5503    0.7545 C   0  0  0  0  0  0  0  0  0  0  0  0
   -0.5668    0.0981    0.6875 C   0  0  1  0  0  0  0  0  0  0  0  0
   -0.4567    1.7200    0.7653 C   0  0  0  0  0  0  0  0  0  0  0  0
   -1.1871    2.3366   -0.3428 C   0  0  0  0  0  0  0  0  0  0  0  0
   -2.0770    0.0708    0.2013 C   0  0  0  0  0  0  0  0  0  0  0  0
   -2.5063    0.5229   -0.9610 C   0  0  0  0  0  0  0  0  0  0  0  0
   -3.8430    0.4477   -1.2774 C   0  0  0  0  0  0  0  0  0  0  0  0
   -4.7453   -0.0964   -0.3925 C   0  0  0  0  0  0  0  0  0  0  0  0
   -6.1004   -0.1652   -0.7300 O   0  0  0  0  0  0  0  0  0  0  0  0
   -4.2649   -0.5581    0.8097 C   0  0  0  0  0  0  0  0  0  0  0  0
   -2.9271   -0.4809    1.1222 C   0  0  0  0  0  0  0  0  0  0  0  0
  1  2  1  0
  3  2  1  1
  3  4  1  0
  4  5  2  0
  5  6  1  0
  6  7  2  0
  7  8  1  0
  8  9  1  0
  7 10  1  0
 10 11  2  0
  3 12  1  0
 12 13  1  6
 13 14  1  0
 12 15  1  0
 15 16  2  0
 16 17  1  0
 17 18  2  0
 18 19  1  0
 18 20  1  0
 20 21  2  0
 11  4  1  0
 21 15  1  0
M  END
>  <zinc_id>  (1) 
ZINC000001566834

>  <smiles>  (1) 
CC[C@H](c1ccc(OC)cc1)[C@@H](CC)c1ccc(O)cc1

$$$$
