
     RDKit          3D

 22 23  0  0  0  0  0  0  0  0999 V2000
   -0.7323   -0.9802   -2.7953 C   0  0  0  0  0  0  0  0  0  0  0  0
    0.3194   -0.2650   -1.9804 C   0  0  0  0  0  0  0  0  0  0  0  0
    0.0616   -0.8587   -0.4831 C   0  0  2  0  0  0  0  0  0  0  0  0
   -1.4347   -0.3218   -0.4234 C   0  0  0  0  0  0  0  0  0  0  0  0
   -2.4056   -1.2238   -0.0999 C   0  0  0  0  0  0  0  0  0  0  0  0
   -3.7107   -0.7904   -0.0398 C   0  0  0  0  0  0  0  0  0  0  0  0
   -4.7918   -1.7492    0.3101 C   0  0  0  0  0  0  0  0  0  0  0  0
   -4.0401    0.5309   -0.3007 C   0  0  0  0  0  0  0  0  0  0  0  0
   -5.3810    0.8890   -0.2192 O   0  0  0  0  0  0  0  0  0  0  0  0
   -3.0415    1.3918   -0.6183 C   0  0  0  0  0  0  0  0  0  0  0  0
   -3.3857    2.8054   -0.8984 C   0  0  0  0  0  0  0  0  0  0  0  0
   -1.7286    0.9671   -0.6813 C   0  0  0  0  0  0  0  0  0  0  0  0
    0.7672    0.4802    0.3326 C   0  0  1  0  0  0  0  0  0  0  0  0
    0.4632   -0.2030    1.8035 C   0  0  0  0  0  0  0  0  0  0  0  0
    1.0126    0.8197    2.7790 C   0  0  0  0  0  0  0  0  0  0  0  0
    2.2542    0.0383    0.1976 C   0  0  0  0  0  0  0  0  0  0  0  0
    3.0760    1.0754   -0.1742 C   0  0  0  0  0  0  0  0  0  0  0  0
    4.4608    0.8642   -0.3463 C   0  0  0  0  0  0  0  0  0  0  0  0
    4.9670   -0.3719   -0.1405 C   0  0  0  0  0  0  0  0  0  0  0  0
    6.3384   -0.5398   -0.3206 O   0  0  0  0  0  0  0  0  0  0  0  0
    4.1419   -1.4030    0.2305 C   0  0  0  0  0  0  0  0  0  0  0  0
    2.7896   -1.1554    0.3890 C   0  0  0  0  0  0  0  0  0  0  0  0
  1  2  1  0
  3  2  1  6
  3  4  1  0
  4  5  2  0
  5  6  1  0
  6  7  1  0
  6  8  2  0
  8  9  1  0
  8 10  1  0
 10 11  1  0
 10 12  2  0
  3 13  1  0
 13 14  1  1
 14 15  1  0
 13 16  1  0
 16 17  2  0
 17 18  1  0
 18 19  2  0
 19 20  1  0
 19 21  1  0
 21 22  2  0
 12  4  1  0
 22 16  1  0
M  END
>  <zinc_id>  (1) 
ZINC000001666991

>  <smiles>  (1) 
CC[C@H](c1cc(C)c(O)c(C)c1)[C@@H](CC)c1ccc(O)cc1

$$$$
