
     RDKit          2D

 21 24  0  0  0  0  0  0  0  0999 V2000
    1.0087   -1.5838    0.0000 C   0  0  0  0  0  0  0  0  0  0  0  0
    1.7246   -0.2657    0.0000 C   0  0  0  0  0  0  0  0  0  0  0  0
    2.5082   -1.5447    0.0000 C   0  0  0  0  0  0  0  0  0  0  0  0
    4.0077   -1.5056    0.0000 C   0  0  0  0  0  0  0  0  0  0  0  0
    4.7236   -0.1874    0.0000 C   0  0  0  0  0  0  0  0  0  0  0  0
    6.2231   -0.1483    0.0000 O   0  0  0  0  0  0  0  0  0  0  0  0
    3.9400    1.0916    0.0000 C   0  0  0  0  0  0  0  0  0  0  0  0
    2.4405    1.0525    0.0000 C   0  0  0  0  0  0  0  0  0  0  0  0
    1.6569    2.3315    0.0000 C   0  0  0  0  0  0  0  0  0  0  0  0
    0.1574    2.2924    0.0000 C   0  0  0  0  0  0  0  0  0  0  0  0
   -0.5585    0.9743    0.0000 C   0  0  0  0  0  0  0  0  0  0  0  0
    0.2251   -0.3048    0.0000 C   0  0  0  0  0  0  0  0  0  0  0  0
   -0.4908   -1.6229    0.0000 C   0  0  0  0  0  0  0  0  0  0  0  0
   -1.9903   -1.6620    0.0000 C   0  0  0  0  0  0  0  0  0  0  0  0
   -2.7739   -0.3830    0.0000 C   0  0  0  0  0  0  0  0  0  0  0  0
   -3.6236   -1.6191    0.0000 C   0  0  0  0  0  0  0  0  0  0  0  0
   -4.2487   -0.1095    0.0000 C   0  0  0  0  0  0  0  0  0  0  0  0
   -5.3369   -1.1419    0.0000 O   0  0  0  0  0  0  0  0  0  0  0  0
   -4.4444    1.3777    0.0000 C   0  0  0  0  0  0  0  0  0  0  0  0
   -3.0904    2.0233    0.0000 C   0  0  0  0  0  0  0  0  0  0  0  0
   -2.0580    0.9352    0.0000 C   0  0  0  0  0  0  0  0  0  0  0  0
  2  1  1  1
  2  3  1  0
  3  4  1  0
  4  5  1  0
  5  6  1  1
  5  7  1  0
  7  8  1  0
  8  9  2  0
  9 10  1  0
 11 10  1  6
 11 12  1  0
 12 13  1  1
 13 14  1  0
 14 15  1  0
 15 16  1  6
 15 17  1  0
 17 18  1  1
 17 19  1  0
 19 20  1  0
 21 20  1  1
  8  2  1  0
 21 11  1  0
 12  2  1  0
 21 15  1  0
M  END
>  <zinc_id>  (1) 
ZINC000003815421

>  <smiles>  (1) 
C[C@]12CC[C@H](O)CC1=CC[C@@H]1[C@@H]2CC[C@@]2(C)[C@@H](O)CC[C@@H]12

$$$$
