
     RDKit          3D

 21 24  0  0  0  0  0  0  0  0999 V2000
   -2.5207    1.7397    0.3993 C   0  0  0  0  0  0  0  0  0  0  0  0
   -2.5658    0.3801    0.9879 C   0  0  2  0  0  0  0  0  0  0  0  0
   -1.7526    0.1274    2.1680 C   0  0  0  0  0  0  0  0  0  0  0  0
   -0.3275    0.5319    1.8615 C   0  0  0  0  0  0  0  0  0  0  0  0
    0.2135   -0.4634    0.7173 C   0  0  1  0  0  0  0  0  0  0  0  0
   -0.6875    0.2654   -0.5018 C   0  0  1  0  0  0  0  0  0  0  0  0
   -0.2017   -0.7403   -1.6391 C   0  0  0  0  0  0  0  0  0  0  0  0
    1.2204   -0.5181   -1.9143 C   0  0  0  0  0  0  0  0  0  0  0  0
    1.9954   -0.0338   -0.9736 C   0  0  0  0  0  0  0  0  0  0  0  0
    3.4327    0.1743   -1.3013 C   0  0  0  0  0  0  0  0  0  0  0  0
    4.1069   -1.0431   -0.4093 C   0  0  1  0  0  0  0  0  0  0  0  0
    5.5160   -0.5075   -0.6502 O   0  0  0  0  0  0  0  0  0  0  0  0
    3.9505   -0.2069    0.9920 C   0  0  0  0  0  0  0  0  0  0  0  0
    2.5202   -0.3251    1.3996 C   0  0  0  0  0  0  0  0  0  0  0  0
    1.5703    0.3246    0.3835 C   0  0  2  0  0  0  0  0  0  0  0  0
    1.4933    1.7472    0.6458 C   0  0  0  0  0  0  0  0  0  0  0  0
   -2.0205   -0.6729   -0.1266 C   0  0  2  0  0  0  0  0  0  0  0  0
   -2.9886   -0.0175   -1.2316 C   0  0  0  0  0  0  0  0  0  0  0  0
   -4.2923   -0.2844   -0.4779 C   0  0  0  0  0  0  0  0  0  0  0  0
   -3.9428   -0.1133    0.9843 C   0  0  0  0  0  0  0  0  0  0  0  0
   -4.7192   -0.3641    1.8577 O   0  0  0  0  0  0  0  0  0  0  0  0
  2  1  1  6
  2  3  1  0
  3  4  1  0
  5  4  1  1
  5  6  1  0
  6  7  1  6
  7  8  1  0
  8  9  2  0
  9 10  1  0
 10 11  1  0
 11 12  1  6
 11 13  1  0
 13 14  1  0
 14 15  1  0
 15 16  1  6
  6 17  1  0
 17 18  1  6
 18 19  1  0
 19 20  1  0
 20 21  2  0
 17  2  1  0
 20  2  1  0
 15  5  1  0
 15  9  1  0
M  END
>  <zinc_id>  (1) 
ZINC000003807917

>  <smiles>  (1) 
C[C@]12CC[C@H]3[C@@H](CC=C4C[C@@H](O)CC[C@@]43C)[C@@H]1CCC2=O

$$$$
