
     RDKit          3D

 19 21  0  0  0  0  0  0  0  0999 V2000
    1.5027    1.8126   -2.2460 O   0  0  0  0  0  0  0  0  0  0  0  0
    1.1657    1.0462   -1.3111 C   0  0  0  0  0  0  0  0  0  0  0  0
   -0.1621    0.9436   -0.9621 C   0  0  0  0  0  0  0  0  0  0  0  0
   -0.5535    0.1098    0.0592 C   0  0  0  0  0  0  0  0  0  0  0  0
   -1.9681    0.0419    0.3838 C   0  0  0  0  0  0  0  0  0  0  0  0
   -2.4378   -0.7722    1.3961 C   0  0  0  0  0  0  0  0  0  0  0  0
   -3.7741   -0.8499    1.7182 C   0  0  0  0  0  0  0  0  0  0  0  0
   -4.7090   -0.1047    1.0296 C   0  0  0  0  0  0  0  0  0  0  0  0
   -6.0717   -0.1772    1.3504 O   0  0  0  0  0  0  0  0  0  0  0  0
   -4.2452    0.7086    0.0192 C   0  0  0  0  0  0  0  0  0  0  0  0
   -2.9027    0.7840   -0.3013 C   0  0  0  0  0  0  0  0  0  0  0  0
    0.3615   -0.5772    0.6848 O   0  0  0  0  0  0  0  0  0  0  0  0
    1.6412   -0.5149    0.3903 C   0  0  0  0  0  0  0  0  0  0  0  0
    2.5767   -1.2591    1.0777 C   0  0  0  0  0  0  0  0  0  0  0  0
    3.9279   -1.2010    0.7753 C   0  0  0  0  0  0  0  0  0  0  0  0
    4.3748   -0.3813   -0.2396 C   0  0  0  0  0  0  0  0  0  0  0  0
    5.7140   -0.2820   -0.5868 O   0  0  0  0  0  0  0  0  0  0  0  0
    3.4490    0.3713   -0.9382 C   0  0  0  0  0  0  0  0  0  0  0  0
    2.1108    0.3015   -0.6249 C   0  0  0  0  0  0  0  0  0  0  0  0
  1  2  2  0
  2  3  1  0
  3  4  2  0
  4  5  1  0
  5  6  2  0
  6  7  1  0
  7  8  2  0
  8  9  1  0
  8 10  1  0
 10 11  2  0
  4 12  1  0
 12 13  1  0
 13 14  2  0
 14 15  1  0
 15 16  2  0
 16 17  1  0
 16 18  1  0
 18 19  2  0
 19  2  1  0
 11  5  1  0
 19 13  1  0
M  END
>  <zinc_id>  (1) 
ZINC000000057656

>  <smiles>  (1) 
O=c1cc(-c2ccc(O)cc2)oc2ccc(O)cc12

$$$$
