
     RDKit          3D

 20 23  0  0  0  0  0  0  0  0999 V2000
    2.3472   -1.4846    0.1676 C   0  0  0  0  0  0  0  0  0  0  0  0
    2.3411   -0.2056    0.9224 C   0  0  2  0  0  0  0  0  0  0  0  0
    1.4507   -0.0937    2.0626 C   0  0  0  0  0  0  0  0  0  0  0  0
    0.0414   -0.5027    1.6040 C   0  0  0  0  0  0  0  0  0  0  0  0
   -0.3440    0.7492    0.6228 C   0  0  2  0  0  0  0  0  0  0  0  0
   -1.7136    0.2085    0.1510 C   0  0  0  0  0  0  0  0  0  0  0  0
   -2.5492   -0.2692    1.1169 C   0  0  0  0  0  0  0  0  0  0  0  0
   -3.8236   -0.7767    0.7857 C   0  0  0  0  0  0  0  0  0  0  0  0
   -4.2181   -0.7871   -0.5155 C   0  0  0  0  0  0  0  0  0  0  0  0
   -5.4657   -1.2734   -0.9273 O   0  0  0  0  0  0  0  0  0  0  0  0
   -3.3897   -0.3128   -1.4798 C   0  0  0  0  0  0  0  0  0  0  0  0
   -2.1073    0.1978   -1.1437 C   0  0  0  0  0  0  0  0  0  0  0  0
   -1.2304    0.7118   -2.2179 C   0  0  0  0  0  0  0  0  0  0  0  0
    0.0586    1.2636   -1.6696 C   0  0  0  0  0  0  0  0  0  0  0  0
    0.5634    0.0916   -0.6705 C   0  0  1  0  0  0  0  0  0  0  0  0
    1.9182    0.9732   -0.1576 C   0  0  2  0  0  0  0  0  0  0  0  0
    2.9503    0.3283   -1.2586 C   0  0  0  0  0  0  0  0  0  0  0  0
    4.1408    0.3877   -0.3669 C   0  0  0  0  0  0  0  0  0  0  0  0
    5.2928    0.4896   -0.7262 O   0  0  0  0  0  0  0  0  0  0  0  0
    3.7370    0.3047    1.0646 C   0  0  0  0  0  0  0  0  0  0  0  0
  2  1  1  6
  2  3  1  0
  3  4  1  0
  5  4  1  1
  5  6  1  0
  6  7  2  0
  7  8  1  0
  8  9  2  0
  9 10  1  0
  9 11  1  0
 11 12  2  0
 12 13  1  0
 13 14  1  0
 15 14  1  6
 15 16  1  0
 16 17  1  6
 17 18  1  0
 18 19  2  0
 18 20  1  0
 16  2  1  0
 20  2  1  0
 15  5  1  0
 12  6  1  0
M  END
>  <zinc_id>  (1) 
ZINC000003815431

>  <smiles>  (1) 
C[C@]12CC[C@@H]3c4ccc(O)cc4CC[C@H]3[C@@H]1CC(=O)C2

$$$$
