
     RDKit          3D

 20 21  0  0  0  0  0  0  0  0999 V2000
    0.2179    1.6590   -0.6190 O   0  0  0  0  0  0  0  0  0  0  0  0
    0.5292    0.4591   -0.2715 C   0  0  0  0  0  0  0  0  0  0  0  0
   -0.5322   -0.4733   -0.1083 C   0  0  0  0  0  0  0  0  0  0  0  0
   -0.2579   -1.6938    0.2416 O   0  0  0  0  0  0  0  0  0  0  0  0
   -1.9666   -0.2848   -0.2763 C   0  0  0  0  0  0  0  0  0  0  0  0
   -2.8054   -1.3983   -0.0463 C   0  0  0  0  0  0  0  0  0  0  0  0
   -4.1473   -1.3085   -0.1804 C   0  0  0  0  0  0  0  0  0  0  0  0
   -4.7218   -0.1235   -0.5453 C   0  0  0  0  0  0  0  0  0  0  0  0
   -6.0987   -0.0705   -0.6723 O   0  0  0  0  0  0  0  0  0  0  0  0
   -3.9593    0.9656   -0.7750 C   0  0  0  0  0  0  0  0  0  0  0  0
   -2.5624    0.8666   -0.6340 C   0  0  0  0  0  0  0  0  0  0  0  0
   -1.9083    2.0515   -0.8982 O   0  0  0  0  0  0  0  0  0  0  0  0
    1.9642    0.2730   -0.1040 C   0  0  0  0  0  0  0  0  0  0  0  0
    2.8030    1.3998   -0.3377 C   0  0  0  0  0  0  0  0  0  0  0  0
    4.1570    1.3383   -0.2103 C   0  0  0  0  0  0  0  0  0  0  0  0
    4.7488    0.1530    0.1563 C   0  0  0  0  0  0  0  0  0  0  0  0
    6.1395    0.0819    0.2893 O   0  0  0  0  0  0  0  0  0  0  0  0
    3.9517   -0.9136    0.3772 C   0  0  0  0  0  0  0  0  0  0  0  0
    2.5477   -0.8977    0.2580 C   0  0  0  0  0  0  0  0  0  0  0  0
    1.9011   -2.0838    0.5234 O   0  0  0  0  0  0  0  0  0  0  0  0
  1  2  2  0
  2  3  1  0
  3  4  2  0
  3  5  1  0
  5  6  2  0
  6  7  1  0
  7  8  2  0
  8  9  1  0
  8 10  1  0
 10 11  2  0
 11 12  1  0
  2 13  1  0
 13 14  2  0
 14 15  1  0
 15 16  2  0
 16 17  1  0
 16 18  1  0
 18 19  2  0
 19 20  1  0
 11  5  1  0
 19 13  1  0
M  END
>  <zinc_id>  (1) 
ZINC000001587804

>  <smiles>  (1) 
O=C(C(=O)c1ccc(O)cc1O)c1ccc(O)cc1O

$$$$
