
     RDKit          3D

 19 20  0  0  0  0  0  0  0  0999 V2000
   -4.7152   -2.0315   -0.6121 O   0  0  0  0  0  0  0  0  0  0  0  0
   -3.5376   -1.2802   -0.5566 C   0  0  0  0  0  0  0  0  0  0  0  0
   -3.1040   -0.6861    0.6113 C   0  0  0  0  0  0  0  0  0  0  0  0
   -1.9473    0.0596    0.6937 C   0  0  0  0  0  0  0  0  0  0  0  0
   -1.1664    0.2383   -0.4251 C   0  0  0  0  0  0  0  0  0  0  0  0
    0.0848    1.0228   -0.4161 C   0  0  0  0  0  0  0  0  0  0  0  0
    1.2455    0.1579   -0.0965 C   0  0  0  0  0  0  0  0  0  0  0  0
    1.6932   -0.0643    1.1931 C   0  0  0  0  0  0  0  0  0  0  0  0
    2.7884   -0.8924    1.3682 C   0  0  0  0  0  0  0  0  0  0  0  0
    3.4425   -1.4977    0.3136 C   0  0  0  0  0  0  0  0  0  0  0  0
    4.5496   -2.3329    0.5115 O   0  0  0  0  0  0  0  0  0  0  0  0
    2.9843   -1.2664   -0.9660 C   0  0  0  0  0  0  0  0  0  0  0  0
    1.8935   -0.4433   -1.1578 C   0  0  0  0  0  0  0  0  0  0  0  0
    0.0166    2.2338    0.4662 C   0  0  0  0  0  0  0  0  0  0  0  0
   -0.3088    1.8422    2.1585 Cl  0  0  0  0  0  0  0  0  0  0  0  0
    1.6059    3.0460    0.3972 Cl  0  0  0  0  0  0  0  0  0  0  0  0
   -1.1828    3.3439   -0.2084 Cl  0  0  0  0  0  0  0  0  0  0  0  0
   -1.5914   -0.3519   -1.5984 C   0  0  0  0  0  0  0  0  0  0  0  0
   -2.7508   -1.0980   -1.6760 C   0  0  0  0  0  0  0  0  0  0  0  0
  1  2  1  0
  2  3  2  0
  3  4  1  0
  4  5  2  0
  5  6  1  0
  6  7  1  0
  7  8  2  0
  8  9  1  0
  9 10  2  0
 10 11  1  0
 10 12  1  0
 12 13  2  0
  6 14  1  0
 14 15  1  0
 14 16  1  0
 14 17  1  0
  5 18  1  0
 18 19  2  0
 19  2  1  0
 13  7  1  0
M  END
>  <zinc_id>  (1) 
ZINC000000283101

>  <smiles>  (1) 
Oc1ccc(C(c2ccc(O)cc2)C(Cl)(Cl)Cl)cc1

$$$$
