MODEL 1
REMARK VINA RESULT:      -7.2      0.000      0.000
REMARK  Name = 
REMARK  7 active torsions:
REMARK  status: ('A' for Active; 'I' for Inactive)
REMARK    1  A    between atoms: N_2  and  C_4
REMARK    2  A    between atoms: C_4  and  C_5
REMARK    3  A    between atoms: C_5  and  C_6
REMARK    4  A    between atoms: C_6  and  N_7
REMARK    5  A    between atoms: C_13  and  C_14
REMARK    6  A    between atoms: N_16  and  C_17
REMARK    7  A    between atoms: C_20  and  C_21
REMARK                            x       y       z     vdW  Elec       q    Type
REMARK                         _______ _______ _______ _____ _____    ______ ____
ROOT
ATOM      1  C   UNL     1      37.394   0.940  14.376  0.00  0.00    +0.000 C 
ATOM      2  O   UNL     1      37.315   0.134  13.413  0.00  0.00    +0.000 OA
ATOM      3  N   UNL     1      38.630   0.917  15.098  0.00  0.00    +0.000 NA
ENDROOT
BRANCH   1  10
ATOM      4  N   UNL     1      35.513   0.102  16.191  0.00  0.00    +0.000 NA
ATOM      5  C   UNL     1      35.357   1.391  15.668  0.00  0.00    +0.000 A 
ATOM      6  N   UNL     1      34.360   2.236  15.993  0.00  0.00    +0.000 NA
ATOM      7  C   UNL     1      34.208   3.460  15.501  0.00  0.00    +0.000 A 
ATOM      8  C   UNL     1      35.120   3.926  14.591  0.00  0.00    +0.000 A 
ATOM      9  C   UNL     1      36.162   3.101  14.224  0.00  0.00    +0.000 A 
ATOM     10  C   UNL     1      36.309   1.839  14.739  0.00  0.00    +0.000 A 
BRANCH   4  11
ATOM     11  C   UNL     1      34.763  -0.626  17.108  0.00  0.00    +0.000 C 
BRANCH  11  12
ATOM     12  C   UNL     1      34.778  -2.091  17.106  0.00  0.00    +0.000 C 
BRANCH  12  13
ATOM     13  C   UNL     1      35.868  -2.808  16.420  0.00  0.00    +0.000 C 
BRANCH  13  15
ATOM     14  C   UNL     1      36.721  -3.381  14.252  0.00  0.00    +0.000 C 
ATOM     15  N   UNL     1      35.554  -3.077  15.036  0.00  0.00    +0.000 NA
ATOM     16  C   UNL     1      34.495  -4.038  14.873  0.00  0.00    +0.000 C 
ENDBRANCH  13  15
ENDBRANCH  12  13
ENDBRANCH  11  12
ENDBRANCH   4  11
ENDBRANCH   1  10
BRANCH   3  17
ATOM     17  C   UNL     1      39.699   0.044  14.756  0.00  0.00    +0.000 A 
ATOM     18  C   UNL     1      40.724   0.583  14.006  0.00  0.00    +0.000 A 
ATOM     19  C   UNL     1      41.800  -0.196  13.631  0.00  0.00    +0.000 A 
ATOM     20  C   UNL     1      41.868  -1.517  13.996  0.00  0.00    +0.000 A 
ATOM     21  C   UNL     1      40.848  -2.038  14.737  0.00  0.00    +0.000 A 
ATOM     22  C   UNL     1      39.746  -1.274  15.131  0.00  0.00    +0.000 A 
BRANCH  20  23
ATOM     23  C   UNL     1      43.027  -2.293  13.573  0.00  0.00    +0.000 A 
ATOM     24  C   UNL     1      43.083  -3.113  12.458  0.00  0.00    +0.000 A 
ATOM     25  C   UNL     1      44.348  -3.657  12.421  0.00  0.00    +0.000 A 
ATOM     26  C   UNL     1      45.023  -4.519  11.600  0.00  0.00    +0.000 A 
ATOM     27  C   UNL     1      46.332  -4.912  11.798  0.00  0.00    +0.000 A 
ATOM     28  C   UNL     1      46.986  -4.389  12.903  0.00  0.00    +0.000 A 
ATOM     29  C   UNL     1      46.324  -3.519  13.742  0.00  0.00    +0.000 A 
ATOM     30  C   UNL     1      45.008  -3.145  13.513  0.00  0.00    +0.000 A 
ATOM     31  O   UNL     1      44.193  -2.350  14.159  0.00  0.00    +0.000 OA
ENDBRANCH  20  23
ENDBRANCH   3  17
TORSDOF 7
ENDMDL
MODEL 2
REMARK VINA RESULT:      -6.8      4.426      8.931
REMARK  Name = 
REMARK  7 active torsions:
REMARK  status: ('A' for Active; 'I' for Inactive)
REMARK    1  A    between atoms: N_2  and  C_4
REMARK    2  A    between atoms: C_4  and  C_5
REMARK    3  A    between atoms: C_5  and  C_6
REMARK    4  A    between atoms: C_6  and  N_7
REMARK    5  A    between atoms: C_13  and  C_14
REMARK    6  A    between atoms: N_16  and  C_17
REMARK    7  A    between atoms: C_20  and  C_21
REMARK                            x       y       z     vdW  Elec       q    Type
REMARK                         _______ _______ _______ _____ _____    ______ ____
ROOT
ATOM      1  C   UNL     1      40.060   0.641  13.150  0.00  0.00    +0.000 C 
ATOM      2  O   UNL     1      40.685   0.530  14.236  0.00  0.00    +0.000 OA
ATOM      3  N   UNL     1      39.153   1.745  13.071  0.00  0.00    +0.000 NA
ENDROOT
BRANCH   1  10
ATOM      4  N   UNL     1      38.804  -1.799  13.227  0.00  0.00    +0.000 NA
ATOM      5  C   UNL     1      39.591  -1.528  12.101  0.00  0.00    +0.000 A 
ATOM      6  N   UNL     1      39.768  -2.372  11.067  0.00  0.00    +0.000 NA
ATOM      7  C   UNL     1      40.511  -2.120   9.997  0.00  0.00    +0.000 A 
ATOM      8  C   UNL     1      41.160  -0.916   9.909  0.00  0.00    +0.000 A 
ATOM      9  C   UNL     1      41.011  -0.014  10.941  0.00  0.00    +0.000 A 
ATOM     10  C   UNL     1      40.240  -0.285  12.042  0.00  0.00    +0.000 A 
BRANCH   4  11
ATOM     11  C   UNL     1      38.047  -2.908  13.587  0.00  0.00    +0.000 C 
BRANCH  11  12
ATOM     12  C   UNL     1      37.585  -3.096  14.965  0.00  0.00    +0.000 C 
BRANCH  12  13
ATOM     13  C   UNL     1      37.537  -1.942  15.881  0.00  0.00    +0.000 C 
BRANCH  13  15
ATOM     14  C   UNL     1      35.714  -0.385  15.953  0.00  0.00    +0.000 C 
ATOM     15  N   UNL     1      36.198  -1.678  16.353  0.00  0.00    +0.000 NA
ATOM     16  C   UNL     1      35.276  -2.744  16.063  0.00  0.00    +0.000 C 
ENDBRANCH  13  15
ENDBRANCH  12  13
ENDBRANCH  11  12
ENDBRANCH   4  11
ENDBRANCH   1  10
BRANCH   3  17
ATOM     17  C   UNL     1      38.965   2.659  14.146  0.00  0.00    +0.000 A 
ATOM     18  C   UNL     1      39.809   3.748  14.188  0.00  0.00    +0.000 A 
ATOM     19  C   UNL     1      39.694   4.683  15.198  0.00  0.00    +0.000 A 
ATOM     20  C   UNL     1      38.741   4.543  16.174  0.00  0.00    +0.000 A 
ATOM     21  C   UNL     1      37.913   3.460  16.122  0.00  0.00    +0.000 A 
ATOM     22  C   UNL     1      38.005   2.498  15.112  0.00  0.00    +0.000 A 
BRANCH  20  23
ATOM     23  C   UNL     1      38.665   5.559  17.217  0.00  0.00    +0.000 A 
ATOM     24  C   UNL     1      39.410   5.572  18.385  0.00  0.00    +0.000 A 
ATOM     25  C   UNL     1      39.035   6.695  19.088  0.00  0.00    +0.000 A 
ATOM     26  C   UNL     1      39.383   7.268  20.282  0.00  0.00    +0.000 A 
ATOM     27  C   UNL     1      38.834   8.438  20.769  0.00  0.00    +0.000 A 
ATOM     28  C   UNL     1      37.872   9.056  19.984  0.00  0.00    +0.000 A 
ATOM     29  C   UNL     1      37.508   8.495  18.779  0.00  0.00    +0.000 A 
ATOM     30  C   UNL     1      38.080   7.318  18.320  0.00  0.00    +0.000 A 
ATOM     31  O   UNL     1      37.896   6.615  17.231  0.00  0.00    +0.000 OA
ENDBRANCH  20  23
ENDBRANCH   3  17
TORSDOF 7
ENDMDL
MODEL 3
REMARK VINA RESULT:      -6.8      5.278      7.962
REMARK  Name = 
REMARK  7 active torsions:
REMARK  status: ('A' for Active; 'I' for Inactive)
REMARK    1  A    between atoms: N_2  and  C_4
REMARK    2  A    between atoms: C_4  and  C_5
REMARK    3  A    between atoms: C_5  and  C_6
REMARK    4  A    between atoms: C_6  and  N_7
REMARK    5  A    between atoms: C_13  and  C_14
REMARK    6  A    between atoms: N_16  and  C_17
REMARK    7  A    between atoms: C_20  and  C_21
REMARK                            x       y       z     vdW  Elec       q    Type
REMARK                         _______ _______ _______ _____ _____    ______ ____
ROOT
ATOM      1  C   UNL     1      35.951   5.458  14.272  0.00  0.00    +0.000 C 
ATOM      2  O   UNL     1      37.152   5.155  14.491  0.00  0.00    +0.000 OA
ATOM      3  N   UNL     1      34.998   4.423  14.537  0.00  0.00    +0.000 NA
ENDROOT
BRANCH   1  10
ATOM      4  N   UNL     1      36.832   7.703  15.580  0.00  0.00    +0.000 NA
ATOM      5  C   UNL     1      36.008   7.903  14.466  0.00  0.00    +0.000 A 
ATOM      6  N   UNL     1      35.626   9.107  14.000  0.00  0.00    +0.000 NA
ATOM      7  C   UNL     1      34.845   9.302  12.944  0.00  0.00    +0.000 A 
ATOM      8  C   UNL     1      34.378   8.214  12.255  0.00  0.00    +0.000 A 
ATOM      9  C   UNL     1      34.741   6.957  12.690  0.00  0.00    +0.000 A 
ATOM     10  C   UNL     1      35.548   6.767  13.783  0.00  0.00    +0.000 A 
BRANCH   4  11
ATOM     11  C   UNL     1      37.443   8.594  16.456  0.00  0.00    +0.000 C 
BRANCH  11  12
ATOM     12  C   UNL     1      37.892   8.164  17.783  0.00  0.00    +0.000 C 
BRANCH  12  13
ATOM     13  C   UNL     1      38.471   6.820  17.956  0.00  0.00    +0.000 C 
BRANCH  13  15
ATOM     14  C   UNL     1      40.355   6.100  19.256  0.00  0.00    +0.000 C 
ATOM     15  N   UNL     1      39.018   6.630  19.279  0.00  0.00    +0.000 NA
ATOM     16  C   UNL     1      38.883   7.790  20.118  0.00  0.00    +0.000 C 
ENDBRANCH  13  15
ENDBRANCH  12  13
ENDBRANCH  11  12
ENDBRANCH   4  11
ENDBRANCH   1  10
BRANCH   3  17
ATOM     17  C   UNL     1      35.377   3.138  15.014  0.00  0.00    +0.000 A 
ATOM     18  C   UNL     1      35.925   2.271  14.093  0.00  0.00    +0.000 A 
ATOM     19  C   UNL     1      36.320   1.003  14.474  0.00  0.00    +0.000 A 
ATOM     20  C   UNL     1      36.173   0.587  15.772  0.00  0.00    +0.000 A 
ATOM     21  C   UNL     1      35.629   1.454  16.675  0.00  0.00    +0.000 A 
ATOM     22  C   UNL     1      35.220   2.742  16.318  0.00  0.00    +0.000 A 
BRANCH  20  23
ATOM     23  C   UNL     1      36.606  -0.761  16.120  0.00  0.00    +0.000 A 
ATOM     24  C   UNL     1      36.010  -1.935  15.687  0.00  0.00    +0.000 A 
ATOM     25  C   UNL     1      36.723  -2.975  16.241  0.00  0.00    +0.000 A 
ATOM     26  C   UNL     1      36.652  -4.342  16.207  0.00  0.00    +0.000 A 
ATOM     27  C   UNL     1      37.522  -5.179  16.877  0.00  0.00    +0.000 A 
ATOM     28  C   UNL     1      38.524  -4.579  17.624  0.00  0.00    +0.000 A 
ATOM     29  C   UNL     1      38.612  -3.204  17.671  0.00  0.00    +0.000 A 
ATOM     30  C   UNL     1      37.721  -2.392  16.985  0.00  0.00    +0.000 A 
ATOM     31  O   UNL     1      37.613  -1.092  16.884  0.00  0.00    +0.000 OA
ENDBRANCH  20  23
ENDBRANCH   3  17
TORSDOF 7
ENDMDL
MODEL 4
REMARK VINA RESULT:      -6.8      5.522      9.624
REMARK  Name = 
REMARK  7 active torsions:
REMARK  status: ('A' for Active; 'I' for Inactive)
REMARK    1  A    between atoms: N_2  and  C_4
REMARK    2  A    between atoms: C_4  and  C_5
REMARK    3  A    between atoms: C_5  and  C_6
REMARK    4  A    between atoms: C_6  and  N_7
REMARK    5  A    between atoms: C_13  and  C_14
REMARK    6  A    between atoms: N_16  and  C_17
REMARK    7  A    between atoms: C_20  and  C_21
REMARK                            x       y       z     vdW  Elec       q    Type
REMARK                         _______ _______ _______ _____ _____    ______ ____
ROOT
ATOM      1  C   UNL     1      37.796   0.315  12.308  0.00  0.00    +0.000 C 
ATOM      2  O   UNL     1      36.572   0.116  12.095  0.00  0.00    +0.000 OA
ATOM      3  N   UNL     1      38.428   1.256  11.434  0.00  0.00    +0.000 NA
ENDROOT
BRANCH   1  10
ATOM      4  N   UNL     1      37.074   0.751  14.920  0.00  0.00    +0.000 NA
ATOM      5  C   UNL     1      38.145  -0.123  14.697  0.00  0.00    +0.000 A 
ATOM      6  N   UNL     1      38.833  -0.757  15.666  0.00  0.00    +0.000 NA
ATOM      7  C   UNL     1      39.848  -1.587  15.461  0.00  0.00    +0.000 A 
ATOM      8  C   UNL     1      40.248  -1.839  14.175  0.00  0.00    +0.000 A 
ATOM      9  C   UNL     1      39.576  -1.217  13.145  0.00  0.00    +0.000 A 
ATOM     10  C   UNL     1      38.529  -0.360  13.369  0.00  0.00    +0.000 A 
BRANCH   4  11
ATOM     11  C   UNL     1      36.459   1.190  16.087  0.00  0.00    +0.000 C 
BRANCH  11  12
ATOM     12  C   UNL     1      35.484   0.353  16.791  0.00  0.00    +0.000 C 
BRANCH  12  13
ATOM     13  C   UNL     1      35.652   0.092  18.232  0.00  0.00    +0.000 C 
BRANCH  13  15
ATOM     14  C   UNL     1      35.765  -2.153  17.393  0.00  0.00    +0.000 C 
ATOM     15  N   UNL     1      36.048  -1.272  18.493  0.00  0.00    +0.000 NA
ATOM     16  C   UNL     1      37.398  -1.386  18.977  0.00  0.00    +0.000 C 
ENDBRANCH  13  15
ENDBRANCH  12  13
ENDBRANCH  11  12
ENDBRANCH   4  11
ENDBRANCH   1  10
BRANCH   3  17
ATOM     17  C   UNL     1      37.726   1.924  10.393  0.00  0.00    +0.000 A 
ATOM     18  C   UNL     1      37.362   3.233  10.631  0.00  0.00    +0.000 A 
ATOM     19  C   UNL     1      36.677   3.953   9.672  0.00  0.00    +0.000 A 
ATOM     20  C   UNL     1      36.348   3.380   8.471  0.00  0.00    +0.000 A 
ATOM     21  C   UNL     1      36.712   2.084   8.248  0.00  0.00    +0.000 A 
ATOM     22  C   UNL     1      37.406   1.330   9.199  0.00  0.00    +0.000 A 
BRANCH  20  23
ATOM     23  C   UNL     1      35.624   4.187   7.495  0.00  0.00    +0.000 A 
ATOM     24  C   UNL     1      35.500   3.898   6.146  0.00  0.00    +0.000 A 
ATOM     25  C   UNL     1      34.745   4.905   5.587  0.00  0.00    +0.000 A 
ATOM     26  C   UNL     1      34.276   5.204   4.336  0.00  0.00    +0.000 A 
ATOM     27  C   UNL     1      33.515   6.316   4.039  0.00  0.00    +0.000 A 
ATOM     28  C   UNL     1      33.216   7.173   5.087  0.00  0.00    +0.000 A 
ATOM     29  C   UNL     1      33.679   6.891   6.355  0.00  0.00    +0.000 A 
ATOM     30  C   UNL     1      34.442   5.763   6.618  0.00  0.00    +0.000 A 
ATOM     31  O   UNL     1      34.979   5.300   7.718  0.00  0.00    +0.000 OA
ENDBRANCH  20  23
ENDBRANCH   3  17
TORSDOF 7
ENDMDL
MODEL 5
REMARK VINA RESULT:      -6.8      7.507      9.413
REMARK  Name = 
REMARK  7 active torsions:
REMARK  status: ('A' for Active; 'I' for Inactive)
REMARK    1  A    between atoms: N_2  and  C_4
REMARK    2  A    between atoms: C_4  and  C_5
REMARK    3  A    between atoms: C_5  and  C_6
REMARK    4  A    between atoms: C_6  and  N_7
REMARK    5  A    between atoms: C_13  and  C_14
REMARK    6  A    between atoms: N_16  and  C_17
REMARK    7  A    between atoms: C_20  and  C_21
REMARK                            x       y       z     vdW  Elec       q    Type
REMARK                         _______ _______ _______ _____ _____    ______ ____
ROOT
ATOM      1  C   UNL     1      38.617   4.746  16.429  0.00  0.00    +0.000 C 
ATOM      2  O   UNL     1      38.599   3.971  17.420  0.00  0.00    +0.000 OA
ATOM      3  N   UNL     1      39.460   5.896  16.562  0.00  0.00    +0.000 NA
ENDROOT
BRANCH   1  10
ATOM      4  N   UNL     1      39.201   2.553  14.885  0.00  0.00    +0.000 NA
ATOM      5  C   UNL     1      38.155   3.373  14.448  0.00  0.00    +0.000 A 
ATOM      6  N   UNL     1      37.425   3.160  13.337  0.00  0.00    +0.000 NA
ATOM      7  C   UNL     1      36.431   3.933  12.918  0.00  0.00    +0.000 A 
ATOM      8  C   UNL     1      36.099   5.041  13.653  0.00  0.00    +0.000 A 
ATOM      9  C   UNL     1      36.814   5.306  14.801  0.00  0.00    +0.000 A 
ATOM     10  C   UNL     1      37.840   4.500  15.224  0.00  0.00    +0.000 A 
BRANCH   4  11
ATOM     11  C   UNL     1      39.753   1.390  14.360  0.00  0.00    +0.000 C 
BRANCH  11  12
ATOM     12  C   UNL     1      39.234   0.070  14.730  0.00  0.00    +0.000 C 
BRANCH  12  13
ATOM     13  C   UNL     1      37.781  -0.129  14.868  0.00  0.00    +0.000 C 
BRANCH  13  15
ATOM     14  C   UNL     1      36.283   0.904  16.433  0.00  0.00    +0.000 C 
ATOM     15  N   UNL     1      37.349  -0.043  16.244  0.00  0.00    +0.000 NA
ATOM     16  C   UNL     1      37.077  -1.327  16.832  0.00  0.00    +0.000 C 
ENDBRANCH  13  15
ENDBRANCH  12  13
ENDBRANCH  11  12
ENDBRANCH   4  11
ENDBRANCH   1  10
BRANCH   3  17
ATOM     17  C   UNL     1      40.226   6.151  17.734  0.00  0.00    +0.000 A 
ATOM     18  C   UNL     1      41.584   6.315  17.563  0.00  0.00    +0.000 A 
ATOM     19  C   UNL     1      42.400   6.566  18.648  0.00  0.00    +0.000 A 
ATOM     20  C   UNL     1      41.874   6.655  19.912  0.00  0.00    +0.000 A 
ATOM     21  C   UNL     1      40.529   6.489  20.068  0.00  0.00    +0.000 A 
ATOM     22  C   UNL     1      39.678   6.234  18.988  0.00  0.00    +0.000 A 
BRANCH  20  23
ATOM     23  C   UNL     1      42.782   6.921  21.022  0.00  0.00    +0.000 A 
ATOM     24  C   UNL     1      43.464   5.961  21.751  0.00  0.00    +0.000 A 
ATOM     25  C   UNL     1      44.207   6.629  22.699  0.00  0.00    +0.000 A 
ATOM     26  C   UNL     1      45.070   6.275  23.700  0.00  0.00    +0.000 A 
ATOM     27  C   UNL     1      45.700   7.176  24.536  0.00  0.00    +0.000 A 
ATOM     28  C   UNL     1      45.427   8.520  24.332  0.00  0.00    +0.000 A 
ATOM     29  C   UNL     1      44.560   8.898  23.329  0.00  0.00    +0.000 A 
ATOM     30  C   UNL     1      43.945   7.966  22.508  0.00  0.00    +0.000 A 
ATOM     31  O   UNL     1      43.103   8.088  21.512  0.00  0.00    +0.000 OA
ENDBRANCH  20  23
ENDBRANCH   3  17
TORSDOF 7
ENDMDL
MODEL 6
REMARK VINA RESULT:      -6.7     18.952     25.240
REMARK  Name = 
REMARK  7 active torsions:
REMARK  status: ('A' for Active; 'I' for Inactive)
REMARK    1  A    between atoms: N_2  and  C_4
REMARK    2  A    between atoms: C_4  and  C_5
REMARK    3  A    between atoms: C_5  and  C_6
REMARK    4  A    between atoms: C_6  and  N_7
REMARK    5  A    between atoms: C_13  and  C_14
REMARK    6  A    between atoms: N_16  and  C_17
REMARK    7  A    between atoms: C_20  and  C_21
REMARK                            x       y       z     vdW  Elec       q    Type
REMARK                         _______ _______ _______ _____ _____    ______ ____
ROOT
ATOM      1  C   UNL     1      28.584  17.225  21.006  0.00  0.00    +0.000 C 
ATOM      2  O   UNL     1      28.042  16.209  20.498  0.00  0.00    +0.000 OA
ATOM      3  N   UNL     1      27.743  18.378  21.119  0.00  0.00    +0.000 NA
ENDROOT
BRANCH   1  10
ATOM      4  N   UNL     1      30.591  17.228  19.134  0.00  0.00    +0.000 NA
ATOM      5  C   UNL     1      30.980  17.238  20.479  0.00  0.00    +0.000 A 
ATOM      6  N   UNL     1      32.256  17.250  20.909  0.00  0.00    +0.000 NA
ATOM      7  C   UNL     1      32.631  17.261  22.182  0.00  0.00    +0.000 A 
ATOM      8  C   UNL     1      31.667  17.260  23.156  0.00  0.00    +0.000 A 
ATOM      9  C   UNL     1      30.344  17.249  22.770  0.00  0.00    +0.000 A 
ATOM     10  C   UNL     1      29.968  17.237  21.451  0.00  0.00    +0.000 A 
BRANCH   4  11
ATOM     11  C   UNL     1      31.326  17.225  17.954  0.00  0.00    +0.000 C 
BRANCH  11  12
ATOM     12  C   UNL     1      30.705  17.575  16.673  0.00  0.00    +0.000 C 
BRANCH  12  13
ATOM     13  C   UNL     1      30.476  16.526  15.664  0.00  0.00    +0.000 C 
BRANCH  13  15
ATOM     14  C   UNL     1      31.566  14.929  14.243  0.00  0.00    +0.000 C 
ATOM     15  N   UNL     1      31.691  16.161  14.973  0.00  0.00    +0.000 NA
ATOM     16  C   UNL     1      32.236  17.234  14.185  0.00  0.00    +0.000 C 
ENDBRANCH  13  15
ENDBRANCH  12  13
ENDBRANCH  11  12
ENDBRANCH   4  11
ENDBRANCH   1  10
BRANCH   3  17
ATOM     17  C   UNL     1      26.387  18.381  20.687  0.00  0.00    +0.000 A 
ATOM     18  C   UNL     1      26.121  19.001  19.484  0.00  0.00    +0.000 A 
ATOM     19  C   UNL     1      24.832  19.048  18.992  0.00  0.00    +0.000 A 
ATOM     20  C   UNL     1      23.796  18.483  19.691  0.00  0.00    +0.000 A 
ATOM     21  C   UNL     1      24.072  17.874  20.881  0.00  0.00    +0.000 A 
ATOM     22  C   UNL     1      25.367  17.810  21.404  0.00  0.00    +0.000 A 
BRANCH  20  23
ATOM     23  C   UNL     1      22.455  18.563  19.126  0.00  0.00    +0.000 A 
ATOM     24  C   UNL     1      22.144  19.009  17.852  0.00  0.00    +0.000 A 
ATOM     25  C   UNL     1      20.775  18.925  17.719  0.00  0.00    +0.000 A 
ATOM     26  C   UNL     1      19.864  19.203  16.737  0.00  0.00    +0.000 A 
ATOM     27  C   UNL     1      18.502  19.021  16.869  0.00  0.00    +0.000 A 
ATOM     28  C   UNL     1      18.048  18.524  18.081  0.00  0.00    +0.000 A 
ATOM     29  C   UNL     1      18.949  18.238  19.084  0.00  0.00    +0.000 A 
ATOM     30  C   UNL     1      20.312  18.432  18.917  0.00  0.00    +0.000 A 
ATOM     31  O   UNL     1      21.334  18.235  19.711  0.00  0.00    +0.000 OA
ENDBRANCH  20  23
ENDBRANCH   3  17
TORSDOF 7
ENDMDL
MODEL 7
REMARK VINA RESULT:      -6.7     25.869     29.098
REMARK  Name = 
REMARK  7 active torsions:
REMARK  status: ('A' for Active; 'I' for Inactive)
REMARK    1  A    between atoms: N_2  and  C_4
REMARK    2  A    between atoms: C_4  and  C_5
REMARK    3  A    between atoms: C_5  and  C_6
REMARK    4  A    between atoms: C_6  and  N_7
REMARK    5  A    between atoms: C_13  and  C_14
REMARK    6  A    between atoms: N_16  and  C_17
REMARK    7  A    between atoms: C_20  and  C_21
REMARK                            x       y       z     vdW  Elec       q    Type
REMARK                         _______ _______ _______ _____ _____    ______ ____
ROOT
ATOM      1  C   UNL     1      10.464   3.939   8.989  0.00  0.00    +0.000 C 
ATOM      2  O   UNL     1      11.624   3.926   9.476  0.00  0.00    +0.000 OA
ATOM      3  N   UNL     1      10.020   2.702   8.422  0.00  0.00    +0.000 NA
ENDROOT
BRANCH   1  10
ATOM      4  N   UNL     1       8.863   4.428  11.164  0.00  0.00    +0.000 NA
ATOM      5  C   UNL     1       8.810   5.357  10.118  0.00  0.00    +0.000 A 
ATOM      6  N   UNL     1       8.038   6.460  10.109  0.00  0.00    +0.000 NA
ATOM      7  C   UNL     1       7.985   7.345   9.121  0.00  0.00    +0.000 A 
ATOM      8  C   UNL     1       8.765   7.148   8.012  0.00  0.00    +0.000 A 
ATOM      9  C   UNL     1       9.576   6.034   7.970  0.00  0.00    +0.000 A 
ATOM     10  C   UNL     1       9.622   5.126   8.997  0.00  0.00    +0.000 A 
BRANCH   4  11
ATOM     11  C   UNL     1       8.201   4.364  12.385  0.00  0.00    +0.000 C 
BRANCH  11  12
ATOM     12  C   UNL     1       8.068   3.098  13.110  0.00  0.00    +0.000 C 
BRANCH  12  13
ATOM     13  C   UNL     1       6.797   2.355  13.050  0.00  0.00    +0.000 C 
BRANCH  13  15
ATOM     14  C   UNL     1       5.766   0.217  12.699  0.00  0.00    +0.000 C 
ATOM     15  N   UNL     1       7.000   0.951  12.781  0.00  0.00    +0.000 NA
ATOM     16  C   UNL     1       7.878   0.710  11.667  0.00  0.00    +0.000 C 
ENDBRANCH  13  15
ENDBRANCH  12  13
ENDBRANCH  11  12
ENDBRANCH   4  11
ENDBRANCH   1  10
BRANCH   3  17
ATOM     17  C   UNL     1      10.832   1.533   8.407  0.00  0.00    +0.000 A 
ATOM     18  C   UNL     1      11.657   1.366   7.314  0.00  0.00    +0.000 A 
ATOM     19  C   UNL     1      12.477   0.259   7.221  0.00  0.00    +0.000 A 
ATOM     20  C   UNL     1      12.484  -0.691   8.210  0.00  0.00    +0.000 A 
ATOM     21  C   UNL     1      11.663  -0.515   9.285  0.00  0.00    +0.000 A 
ATOM     22  C   UNL     1      10.822   0.595   9.407  0.00  0.00    +0.000 A 
BRANCH  20  23
ATOM     23  C   UNL     1      13.369  -1.840   8.059  0.00  0.00    +0.000 A 
ATOM     24  C   UNL     1      14.145  -2.117   6.945  0.00  0.00    +0.000 A 
ATOM     25  C   UNL     1      14.826  -3.285   7.211  0.00  0.00    +0.000 A 
ATOM     26  C   UNL     1      15.726  -4.071   6.544  0.00  0.00    +0.000 A 
ATOM     27  C   UNL     1      16.272  -5.230   7.057  0.00  0.00    +0.000 A 
ATOM     28  C   UNL     1      15.872  -5.605   8.330  0.00  0.00    +0.000 A 
ATOM     29  C   UNL     1      14.966  -4.827   9.020  0.00  0.00    +0.000 A 
ATOM     30  C   UNL     1      14.437  -3.667   8.473  0.00  0.00    +0.000 A 
ATOM     31  O   UNL     1      13.582  -2.789   8.931  0.00  0.00    +0.000 OA
ENDBRANCH  20  23
ENDBRANCH   3  17
TORSDOF 7
ENDMDL
MODEL 8
REMARK VINA RESULT:      -6.6      6.850     10.743
REMARK  Name = 
REMARK  7 active torsions:
REMARK  status: ('A' for Active; 'I' for Inactive)
REMARK    1  A    between atoms: N_2  and  C_4
REMARK    2  A    between atoms: C_4  and  C_5
REMARK    3  A    between atoms: C_5  and  C_6
REMARK    4  A    between atoms: C_6  and  N_7
REMARK    5  A    between atoms: C_13  and  C_14
REMARK    6  A    between atoms: N_16  and  C_17
REMARK    7  A    between atoms: C_20  and  C_21
REMARK                            x       y       z     vdW  Elec       q    Type
REMARK                         _______ _______ _______ _____ _____    ______ ____
ROOT
ATOM      1  C   UNL     1      38.896   4.025  15.706  0.00  0.00    +0.000 C 
ATOM      2  O   UNL     1      39.376   5.025  15.112  0.00  0.00    +0.000 OA
ATOM      3  N   UNL     1      38.529   4.240  17.073  0.00  0.00    +0.000 NA
ENDROOT
BRANCH   1  10
ATOM      4  N   UNL     1      36.468   2.758  15.884  0.00  0.00    +0.000 NA
ATOM      5  C   UNL     1      37.471   2.103  15.161  0.00  0.00    +0.000 A 
ATOM      6  N   UNL     1      37.326   0.910  14.554  0.00  0.00    +0.000 NA
ATOM      7  C   UNL     1      38.273   0.285  13.866  0.00  0.00    +0.000 A 
ATOM      8  C   UNL     1      39.504   0.875  13.747  0.00  0.00    +0.000 A 
ATOM      9  C   UNL     1      39.707   2.098  14.348  0.00  0.00    +0.000 A 
ATOM     10  C   UNL     1      38.720   2.735  15.057  0.00  0.00    +0.000 A 
BRANCH   4  11
ATOM     11  C   UNL     1      35.152   2.413  16.171  0.00  0.00    +0.000 C 
BRANCH  11  12
ATOM     12  C   UNL     1      34.831   1.178  16.892  0.00  0.00    +0.000 C 
BRANCH  12  13
ATOM     13  C   UNL     1      35.710   0.724  17.984  0.00  0.00    +0.000 C 
BRANCH  13  15
ATOM     14  C   UNL     1      36.587  -1.310  18.906  0.00  0.00    +0.000 C 
ATOM     15  N   UNL     1      36.294  -0.568  17.710  0.00  0.00    +0.000 NA
ATOM     16  C   UNL     1      35.554  -1.329  16.738  0.00  0.00    +0.000 C 
ENDBRANCH  13  15
ENDBRANCH  12  13
ENDBRANCH  11  12
ENDBRANCH   4  11
ENDBRANCH   1  10
BRANCH   3  17
ATOM     17  C   UNL     1      38.695   5.495  17.721  0.00  0.00    +0.000 A 
ATOM     18  C   UNL     1      39.540   5.524  18.811  0.00  0.00    +0.000 A 
ATOM     19  C   UNL     1      39.757   6.702  19.497  0.00  0.00    +0.000 A 
ATOM     20  C   UNL     1      39.136   7.861  19.108  0.00  0.00    +0.000 A 
ATOM     21  C   UNL     1      38.301   7.820  18.029  0.00  0.00    +0.000 A 
ATOM     22  C   UNL     1      38.062   6.642  17.315  0.00  0.00    +0.000 A 
BRANCH  20  23
ATOM     23  C   UNL     1      39.400   9.077  19.869  0.00  0.00    +0.000 A 
ATOM     24  C   UNL     1      40.650   9.521  20.267  0.00  0.00    +0.000 A 
ATOM     25  C   UNL     1      40.458  10.697  20.957  0.00  0.00    +0.000 A 
ATOM     26  C   UNL     1      41.261  11.608  21.590  0.00  0.00    +0.000 A 
ATOM     27  C   UNL     1      40.795  12.741  22.226  0.00  0.00    +0.000 A 
ATOM     28  C   UNL     1      39.425  12.954  22.211  0.00  0.00    +0.000 A 
ATOM     29  C   UNL     1      38.599  12.048  21.579  0.00  0.00    +0.000 A 
ATOM     30  C   UNL     1      39.101  10.920  20.949  0.00  0.00    +0.000 A 
ATOM     31  O   UNL     1      38.521   9.942  20.299  0.00  0.00    +0.000 OA
ENDBRANCH  20  23
ENDBRANCH   3  17
TORSDOF 7
ENDMDL
MODEL 9
REMARK VINA RESULT:      -6.6      5.248      8.345
REMARK  Name = 
REMARK  7 active torsions:
REMARK  status: ('A' for Active; 'I' for Inactive)
REMARK    1  A    between atoms: N_2  and  C_4
REMARK    2  A    between atoms: C_4  and  C_5
REMARK    3  A    between atoms: C_5  and  C_6
REMARK    4  A    between atoms: C_6  and  N_7
REMARK    5  A    between atoms: C_13  and  C_14
REMARK    6  A    between atoms: N_16  and  C_17
REMARK    7  A    between atoms: C_20  and  C_21
REMARK                            x       y       z     vdW  Elec       q    Type
REMARK                         _______ _______ _______ _____ _____    ______ ____
ROOT
ATOM      1  C   UNL     1      35.713   5.592  14.280  0.00  0.00    +0.000 C 
ATOM      2  O   UNL     1      36.881   5.384  14.700  0.00  0.00    +0.000 OA
ATOM      3  N   UNL     1      34.828   4.468  14.341  0.00  0.00    +0.000 NA
ENDROOT
BRANCH   1  10
ATOM      4  N   UNL     1      35.952   6.110  11.595  0.00  0.00    +0.000 NA
ATOM      5  C   UNL     1      35.413   7.128  12.390  0.00  0.00    +0.000 A 
ATOM      6  N   UNL     1      35.008   8.327  11.931  0.00  0.00    +0.000 NA
ATOM      7  C   UNL     1      34.495   9.296  12.679  0.00  0.00    +0.000 A 
ATOM      8  C   UNL     1      34.355   9.088  14.026  0.00  0.00    +0.000 A 
ATOM      9  C   UNL     1      34.753   7.876  14.549  0.00  0.00    +0.000 A 
ATOM     10  C   UNL     1      35.282   6.883  13.765  0.00  0.00    +0.000 A 
BRANCH   4  11
ATOM     11  C   UNL     1      36.210   6.033  10.231  0.00  0.00    +0.000 C 
BRANCH  11  12
ATOM     12  C   UNL     1      35.167   6.324   9.244  0.00  0.00    +0.000 C 
BRANCH  12  13
ATOM     13  C   UNL     1      35.460   6.170   7.808  0.00  0.00    +0.000 C 
BRANCH  13  15
ATOM     14  C   UNL     1      33.666   6.567   6.265  0.00  0.00    +0.000 C 
ATOM     15  N   UNL     1      34.758   7.142   7.003  0.00  0.00    +0.000 NA
ATOM     16  C   UNL     1      34.386   8.321   7.738  0.00  0.00    +0.000 C 
ENDBRANCH  13  15
ENDBRANCH  12  13
ENDBRANCH  11  12
ENDBRANCH   4  11
ENDBRANCH   1  10
BRANCH   3  17
ATOM     17  C   UNL     1      35.235   3.200  14.841  0.00  0.00    +0.000 A 
ATOM     18  C   UNL     1      35.908   2.375  13.964  0.00  0.00    +0.000 A 
ATOM     19  C   UNL     1      36.338   1.127  14.369  0.00  0.00    +0.000 A 
ATOM     20  C   UNL     1      36.103   0.688  15.647  0.00  0.00    +0.000 A 
ATOM     21  C   UNL     1      35.435   1.513  16.504  0.00  0.00    +0.000 A 
ATOM     22  C   UNL     1      34.988   2.781  16.123  0.00  0.00    +0.000 A 
BRANCH  20  23
ATOM     23  C   UNL     1      36.579  -0.639  16.021  0.00  0.00    +0.000 A 
ATOM     24  C   UNL     1      36.023  -1.839  15.608  0.00  0.00    +0.000 A 
ATOM     25  C   UNL     1      36.768  -2.845  16.184  0.00  0.00    +0.000 A 
ATOM     26  C   UNL     1      36.742  -4.213  16.176  0.00  0.00    +0.000 A 
ATOM     27  C   UNL     1      37.636  -5.009  16.864  0.00  0.00    +0.000 A 
ATOM     28  C   UNL     1      38.615  -4.362  17.603  0.00  0.00    +0.000 A 
ATOM     29  C   UNL     1      38.658  -2.984  17.624  0.00  0.00    +0.000 A 
ATOM     30  C   UNL     1      37.744  -2.215  16.921  0.00  0.00    +0.000 A 
ATOM     31  O   UNL     1      37.593  -0.921  16.794  0.00  0.00    +0.000 OA
ENDBRANCH  20  23
ENDBRANCH   3  17
TORSDOF 7
ENDMDL
MODEL 10
REMARK VINA RESULT:      -6.6      2.558      4.741
REMARK  Name = 
REMARK  7 active torsions:
REMARK  status: ('A' for Active; 'I' for Inactive)
REMARK    1  A    between atoms: N_2  and  C_4
REMARK    2  A    between atoms: C_4  and  C_5
REMARK    3  A    between atoms: C_5  and  C_6
REMARK    4  A    between atoms: C_6  and  N_7
REMARK    5  A    between atoms: C_13  and  C_14
REMARK    6  A    between atoms: N_16  and  C_17
REMARK    7  A    between atoms: C_20  and  C_21
REMARK                            x       y       z     vdW  Elec       q    Type
REMARK                         _______ _______ _______ _____ _____    ______ ____
ROOT
ATOM      1  C   UNL     1      37.960  -0.202  14.819  0.00  0.00    +0.000 C 
ATOM      2  O   UNL     1      37.870  -0.428  13.585  0.00  0.00    +0.000 OA
ATOM      3  N   UNL     1      39.213  -0.549  15.419  0.00  0.00    +0.000 NA
ENDROOT
BRANCH   1  10
ATOM      4  N   UNL     1      38.005   2.479  15.405  0.00  0.00    +0.000 NA
ATOM      5  C   UNL     1      36.913   1.746  15.884  0.00  0.00    +0.000 A 
ATOM      6  N   UNL     1      35.897   2.261  16.601  0.00  0.00    +0.000 NA
ATOM      7  C   UNL     1      34.859   1.571  17.057  0.00  0.00    +0.000 A 
ATOM      8  C   UNL     1      34.788   0.229  16.792  0.00  0.00    +0.000 A 
ATOM      9  C   UNL     1      35.802  -0.350  16.060  0.00  0.00    +0.000 A 
ATOM     10  C   UNL     1      36.871   0.373  15.594  0.00  0.00    +0.000 A 
BRANCH   4  11
ATOM     11  C   UNL     1      38.342   3.824  15.515  0.00  0.00    +0.000 C 
BRANCH  11  12
ATOM     12  C   UNL     1      38.436   4.478  16.823  0.00  0.00    +0.000 C 
BRANCH  12  13
ATOM     13  C   UNL     1      38.505   5.948  16.899  0.00  0.00    +0.000 C 
BRANCH  13  15
ATOM     14  C   UNL     1      39.454   5.938  19.102  0.00  0.00    +0.000 C 
ATOM     15  N   UNL     1      38.399   6.427  18.257  0.00  0.00    +0.000 NA
ATOM     16  C   UNL     1      38.220   7.853  18.341  0.00  0.00    +0.000 C 
ENDBRANCH  13  15
ENDBRANCH  12  13
ENDBRANCH  11  12
ENDBRANCH   4  11
ENDBRANCH   1  10
BRANCH   3  17
ATOM     17  C   UNL     1      40.287  -1.112  14.675  0.00  0.00    +0.000 A 
ATOM     18  C   UNL     1      40.285  -2.483  14.525  0.00  0.00    +0.000 A 
ATOM     19  C   UNL     1      41.291  -3.109  13.817  0.00  0.00    +0.000 A 
ATOM     20  C   UNL     1      42.307  -2.381  13.252  0.00  0.00    +0.000 A 
ATOM     21  C   UNL     1      42.298  -1.025  13.408  0.00  0.00    +0.000 A 
ATOM     22  C   UNL     1      41.293  -0.363  14.120  0.00  0.00    +0.000 A 
BRANCH  20  23
ATOM     23  C   UNL     1      43.344  -3.094  12.516  0.00  0.00    +0.000 A 
ATOM     24  C   UNL     1      43.355  -3.309  11.147  0.00  0.00    +0.000 A 
ATOM     25  C   UNL     1      44.502  -4.018  10.862  0.00  0.00    +0.000 A 
ATOM     26  C   UNL     1      45.086  -4.528   9.734  0.00  0.00    +0.000 A 
ATOM     27  C   UNL     1      46.279  -5.222   9.726  0.00  0.00    +0.000 A 
ATOM     28  C   UNL     1      46.911  -5.402  10.947  0.00  0.00    +0.000 A 
ATOM     29  C   UNL     1      46.339  -4.895  12.095  0.00  0.00    +0.000 A 
ATOM     30  C   UNL     1      45.139  -4.203  12.066  0.00  0.00    +0.000 A 
ATOM     31  O   UNL     1      44.422  -3.644  13.008  0.00  0.00    +0.000 OA
ENDBRANCH  20  23
ENDBRANCH   3  17
TORSDOF 7
ENDMDL
