MODEL 1
REMARK VINA RESULT:      -6.5      0.000      0.000
REMARK  Name = 
REMARK  3 active torsions:
REMARK  status: ('A' for Active; 'I' for Inactive)
REMARK    1  A    between atoms: C_7  and  C_8
REMARK    2  A    between atoms: C_16  and  N_17
REMARK    3  A    between atoms: N_17  and  C_18
REMARK                            x       y       z     vdW  Elec       q    Type
REMARK                         _______ _______ _______ _____ _____    ______ ____
ROOT
ATOM      1  C   UNL     1      27.533  24.216  25.440  0.00  0.00    +0.000 A 
ATOM      2  N   UNL     1      26.619  24.745  26.270  0.00  0.00    +0.000 NA
ATOM      3  C   UNL     1      26.644  24.087  27.469  0.00  0.00    +0.000 A 
ATOM      4  C   UNL     1      25.917  24.243  28.632  0.00  0.00    +0.000 A 
ATOM      5  C   UNL     1      26.130  23.439  29.729  0.00  0.00    +0.000 A 
ATOM      6  C   UNL     1      27.101  22.468  29.623  0.00  0.00    +0.000 A 
ATOM      7  C   UNL     1      27.822  22.319  28.457  0.00  0.00    +0.000 A 
ATOM      8  N   UNL     1      27.583  23.127  27.404  0.00  0.00    +0.000 N 
ATOM      9  C   UNL     1      28.135  23.202  26.157  0.00  0.00    +0.000 A 
ENDROOT
BRANCH   1  16
ATOM     10  O   UNL     1      26.248  23.007  23.183  0.00  0.00    +0.000 OA
ATOM     11  C   UNL     1      27.201  24.004  23.011  0.00  0.00    +0.000 A 
ATOM     12  C   UNL     1      27.479  24.364  21.694  0.00  0.00    +0.000 A 
ATOM     13  C   UNL     1      28.415  25.346  21.458  0.00  0.00    +0.000 A 
ATOM     14  C   UNL     1      29.074  25.973  22.487  0.00  0.00    +0.000 A 
ATOM     15  C   UNL     1      28.771  25.589  23.778  0.00  0.00    +0.000 A 
ATOM     16  C   UNL     1      27.843  24.612  24.066  0.00  0.00    +0.000 A 
ENDBRANCH   1  16
BRANCH   9  17
ATOM     17  N   UNL     1      29.155  22.388  25.651  0.00  0.00    +0.000 NA
BRANCH  17  18
ATOM     18  C   UNL     1      30.563  22.557  25.858  0.00  0.00    +0.000 C 
ATOM     19  C   UNL     1      30.866  23.700  26.803  0.00  0.00    +0.000 C 
ATOM     20  C   UNL     1      31.350  24.846  25.952  0.00  0.00    +0.000 C 
ATOM     21  C   UNL     1      32.091  24.124  24.836  0.00  0.00    +0.000 C 
ATOM     22  C   UNL     1      31.274  22.869  24.568  0.00  0.00    +0.000 C 
ENDBRANCH  17  18
ENDBRANCH   9  17
TORSDOF 3
ENDMDL
MODEL 2
REMARK VINA RESULT:      -6.4     13.222     15.982
REMARK  Name = 
REMARK  3 active torsions:
REMARK  status: ('A' for Active; 'I' for Inactive)
REMARK    1  A    between atoms: C_7  and  C_8
REMARK    2  A    between atoms: C_16  and  N_17
REMARK    3  A    between atoms: N_17  and  C_18
REMARK                            x       y       z     vdW  Elec       q    Type
REMARK                         _______ _______ _______ _____ _____    ______ ____
ROOT
ATOM      1  C   UNL     1      31.802  21.831  11.590  0.00  0.00    +0.000 A 
ATOM      2  N   UNL     1      31.316  22.657  12.530  0.00  0.00    +0.000 NA
ATOM      3  C   UNL     1      29.960  22.772  12.392  0.00  0.00    +0.000 A 
ATOM      4  C   UNL     1      29.009  23.485  13.092  0.00  0.00    +0.000 A 
ATOM      5  C   UNL     1      27.676  23.438  12.754  0.00  0.00    +0.000 A 
ATOM      6  C   UNL     1      27.323  22.646  11.683  0.00  0.00    +0.000 A 
ATOM      7  C   UNL     1      28.280  21.937  10.988  0.00  0.00    +0.000 A 
ATOM      8  N   UNL     1      29.576  22.010  11.352  0.00  0.00    +0.000 N 
ATOM      9  C   UNL     1      30.707  21.428  10.855  0.00  0.00    +0.000 A 
ENDROOT
BRANCH   1  16
ATOM     10  O   UNL     1      33.701  23.552  10.309  0.00  0.00    +0.000 OA
ATOM     11  C   UNL     1      34.070  22.288  10.752  0.00  0.00    +0.000 A 
ATOM     12  C   UNL     1      35.399  21.927  10.533  0.00  0.00    +0.000 A 
ATOM     13  C   UNL     1      35.827  20.686  10.949  0.00  0.00    +0.000 A 
ATOM     14  C   UNL     1      34.977  19.804  11.571  0.00  0.00    +0.000 A 
ATOM     15  C   UNL     1      33.669  20.198  11.769  0.00  0.00    +0.000 A 
ATOM     16  C   UNL     1      33.192  21.428  11.372  0.00  0.00    +0.000 A 
ENDBRANCH   1  16
BRANCH   9  17
ATOM     17  N   UNL     1      30.778  20.552   9.764  0.00  0.00    +0.000 NA
BRANCH  17  18
ATOM     18  C   UNL     1      30.887  20.917   8.382  0.00  0.00    +0.000 C 
ATOM     19  C   UNL     1      31.987  20.152   7.678  0.00  0.00    +0.000 C 
ATOM     20  C   UNL     1      33.141  21.109   7.516  0.00  0.00    +0.000 C 
ATOM     21  C   UNL     1      32.428  22.437   7.310  0.00  0.00    +0.000 C 
ATOM     22  C   UNL     1      31.214  22.378   8.225  0.00  0.00    +0.000 C 
ENDBRANCH  17  18
ENDBRANCH   9  17
TORSDOF 3
ENDMDL
MODEL 3
REMARK VINA RESULT:      -6.3      1.763      5.285
REMARK  Name = 
REMARK  3 active torsions:
REMARK  status: ('A' for Active; 'I' for Inactive)
REMARK    1  A    between atoms: C_7  and  C_8
REMARK    2  A    between atoms: C_16  and  N_17
REMARK    3  A    between atoms: N_17  and  C_18
REMARK                            x       y       z     vdW  Elec       q    Type
REMARK                         _______ _______ _______ _____ _____    ______ ____
ROOT
ATOM      1  C   UNL     1      26.812  23.541  26.381  0.00  0.00    +0.000 A 
ATOM      2  N   UNL     1      25.935  23.104  25.463  0.00  0.00    +0.000 NA
ATOM      3  C   UNL     1      26.369  23.440  24.210  0.00  0.00    +0.000 A 
ATOM      4  C   UNL     1      25.841  23.226  22.953  0.00  0.00    +0.000 A 
ATOM      5  C   UNL     1      26.479  23.670  21.817  0.00  0.00    +0.000 A 
ATOM      6  C   UNL     1      27.670  24.340  21.982  0.00  0.00    +0.000 A 
ATOM      7  C   UNL     1      28.191  24.550  23.242  0.00  0.00    +0.000 A 
ATOM      8  N   UNL     1      27.535  24.098  24.330  0.00  0.00    +0.000 N 
ATOM      9  C   UNL     1      27.813  24.163  25.665  0.00  0.00    +0.000 A 
ENDROOT
BRANCH   1  16
ATOM     10  O   UNL     1      25.360  25.388  28.021  0.00  0.00    +0.000 OA
ATOM     11  C   UNL     1      26.032  24.311  28.585  0.00  0.00    +0.000 A 
ATOM     12  C   UNL     1      25.951  24.198  29.972  0.00  0.00    +0.000 A 
ATOM     13  C   UNL     1      26.597  23.151  30.591  0.00  0.00    +0.000 A 
ATOM     14  C   UNL     1      27.314  22.224  29.874  0.00  0.00    +0.000 A 
ATOM     15  C   UNL     1      27.371  22.370  28.503  0.00  0.00    +0.000 A 
ATOM     16  C   UNL     1      26.742  23.400  27.836  0.00  0.00    +0.000 A 
ENDBRANCH   1  16
BRANCH   9  17
ATOM     17  N   UNL     1      28.934  24.764  26.251  0.00  0.00    +0.000 NA
BRANCH  17  18
ATOM     18  C   UNL     1      30.246  24.198  26.360  0.00  0.00    +0.000 C 
ATOM     19  C   UNL     1      30.330  22.830  25.719  0.00  0.00    +0.000 C 
ATOM     20  C   UNL     1      30.337  21.827  26.845  0.00  0.00    +0.000 C 
ATOM     21  C   UNL     1      31.095  22.574  27.932  0.00  0.00    +0.000 C 
ATOM     22  C   UNL     1      30.650  24.022  27.800  0.00  0.00    +0.000 C 
ENDBRANCH  17  18
ENDBRANCH   9  17
TORSDOF 3
ENDMDL
MODEL 4
REMARK VINA RESULT:      -5.9     17.979     19.891
REMARK  Name = 
REMARK  3 active torsions:
REMARK  status: ('A' for Active; 'I' for Inactive)
REMARK    1  A    between atoms: C_7  and  C_8
REMARK    2  A    between atoms: C_16  and  N_17
REMARK    3  A    between atoms: N_17  and  C_18
REMARK                            x       y       z     vdW  Elec       q    Type
REMARK                         _______ _______ _______ _____ _____    ______ ____
ROOT
ATOM      1  C   UNL     1      20.498  10.525  37.555  0.00  0.00    +0.000 A 
ATOM      2  N   UNL     1      21.166   9.725  36.708  0.00  0.00    +0.000 NA
ATOM      3  C   UNL     1      22.483  10.092  36.664  0.00  0.00    +0.000 A 
ATOM      4  C   UNL     1      23.564   9.599  35.962  0.00  0.00    +0.000 A 
ATOM      5  C   UNL     1      24.819  10.150  36.088  0.00  0.00    +0.000 A 
ATOM      6  C   UNL     1      24.956  11.219  36.946  0.00  0.00    +0.000 A 
ATOM      7  C   UNL     1      23.871  11.706  37.643  0.00  0.00    +0.000 A 
ATOM      8  N   UNL     1      22.657  11.137  37.492  0.00  0.00    +0.000 N 
ATOM      9  C   UNL     1      21.438  11.407  38.044  0.00  0.00    +0.000 A 
ENDROOT
BRANCH   1  16
ATOM     10  O   UNL     1      19.513   8.981  39.759  0.00  0.00    +0.000 OA
ATOM     11  C   UNL     1      18.648   9.731  38.971  0.00  0.00    +0.000 A 
ATOM     12  C   UNL     1      17.300   9.679  39.322  0.00  0.00    +0.000 A 
ATOM     13  C   UNL     1      16.392  10.401  38.579  0.00  0.00    +0.000 A 
ATOM     14  C   UNL     1      16.786  11.165  37.508  0.00  0.00    +0.000 A 
ATOM     15  C   UNL     1      18.130  11.191  37.192  0.00  0.00    +0.000 A 
ATOM     16  C   UNL     1      19.077  10.487  37.903  0.00  0.00    +0.000 A 
ENDBRANCH   1  16
BRANCH   9  17
ATOM     17  N   UNL     1      21.152  12.420  38.967  0.00  0.00    +0.000 NA
BRANCH  17  18
ATOM     18  C   UNL     1      21.155  13.831  38.715  0.00  0.00    +0.000 C 
ATOM     19  C   UNL     1      21.906  14.597  39.782  0.00  0.00    +0.000 C 
ATOM     20  C   UNL     1      20.866  15.251  40.656  0.00  0.00    +0.000 C 
ATOM     21  C   UNL     1      19.762  15.564  39.658  0.00  0.00    +0.000 C 
ATOM     22  C   UNL     1      19.756  14.387  38.694  0.00  0.00    +0.000 C 
ENDBRANCH  17  18
ENDBRANCH   9  17
TORSDOF 3
ENDMDL
MODEL 5
REMARK VINA RESULT:      -5.8     29.227     31.056
REMARK  Name = 
REMARK  3 active torsions:
REMARK  status: ('A' for Active; 'I' for Inactive)
REMARK    1  A    between atoms: C_7  and  C_8
REMARK    2  A    between atoms: C_16  and  N_17
REMARK    3  A    between atoms: N_17  and  C_18
REMARK                            x       y       z     vdW  Elec       q    Type
REMARK                         _______ _______ _______ _____ _____    ______ ____
ROOT
ATOM      1  C   UNL     1      33.497  -5.268  31.919  0.00  0.00    +0.000 A 
ATOM      2  N   UNL     1      33.745  -4.011  32.322  0.00  0.00    +0.000 NA
ATOM      3  C   UNL     1      33.338  -3.850  33.618  0.00  0.00    +0.000 A 
ATOM      4  C   UNL     1      33.370  -2.770  34.476  0.00  0.00    +0.000 A 
ATOM      5  C   UNL     1      32.890  -2.857  35.763  0.00  0.00    +0.000 A 
ATOM      6  C   UNL     1      32.374  -4.069  36.165  0.00  0.00    +0.000 A 
ATOM      7  C   UNL     1      32.346  -5.143  35.300  0.00  0.00    +0.000 A 
ATOM      8  N   UNL     1      32.826  -5.017  34.047  0.00  0.00    +0.000 N 
ATOM      9  C   UNL     1      32.922  -5.894  33.005  0.00  0.00    +0.000 A 
ENDROOT
BRANCH   1  16
ATOM     10  O   UNL     1      35.564  -7.217  31.545  0.00  0.00    +0.000 OA
ATOM     11  C   UNL     1      34.774  -6.802  30.479  0.00  0.00    +0.000 A 
ATOM     12  C   UNL     1      35.054  -7.388  29.246  0.00  0.00    +0.000 A 
ATOM     13  C   UNL     1      34.306  -7.018  28.150  0.00  0.00    +0.000 A 
ATOM     14  C   UNL     1      33.299  -6.091  28.248  0.00  0.00    +0.000 A 
ATOM     15  C   UNL     1      33.052  -5.533  29.487  0.00  0.00    +0.000 A 
ATOM     16  C   UNL     1      33.771  -5.869  30.613  0.00  0.00    +0.000 A 
ENDBRANCH   1  16
BRANCH   9  17
ATOM     17  N   UNL     1      32.508  -7.231  33.005  0.00  0.00    +0.000 NA
BRANCH  17  18
ATOM     18  C   UNL     1      31.197  -7.718  32.689  0.00  0.00    +0.000 C 
ATOM     19  C   UNL     1      31.231  -8.780  31.612  0.00  0.00    +0.000 C 
ATOM     20  C   UNL     1      30.758  -8.120  30.341  0.00  0.00    +0.000 C 
ATOM     21  C   UNL     1      29.734  -7.122  30.862  0.00  0.00    +0.000 C 
ATOM     22  C   UNL     1      30.311  -6.615  32.176  0.00  0.00    +0.000 C 
ENDBRANCH  17  18
ENDBRANCH   9  17
TORSDOF 3
ENDMDL
MODEL 6
REMARK VINA RESULT:      -5.8      3.232      5.400
REMARK  Name = 
REMARK  3 active torsions:
REMARK  status: ('A' for Active; 'I' for Inactive)
REMARK    1  A    between atoms: C_7  and  C_8
REMARK    2  A    between atoms: C_16  and  N_17
REMARK    3  A    between atoms: N_17  and  C_18
REMARK                            x       y       z     vdW  Elec       q    Type
REMARK                         _______ _______ _______ _____ _____    ______ ____
ROOT
ATOM      1  C   UNL     1      31.132  22.581  28.279  0.00  0.00    +0.000 A 
ATOM      2  N   UNL     1      32.051  21.888  28.970  0.00  0.00    +0.000 NA
ATOM      3  C   UNL     1      31.659  21.768  30.275  0.00  0.00    +0.000 A 
ATOM      4  C   UNL     1      32.238  21.160  31.370  0.00  0.00    +0.000 A 
ATOM      5  C   UNL     1      31.635  21.175  32.607  0.00  0.00    +0.000 A 
ATOM      6  C   UNL     1      30.425  21.823  32.712  0.00  0.00    +0.000 A 
ATOM      7  C   UNL     1      29.853  22.429  31.613  0.00  0.00    +0.000 A 
ATOM      8  N   UNL     1      30.476  22.391  30.418  0.00  0.00    +0.000 N 
ATOM      9  C   UNL     1      30.147  22.893  29.192  0.00  0.00    +0.000 A 
ENDROOT
BRANCH   1  16
ATOM     10  O   UNL     1      32.611  24.831  27.298  0.00  0.00    +0.000 OA
ATOM     11  C   UNL     1      31.875  24.030  26.434  0.00  0.00    +0.000 A 
ATOM     12  C   UNL     1      31.907  24.392  25.088  0.00  0.00    +0.000 A 
ATOM     13  C   UNL     1      31.197  23.638  24.181  0.00  0.00    +0.000 A 
ATOM     14  C   UNL     1      30.463  22.545  24.572  0.00  0.00    +0.000 A 
ATOM     15  C   UNL     1      30.456  22.219  25.914  0.00  0.00    +0.000 A 
ATOM     16  C   UNL     1      31.150  22.941  26.860  0.00  0.00    +0.000 A 
ENDBRANCH   1  16
BRANCH   9  17
ATOM     17  N   UNL     1      28.993  23.621  28.876  0.00  0.00    +0.000 NA
BRANCH  17  18
ATOM     18  C   UNL     1      27.671  23.094  28.708  0.00  0.00    +0.000 C 
ATOM     19  C   UNL     1      27.331  22.866  27.251  0.00  0.00    +0.000 C 
ATOM     20  C   UNL     1      26.408  23.986  26.843  0.00  0.00    +0.000 C 
ATOM     21  C   UNL     1      25.623  24.235  28.123  0.00  0.00    +0.000 C 
ATOM     22  C   UNL     1      26.631  24.040  29.247  0.00  0.00    +0.000 C 
ENDBRANCH  17  18
ENDBRANCH   9  17
TORSDOF 3
ENDMDL
MODEL 7
REMARK VINA RESULT:      -5.8     33.291     34.939
REMARK  Name = 
REMARK  3 active torsions:
REMARK  status: ('A' for Active; 'I' for Inactive)
REMARK    1  A    between atoms: C_7  and  C_8
REMARK    2  A    between atoms: C_16  and  N_17
REMARK    3  A    between atoms: N_17  and  C_18
REMARK                            x       y       z     vdW  Elec       q    Type
REMARK                         _______ _______ _______ _____ _____    ______ ____
ROOT
ATOM      1  C   UNL     1      17.981  -8.839  27.650  0.00  0.00    +0.000 A 
ATOM      2  N   UNL     1      18.046  -9.187  28.945  0.00  0.00    +0.000 NA
ATOM      3  C   UNL     1      17.101 -10.137  29.219  0.00  0.00    +0.000 A 
ATOM      4  C   UNL     1      16.763 -10.808  30.377  0.00  0.00    +0.000 A 
ATOM      5  C   UNL     1      15.751 -11.741  30.401  0.00  0.00    +0.000 A 
ATOM      6  C   UNL     1      15.084 -11.980  29.221  0.00  0.00    +0.000 A 
ATOM      7  C   UNL     1      15.427 -11.304  28.069  0.00  0.00    +0.000 A 
ATOM      8  N   UNL     1      16.425 -10.398  28.087  0.00  0.00    +0.000 N 
ATOM      9  C   UNL     1      16.964  -9.603  27.117  0.00  0.00    +0.000 A 
ENDROOT
BRANCH   1  16
ATOM     10  O   UNL     1      17.167  -6.112  27.325  0.00  0.00    +0.000 OA
ATOM     11  C   UNL     1      18.373  -6.562  26.802  0.00  0.00    +0.000 A 
ATOM     12  C   UNL     1      19.138  -5.615  26.125  0.00  0.00    +0.000 A 
ATOM     13  C   UNL     1      20.344  -6.000  25.583  0.00  0.00    +0.000 A 
ATOM     14  C   UNL     1      20.804  -7.289  25.696  0.00  0.00    +0.000 A 
ATOM     15  C   UNL     1      20.017  -8.198  26.374  0.00  0.00    +0.000 A 
ATOM     16  C   UNL     1      18.804  -7.863  26.934  0.00  0.00    +0.000 A 
ENDBRANCH   1  16
BRANCH   9  17
ATOM     17  N   UNL     1      16.566  -9.545  25.775  0.00  0.00    +0.000 NA
BRANCH  17  18
ATOM     18  C   UNL     1      15.674  -8.587  25.190  0.00  0.00    +0.000 C 
ATOM     19  C   UNL     1      14.401  -8.433  25.993  0.00  0.00    +0.000 C 
ATOM     20  C   UNL     1      13.323  -9.168  25.237  0.00  0.00    +0.000 C 
ATOM     21  C   UNL     1      13.738  -8.944  23.791  0.00  0.00    +0.000 C 
ATOM     22  C   UNL     1      15.259  -9.001  23.804  0.00  0.00    +0.000 C 
ENDBRANCH  17  18
ENDBRANCH   9  17
TORSDOF 3
ENDMDL
MODEL 8
REMARK VINA RESULT:      -5.7     13.122     15.247
REMARK  Name = 
REMARK  3 active torsions:
REMARK  status: ('A' for Active; 'I' for Inactive)
REMARK    1  A    between atoms: C_7  and  C_8
REMARK    2  A    between atoms: C_16  and  N_17
REMARK    3  A    between atoms: N_17  and  C_18
REMARK                            x       y       z     vdW  Elec       q    Type
REMARK                         _______ _______ _______ _____ _____    ______ ____
ROOT
ATOM      1  C   UNL     1      20.311  21.479  36.058  0.00  0.00    +0.000 A 
ATOM      2  N   UNL     1      20.253  20.904  34.846  0.00  0.00    +0.000 NA
ATOM      3  C   UNL     1      19.001  21.058  34.318  0.00  0.00    +0.000 A 
ATOM      4  C   UNL     1      18.438  20.657  33.124  0.00  0.00    +0.000 A 
ATOM      5  C   UNL     1      17.126  20.937  32.814  0.00  0.00    +0.000 A 
ATOM      6  C   UNL     1      16.392  21.637  33.746  0.00  0.00    +0.000 A 
ATOM      7  C   UNL     1      16.963  22.033  34.937  0.00  0.00    +0.000 A 
ATOM      8  N   UNL     1      18.252  21.739  35.203  0.00  0.00    +0.000 N 
ATOM      9  C   UNL     1      19.054  22.002  36.276  0.00  0.00    +0.000 A 
ENDROOT
BRANCH   1  16
ATOM     10  O   UNL     1      21.811  23.892  36.431  0.00  0.00    +0.000 OA
ATOM     11  C   UNL     1      22.145  22.732  37.119  0.00  0.00    +0.000 A 
ATOM     12  C   UNL     1      23.236  22.825  37.982  0.00  0.00    +0.000 A 
ATOM     13  C   UNL     1      23.617  21.708  38.693  0.00  0.00    +0.000 A 
ATOM     14  C   UNL     1      22.949  20.515  38.569  0.00  0.00    +0.000 A 
ATOM     15  C   UNL     1      21.874  20.463  37.704  0.00  0.00    +0.000 A 
ATOM     16  C   UNL     1      21.453  21.551  36.971  0.00  0.00    +0.000 A 
ENDBRANCH   1  16
BRANCH   9  17
ATOM     17  N   UNL     1      18.686  22.692  37.437  0.00  0.00    +0.000 NA
BRANCH  17  18
ATOM     18  C   UNL     1      18.098  22.127  38.616  0.00  0.00    +0.000 C 
ATOM     19  C   UNL     1      18.803  22.581  39.876  0.00  0.00    +0.000 C 
ATOM     20  C   UNL     1      19.652  21.423  40.337  0.00  0.00    +0.000 C 
ATOM     21  C   UNL     1      18.806  20.226  39.927  0.00  0.00    +0.000 C 
ATOM     22  C   UNL     1      18.176  20.624  38.600  0.00  0.00    +0.000 C 
ENDBRANCH  17  18
ENDBRANCH   9  17
TORSDOF 3
ENDMDL
MODEL 9
REMARK VINA RESULT:      -5.7      2.284      3.515
REMARK  Name = 
REMARK  3 active torsions:
REMARK  status: ('A' for Active; 'I' for Inactive)
REMARK    1  A    between atoms: C_7  and  C_8
REMARK    2  A    between atoms: C_16  and  N_17
REMARK    3  A    between atoms: N_17  and  C_18
REMARK                            x       y       z     vdW  Elec       q    Type
REMARK                         _______ _______ _______ _____ _____    ______ ____
ROOT
ATOM      1  C   UNL     1      28.602  23.182  27.219  0.00  0.00    +0.000 A 
ATOM      2  N   UNL     1      28.636  23.339  28.552  0.00  0.00    +0.000 NA
ATOM      3  C   UNL     1      29.795  22.814  29.052  0.00  0.00    +0.000 A 
ATOM      4  C   UNL     1      30.301  22.724  30.333  0.00  0.00    +0.000 A 
ATOM      5  C   UNL     1      31.519  22.137  30.589  0.00  0.00    +0.000 A 
ATOM      6  C   UNL     1      32.220  21.640  29.512  0.00  0.00    +0.000 A 
ATOM      7  C   UNL     1      31.707  21.734  28.235  0.00  0.00    +0.000 A 
ATOM      8  N   UNL     1      30.510  22.317  28.027  0.00  0.00    +0.000 N 
ATOM      9  C   UNL     1      29.779  22.542  26.895  0.00  0.00    +0.000 A 
ENDROOT
BRANCH   1  16
ATOM     10  O   UNL     1      27.986  25.941  26.747  0.00  0.00    +0.000 OA
ATOM     11  C   UNL     1      27.290  24.933  26.091  0.00  0.00    +0.000 A 
ATOM     12  C   UNL     1      26.295  25.351  25.209  0.00  0.00    +0.000 A 
ATOM     13  C   UNL     1      25.569  24.400  24.528  0.00  0.00    +0.000 A 
ATOM     14  C   UNL     1      25.804  23.058  24.699  0.00  0.00    +0.000 A 
ATOM     15  C   UNL     1      26.798  22.683  25.582  0.00  0.00    +0.000 A 
ATOM     16  C   UNL     1      27.552  23.596  26.287  0.00  0.00    +0.000 A 
ENDBRANCH   1  16
BRANCH   9  17
ATOM     17  N   UNL     1      30.141  22.187  25.590  0.00  0.00    +0.000 NA
BRANCH  17  18
ATOM     18  C   UNL     1      30.844  23.006  24.647  0.00  0.00    +0.000 C 
ATOM     19  C   UNL     1      31.630  24.107  25.324  0.00  0.00    +0.000 C 
ATOM     20  C   UNL     1      30.854  25.383  25.113  0.00  0.00    +0.000 C 
ATOM     21  C   UNL     1      30.246  25.162  23.736  0.00  0.00    +0.000 C 
ATOM     22  C   UNL     1      29.895  23.682  23.693  0.00  0.00    +0.000 C 
ENDBRANCH  17  18
ENDBRANCH   9  17
TORSDOF 3
ENDMDL
MODEL 10
REMARK VINA RESULT:      -5.7      1.588      5.020
REMARK  Name = 
REMARK  3 active torsions:
REMARK  status: ('A' for Active; 'I' for Inactive)
REMARK    1  A    between atoms: C_7  and  C_8
REMARK    2  A    between atoms: C_16  and  N_17
REMARK    3  A    between atoms: N_17  and  C_18
REMARK                            x       y       z     vdW  Elec       q    Type
REMARK                         _______ _______ _______ _____ _____    ______ ____
ROOT
ATOM      1  C   UNL     1      27.892  25.024  25.421  0.00  0.00    +0.000 A 
ATOM      2  N   UNL     1      27.694  26.144  24.707  0.00  0.00    +0.000 NA
ATOM      3  C   UNL     1      28.190  25.982  23.443  0.00  0.00    +0.000 A 
ATOM      4  C   UNL     1      28.235  26.818  22.346  0.00  0.00    +0.000 A 
ATOM      5  C   UNL     1      28.800  26.419  21.156  0.00  0.00    +0.000 A 
ATOM      6  C   UNL     1      29.321  25.146  21.100  0.00  0.00    +0.000 A 
ATOM      7  C   UNL     1      29.273  24.317  22.201  0.00  0.00    +0.000 A 
ATOM      8  N   UNL     1      28.710  24.746  23.348  0.00  0.00    +0.000 N 
ATOM      9  C   UNL     1      28.529  24.151  24.564  0.00  0.00    +0.000 A 
ENDROOT
BRANCH   1  16
ATOM     10  O   UNL     1      25.560  23.509  26.111  0.00  0.00    +0.000 OA
ATOM     11  C   UNL     1      26.390  24.028  27.097  0.00  0.00    +0.000 A 
ATOM     12  C   UNL     1      26.015  23.764  28.413  0.00  0.00    +0.000 A 
ATOM     13  C   UNL     1      26.798  24.252  29.437  0.00  0.00    +0.000 A 
ATOM     14  C   UNL     1      27.931  24.986  29.188  0.00  0.00    +0.000 A 
ATOM     15  C   UNL     1      28.269  25.226  27.871  0.00  0.00    +0.000 A 
ATOM     16  C   UNL     1      27.520  24.761  26.812  0.00  0.00    +0.000 A 
ENDBRANCH   1  16
BRANCH   9  17
ATOM     17  N   UNL     1      28.920  22.854  24.919  0.00  0.00    +0.000 NA
BRANCH  17  18
ATOM     18  C   UNL     1      30.221  22.446  25.363  0.00  0.00    +0.000 C 
ATOM     19  C   UNL     1      30.192  21.881  26.766  0.00  0.00    +0.000 C 
ATOM     20  C   UNL     1      30.754  22.947  27.672  0.00  0.00    +0.000 C 
ATOM     21  C   UNL     1      31.796  23.606  26.780  0.00  0.00    +0.000 C 
ATOM     22  C   UNL     1      31.180  23.607  25.389  0.00  0.00    +0.000 C 
ENDBRANCH  17  18
ENDBRANCH   9  17
TORSDOF 3
ENDMDL
