MODEL 1
REMARK VINA RESULT:      -7.0      0.000      0.000
REMARK  Name = 
REMARK  3 active torsions:
REMARK  status: ('A' for Active; 'I' for Inactive)
REMARK    1  A    between atoms: C_2  and  C_13
REMARK    2  A    between atoms: N_3  and  C_4
REMARK    3  A    between atoms: C_8  and  N_9
REMARK                            x       y       z     vdW  Elec       q    Type
REMARK                         _______ _______ _______ _____ _____    ______ ____
ROOT
ATOM      1  O   UNL     1      17.439   9.727  36.636  0.00  0.00    +0.000 OA
ATOM      2  C   UNL     1      17.868  10.642  37.375  0.00  0.00    +0.000 C 
ATOM      3  N   UNL     1      17.014  11.722  37.695  0.00  0.00    +0.000 NA
ENDROOT
BRANCH   2   4
ATOM      4  C   UNL     1      19.238  10.656  37.938  0.00  0.00    +0.000 C 
ATOM      5  C   UNL     1      20.212   9.884  37.083  0.00  0.00    +0.000 C 
ATOM      6  C   UNL     1      21.569   9.981  37.734  0.00  0.00    +0.000 C 
ATOM      7  C   UNL     1      21.983  11.439  37.876  0.00  0.00    +0.000 C 
ATOM      8  C   UNL     1      20.977  12.199  38.715  0.00  0.00    +0.000 C 
ATOM      9  C   UNL     1      20.885  11.610  40.124  0.00  0.00    +0.000 C 
ATOM     10  C   UNL     1      20.494  10.152  39.987  0.00  0.00    +0.000 C 
ATOM     11  C   UNL     1      21.469   9.395  39.116  0.00  0.00    +0.000 C 
ATOM     12  C   UNL     1      19.146  10.079  39.343  0.00  0.00    +0.000 C 
ATOM     13  C   UNL     1      19.645  12.129  38.036  0.00  0.00    +0.000 C 
ENDBRANCH   2   4
BRANCH   3  14
ATOM     14  C   UNL     1      15.692  11.864  37.246  0.00  0.00    +0.000 A 
ATOM     15  C   UNL     1      15.491  12.655  36.121  0.00  0.00    +0.000 A 
ATOM     16  C   UNL     1      14.258  12.880  35.577  0.00  0.00    +0.000 A 
ATOM     17  C   UNL     1      13.173  12.279  36.193  0.00  0.00    +0.000 A 
ATOM     18  C   UNL     1      13.324  11.477  37.325  0.00  0.00    +0.000 A 
ATOM     19  C   UNL     1      14.589  11.293  37.818  0.00  0.00    +0.000 A 
BRANCH  18  20
ATOM     20  N   UNL     1      12.204  10.871  37.942  0.00  0.00    +0.000 N 
ATOM     21  O   UNL     1      11.073  11.102  37.488  0.00  0.00    +0.000 OA
ATOM     22  O   UNL     1      12.404  10.051  39.020  0.00  0.00    +0.000 OA
ENDBRANCH  18  20
ENDBRANCH   3  14
TORSDOF 3
ENDMDL
MODEL 2
REMARK VINA RESULT:      -6.7     21.862     23.031
REMARK  Name = 
REMARK  3 active torsions:
REMARK  status: ('A' for Active; 'I' for Inactive)
REMARK    1  A    between atoms: C_2  and  C_13
REMARK    2  A    between atoms: N_3  and  C_4
REMARK    3  A    between atoms: C_8  and  N_9
REMARK                            x       y       z     vdW  Elec       q    Type
REMARK                         _______ _______ _______ _____ _____    ______ ____
ROOT
ATOM      1  O   UNL     1      24.500   4.243  15.681  0.00  0.00    +0.000 OA
ATOM      2  C   UNL     1      25.105   4.268  16.777  0.00  0.00    +0.000 C 
ATOM      3  N   UNL     1      24.631   3.465  17.839  0.00  0.00    +0.000 NA
ENDROOT
BRANCH   2   4
ATOM      4  C   UNL     1      26.304   5.102  17.025  0.00  0.00    +0.000 C 
ATOM      5  C   UNL     1      26.076   6.547  16.656  0.00  0.00    +0.000 C 
ATOM      6  C   UNL     1      27.343   7.304  16.967  0.00  0.00    +0.000 C 
ATOM      7  C   UNL     1      27.702   7.151  18.438  0.00  0.00    +0.000 C 
ATOM      8  C   UNL     1      27.898   5.692  18.790  0.00  0.00    +0.000 C 
ATOM      9  C   UNL     1      29.041   5.083  17.976  0.00  0.00    +0.000 C 
ATOM     10  C   UNL     1      28.699   5.252  16.509  0.00  0.00    +0.000 C 
ATOM     11  C   UNL     1      28.460   6.701  16.158  0.00  0.00    +0.000 C 
ATOM     12  C   UNL     1      27.443   4.492  16.222  0.00  0.00    +0.000 C 
ATOM     13  C   UNL     1      26.621   4.963  18.517  0.00  0.00    +0.000 C 
ENDBRANCH   2   4
BRANCH   3  14
ATOM     14  C   UNL     1      23.513   2.620  17.774  0.00  0.00    +0.000 A 
ATOM     15  C   UNL     1      23.754   1.276  17.516  0.00  0.00    +0.000 A 
ATOM     16  C   UNL     1      22.760   0.343  17.425  0.00  0.00    +0.000 A 
ATOM     17  C   UNL     1      21.459   0.782  17.603  0.00  0.00    +0.000 A 
ATOM     18  C   UNL     1      21.166   2.121  17.864  0.00  0.00    +0.000 A 
ATOM     19  C   UNL     1      22.210   3.004  17.942  0.00  0.00    +0.000 A 
BRANCH  18  20
ATOM     20  N   UNL     1      19.830   2.552  18.042  0.00  0.00    +0.000 N 
ATOM     21  O   UNL     1      19.617   3.587  18.692  0.00  0.00    +0.000 OA
ATOM     22  O   UNL     1      18.816   1.813  17.494  0.00  0.00    +0.000 OA
ENDBRANCH  18  20
ENDBRANCH   3  14
TORSDOF 3
ENDMDL
MODEL 3
REMARK VINA RESULT:      -6.7      2.177      2.956
REMARK  Name = 
REMARK  3 active torsions:
REMARK  status: ('A' for Active; 'I' for Inactive)
REMARK    1  A    between atoms: C_2  and  C_13
REMARK    2  A    between atoms: N_3  and  C_4
REMARK    3  A    between atoms: C_8  and  N_9
REMARK                            x       y       z     vdW  Elec       q    Type
REMARK                         _______ _______ _______ _____ _____    ______ ____
ROOT
ATOM      1  O   UNL     1      18.491   9.350  36.631  0.00  0.00    +0.000 OA
ATOM      2  C   UNL     1      18.971  10.288  37.307  0.00  0.00    +0.000 C 
ATOM      3  N   UNL     1      18.152  11.396  37.620  0.00  0.00    +0.000 NA
ENDROOT
BRANCH   2   4
ATOM      4  C   UNL     1      20.368  10.302  37.801  0.00  0.00    +0.000 C 
ATOM      5  C   UNL     1      20.546   9.435  39.024  0.00  0.00    +0.000 C 
ATOM      6  C   UNL     1      21.998   9.505  39.426  0.00  0.00    +0.000 C 
ATOM      7  C   UNL     1      22.887   9.046  38.279  0.00  0.00    +0.000 C 
ATOM      8  C   UNL     1      22.670   9.914  37.057  0.00  0.00    +0.000 C 
ATOM      9  C   UNL     1      23.024  11.372  37.354  0.00  0.00    +0.000 C 
ATOM     10  C   UNL     1      22.156  11.828  38.510  0.00  0.00    +0.000 C 
ATOM     11  C   UNL     1      22.334  10.942  39.720  0.00  0.00    +0.000 C 
ATOM     12  C   UNL     1      20.723  11.754  38.088  0.00  0.00    +0.000 C 
ATOM     13  C   UNL     1      21.237   9.801  36.645  0.00  0.00    +0.000 C 
ENDBRANCH   2   4
BRANCH   3  14
ATOM     14  C   UNL     1      16.812  11.543  37.231  0.00  0.00    +0.000 A 
ATOM     15  C   UNL     1      15.845  11.089  38.120  0.00  0.00    +0.000 A 
ATOM     16  C   UNL     1      14.504  11.168  37.870  0.00  0.00    +0.000 A 
ATOM     17  C   UNL     1      14.115  11.734  36.668  0.00  0.00    +0.000 A 
ATOM     18  C   UNL     1      15.048  12.204  35.743  0.00  0.00    +0.000 A 
ATOM     19  C   UNL     1      16.376  12.093  36.057  0.00  0.00    +0.000 A 
BRANCH  18  20
ATOM     20  N   UNL     1      14.632  12.778  34.518  0.00  0.00    +0.000 N 
ATOM     21  O   UNL     1      14.986  12.244  33.456  0.00  0.00    +0.000 OA
ATOM     22  O   UNL     1      13.854  13.905  34.545  0.00  0.00    +0.000 OA
ENDBRANCH  18  20
ENDBRANCH   3  14
TORSDOF 3
ENDMDL
MODEL 4
REMARK VINA RESULT:      -6.6     21.804     22.967
REMARK  Name = 
REMARK  3 active torsions:
REMARK  status: ('A' for Active; 'I' for Inactive)
REMARK    1  A    between atoms: C_2  and  C_13
REMARK    2  A    between atoms: N_3  and  C_4
REMARK    3  A    between atoms: C_8  and  N_9
REMARK                            x       y       z     vdW  Elec       q    Type
REMARK                         _______ _______ _______ _____ _____    ______ ____
ROOT
ATOM      1  O   UNL     1      24.618   4.193  15.708  0.00  0.00    +0.000 OA
ATOM      2  C   UNL     1      25.226   4.171  16.801  0.00  0.00    +0.000 C 
ATOM      3  N   UNL     1      24.727   3.363  17.848  0.00  0.00    +0.000 NA
ENDROOT
BRANCH   2   4
ATOM      4  C   UNL     1      26.455   4.957  17.063  0.00  0.00    +0.000 C 
ATOM      5  C   UNL     1      27.639   4.433  16.288  0.00  0.00    +0.000 C 
ATOM      6  C   UNL     1      28.822   5.313  16.610  0.00  0.00    +0.000 C 
ATOM      7  C   UNL     1      28.515   6.761  16.255  0.00  0.00    +0.000 C 
ATOM      8  C   UNL     1      27.308   7.254  17.024  0.00  0.00    +0.000 C 
ATOM      9  C   UNL     1      27.561   7.197  18.532  0.00  0.00    +0.000 C 
ATOM     10  C   UNL     1      27.887   5.760  18.888  0.00  0.00    +0.000 C 
ATOM     11  C   UNL     1      29.065   5.246  18.094  0.00  0.00    +0.000 C 
ATOM     12  C   UNL     1      26.702   4.908  18.564  0.00  0.00    +0.000 C 
ATOM     13  C   UNL     1      26.135   6.399  16.662  0.00  0.00    +0.000 C 
ENDBRANCH   2   4
BRANCH   3  14
ATOM     14  C   UNL     1      23.580   2.560  17.768  0.00  0.00    +0.000 A 
ATOM     15  C   UNL     1      23.771   1.215  17.475  0.00  0.00    +0.000 A 
ATOM     16  C   UNL     1      22.744   0.321  17.367  0.00  0.00    +0.000 A 
ATOM     17  C   UNL     1      21.461   0.801  17.565  0.00  0.00    +0.000 A 
ATOM     18  C   UNL     1      21.217   2.142  17.862  0.00  0.00    +0.000 A 
ATOM     19  C   UNL     1      22.293   2.985  17.955  0.00  0.00    +0.000 A 
BRANCH  18  20
ATOM     20  N   UNL     1      19.899   2.615  18.060  0.00  0.00    +0.000 N 
ATOM     21  O   UNL     1      18.949   1.937  17.640  0.00  0.00    +0.000 OA
ATOM     22  O   UNL     1      19.713   3.807  18.709  0.00  0.00    +0.000 OA
ENDBRANCH  18  20
ENDBRANCH   3  14
TORSDOF 3
ENDMDL
MODEL 5
REMARK VINA RESULT:      -6.6      2.442      3.898
REMARK  Name = 
REMARK  3 active torsions:
REMARK  status: ('A' for Active; 'I' for Inactive)
REMARK    1  A    between atoms: C_2  and  C_13
REMARK    2  A    between atoms: N_3  and  C_4
REMARK    3  A    between atoms: C_8  and  N_9
REMARK                            x       y       z     vdW  Elec       q    Type
REMARK                         _______ _______ _______ _____ _____    ______ ____
ROOT
ATOM      1  O   UNL     1      20.331  12.241  38.382  0.00  0.00    +0.000 OA
ATOM      2  C   UNL     1      20.667  11.158  37.853  0.00  0.00    +0.000 C 
ATOM      3  N   UNL     1      19.663  10.300  37.350  0.00  0.00    +0.000 NA
ENDROOT
BRANCH   2   4
ATOM      4  C   UNL     1      22.076  10.718  37.724  0.00  0.00    +0.000 C 
ATOM      5  C   UNL     1      22.440   9.672  38.750  0.00  0.00    +0.000 C 
ATOM      6  C   UNL     1      23.879   9.285  38.515  0.00  0.00    +0.000 C 
ATOM      7  C   UNL     1      24.062   8.766  37.096  0.00  0.00    +0.000 C 
ATOM      8  C   UNL     1      23.664   9.822  36.087  0.00  0.00    +0.000 C 
ATOM      9  C   UNL     1      24.535  11.071  36.232  0.00  0.00    +0.000 C 
ATOM     10  C   UNL     1      24.374  11.580  37.651  0.00  0.00    +0.000 C 
ATOM     11  C   UNL     1      24.728  10.518  38.665  0.00  0.00    +0.000 C 
ATOM     12  C   UNL     1      22.942  11.962  37.860  0.00  0.00    +0.000 C 
ATOM     13  C   UNL     1      22.224  10.166  36.304  0.00  0.00    +0.000 C 
ENDBRANCH   2   4
BRANCH   3  14
ATOM     14  C   UNL     1      18.285  10.562  37.391  0.00  0.00    +0.000 A 
ATOM     15  C   UNL     1      17.615  10.225  38.561  0.00  0.00    +0.000 A 
ATOM     16  C   UNL     1      16.274  10.424  38.738  0.00  0.00    +0.000 A 
ATOM     17  C   UNL     1      15.573  10.991  37.688  0.00  0.00    +0.000 A 
ATOM     18  C   UNL     1      16.201  11.346  36.493  0.00  0.00    +0.000 A 
ATOM     19  C   UNL     1      17.547  11.119  36.383  0.00  0.00    +0.000 A 
BRANCH  18  20
ATOM     20  N   UNL     1      15.467  11.923  35.430  0.00  0.00    +0.000 N 
ATOM     21  O   UNL     1      14.637  12.809  35.686  0.00  0.00    +0.000 OA
ATOM     22  O   UNL     1      15.696  11.486  34.152  0.00  0.00    +0.000 OA
ENDBRANCH  18  20
ENDBRANCH   3  14
TORSDOF 3
ENDMDL
MODEL 6
REMARK VINA RESULT:      -6.4     21.536     24.682
REMARK  Name = 
REMARK  3 active torsions:
REMARK  status: ('A' for Active; 'I' for Inactive)
REMARK    1  A    between atoms: C_2  and  C_13
REMARK    2  A    between atoms: N_3  and  C_4
REMARK    3  A    between atoms: C_8  and  N_9
REMARK                            x       y       z     vdW  Elec       q    Type
REMARK                         _______ _______ _______ _____ _____    ______ ____
ROOT
ATOM      1  O   UNL     1      32.537  -6.025  32.668  0.00  0.00    +0.000 OA
ATOM      2  C   UNL     1      33.420  -5.138  32.723  0.00  0.00    +0.000 C 
ATOM      3  N   UNL     1      34.382  -5.065  31.691  0.00  0.00    +0.000 NA
ENDROOT
BRANCH   2   4
ATOM      4  C   UNL     1      33.511  -4.150  33.822  0.00  0.00    +0.000 C 
ATOM      5  C   UNL     1      34.732  -4.369  34.683  0.00  0.00    +0.000 C 
ATOM      6  C   UNL     1      34.737  -3.303  35.749  0.00  0.00    +0.000 C 
ATOM      7  C   UNL     1      34.741  -1.920  35.113  0.00  0.00    +0.000 C 
ATOM      8  C   UNL     1      33.522  -1.734  34.235  0.00  0.00    +0.000 C 
ATOM      9  C   UNL     1      32.236  -1.857  35.053  0.00  0.00    +0.000 C 
ATOM     10  C   UNL     1      32.237  -3.225  35.706  0.00  0.00    +0.000 C 
ATOM     11  C   UNL     1      33.471  -3.435  36.551  0.00  0.00    +0.000 C 
ATOM     12  C   UNL     1      32.228  -4.266  34.632  0.00  0.00    +0.000 C 
ATOM     13  C   UNL     1      33.553  -2.772  33.157  0.00  0.00    +0.000 C 
ENDBRANCH   2   4
BRANCH   3  14
ATOM     14  C   UNL     1      34.440  -5.921  30.581  0.00  0.00    +0.000 A 
ATOM     15  C   UNL     1      33.905  -5.444  29.390  0.00  0.00    +0.000 A 
ATOM     16  C   UNL     1      33.894  -6.169  28.232  0.00  0.00    +0.000 A 
ATOM     17  C   UNL     1      34.448  -7.437  28.273  0.00  0.00    +0.000 A 
ATOM     18  C   UNL     1      34.997  -7.961  29.444  0.00  0.00    +0.000 A 
ATOM     19  C   UNL     1      34.976  -7.179  30.568  0.00  0.00    +0.000 A 
BRANCH  18  20
ATOM     20  N   UNL     1      35.559  -9.259  29.467  0.00  0.00    +0.000 N 
ATOM     21  O   UNL     1      35.222 -10.073  28.593  0.00  0.00    +0.000 OA
ATOM     22  O   UNL     1      36.456  -9.576  30.452  0.00  0.00    +0.000 OA
ENDBRANCH  18  20
ENDBRANCH   3  14
TORSDOF 3
ENDMDL
MODEL 7
REMARK VINA RESULT:      -6.3     19.370     21.457
REMARK  Name = 
REMARK  3 active torsions:
REMARK  status: ('A' for Active; 'I' for Inactive)
REMARK    1  A    between atoms: C_2  and  C_13
REMARK    2  A    between atoms: N_3  and  C_4
REMARK    3  A    between atoms: C_8  and  N_9
REMARK                            x       y       z     vdW  Elec       q    Type
REMARK                         _______ _______ _______ _____ _____    ______ ____
ROOT
ATOM      1  O   UNL     1      28.341  25.795  26.344  0.00  0.00    +0.000 OA
ATOM      2  C   UNL     1      28.364  24.803  25.581  0.00  0.00    +0.000 C 
ATOM      3  N   UNL     1      28.425  23.508  26.142  0.00  0.00    +0.000 NA
ENDROOT
BRANCH   2   4
ATOM      4  C   UNL     1      28.331  24.913  24.104  0.00  0.00    +0.000 C 
ATOM      5  C   UNL     1      28.309  23.561  23.434  0.00  0.00    +0.000 C 
ATOM      6  C   UNL     1      28.255  23.789  21.944  0.00  0.00    +0.000 C 
ATOM      7  C   UNL     1      27.029  24.615  21.581  0.00  0.00    +0.000 C 
ATOM      8  C   UNL     1      27.060  25.954  22.285  0.00  0.00    +0.000 C 
ATOM      9  C   UNL     1      28.293  26.760  21.871  0.00  0.00    +0.000 C 
ATOM     10  C   UNL     1      29.517  25.933  22.211  0.00  0.00    +0.000 C 
ATOM     11  C   UNL     1      29.473  24.578  21.546  0.00  0.00    +0.000 C 
ATOM     12  C   UNL     1      29.552  25.722  23.692  0.00  0.00    +0.000 C 
ATOM     13  C   UNL     1      27.071  25.713  23.762  0.00  0.00    +0.000 C 
ENDBRANCH   2   4
BRANCH   3  14
ATOM     14  C   UNL     1      28.462  23.227  27.517  0.00  0.00    +0.000 A 
ATOM     15  C   UNL     1      29.713  22.994  28.077  0.00  0.00    +0.000 A 
ATOM     16  C   UNL     1      29.896  22.708  29.401  0.00  0.00    +0.000 A 
ATOM     17  C   UNL     1      28.768  22.655  30.201  0.00  0.00    +0.000 A 
ATOM     18  C   UNL     1      27.491  22.881  29.685  0.00  0.00    +0.000 A 
ATOM     19  C   UNL     1      27.379  23.163  28.349  0.00  0.00    +0.000 A 
BRANCH  18  20
ATOM     20  N   UNL     1      26.349  22.822  30.518  0.00  0.00    +0.000 N 
ATOM     21  O   UNL     1      25.925  21.712  30.875  0.00  0.00    +0.000 OA
ATOM     22  O   UNL     1      25.748  23.991  30.902  0.00  0.00    +0.000 OA
ENDBRANCH  18  20
ENDBRANCH   3  14
TORSDOF 3
ENDMDL
MODEL 8
REMARK VINA RESULT:      -6.3     20.557     23.244
REMARK  Name = 
REMARK  3 active torsions:
REMARK  status: ('A' for Active; 'I' for Inactive)
REMARK    1  A    between atoms: C_2  and  C_13
REMARK    2  A    between atoms: N_3  and  C_4
REMARK    3  A    between atoms: C_8  and  N_9
REMARK                            x       y       z     vdW  Elec       q    Type
REMARK                         _______ _______ _______ _____ _____    ______ ____
ROOT
ATOM      1  O   UNL     1      33.602  -5.275  34.358  0.00  0.00    +0.000 OA
ATOM      2  C   UNL     1      33.523  -4.200  33.722  0.00  0.00    +0.000 C 
ATOM      3  N   UNL     1      33.535  -4.236  32.309  0.00  0.00    +0.000 NA
ENDROOT
BRANCH   2   4
ATOM      4  C   UNL     1      33.418  -2.875  34.376  0.00  0.00    +0.000 C 
ATOM      5  C   UNL     1      32.030  -2.612  34.907  0.00  0.00    +0.000 C 
ATOM      6  C   UNL     1      32.042  -1.255  35.566  0.00  0.00    +0.000 C 
ATOM      7  C   UNL     1      33.083  -1.216  36.676  0.00  0.00    +0.000 C 
ATOM      8  C   UNL     1      34.462  -1.509  36.123  0.00  0.00    +0.000 C 
ATOM      9  C   UNL     1      34.866  -0.465  35.081  0.00  0.00    +0.000 C 
ATOM     10  C   UNL     1      33.820  -0.484  33.983  0.00  0.00    +0.000 C 
ATOM     11  C   UNL     1      32.435  -0.235  34.532  0.00  0.00    +0.000 C 
ATOM     12  C   UNL     1      33.828  -1.836  33.342  0.00  0.00    +0.000 C 
ATOM     13  C   UNL     1      34.446  -2.874  35.510  0.00  0.00    +0.000 C 
ENDBRANCH   2   4
BRANCH   3  14
ATOM     14  C   UNL     1      33.629  -5.402  31.534  0.00  0.00    +0.000 A 
ATOM     15  C   UNL     1      34.907  -5.884  31.275  0.00  0.00    +0.000 A 
ATOM     16  C   UNL     1      35.145  -7.008  30.535  0.00  0.00    +0.000 A 
ATOM     17  C   UNL     1      34.046  -7.682  30.032  0.00  0.00    +0.000 A 
ATOM     18  C   UNL     1      32.743  -7.237  30.264  0.00  0.00    +0.000 A 
ATOM     19  C   UNL     1      32.576  -6.104  31.015  0.00  0.00    +0.000 A 
BRANCH  18  20
ATOM     20  N   UNL     1      31.631  -7.938  29.741  0.00  0.00    +0.000 N 
ATOM     21  O   UNL     1      31.785  -8.633  28.725  0.00  0.00    +0.000 OA
ATOM     22  O   UNL     1      30.421  -7.826  30.372  0.00  0.00    +0.000 OA
ENDBRANCH  18  20
ENDBRANCH   3  14
TORSDOF 3
ENDMDL
MODEL 9
REMARK VINA RESULT:      -6.3     19.084     22.010
REMARK  Name = 
REMARK  3 active torsions:
REMARK  status: ('A' for Active; 'I' for Inactive)
REMARK    1  A    between atoms: C_2  and  C_13
REMARK    2  A    between atoms: N_3  and  C_4
REMARK    3  A    between atoms: C_8  and  N_9
REMARK                            x       y       z     vdW  Elec       q    Type
REMARK                         _______ _______ _______ _____ _____    ______ ____
ROOT
ATOM      1  O   UNL     1      31.885  -2.481  34.790  0.00  0.00    +0.000 OA
ATOM      2  C   UNL     1      32.953  -2.822  34.233  0.00  0.00    +0.000 C 
ATOM      3  N   UNL     1      33.968  -1.856  34.049  0.00  0.00    +0.000 NA
ENDROOT
BRANCH   2   4
ATOM      4  C   UNL     1      33.215  -4.198  33.751  0.00  0.00    +0.000 C 
ATOM      5  C   UNL     1      32.031  -5.109  33.965  0.00  0.00    +0.000 C 
ATOM      6  C   UNL     1      32.397  -6.469  33.422  0.00  0.00    +0.000 C 
ATOM      7  C   UNL     1      32.766  -6.367  31.949  0.00  0.00    +0.000 C 
ATOM      8  C   UNL     1      33.937  -5.427  31.757  0.00  0.00    +0.000 C 
ATOM      9  C   UNL     1      35.172  -5.934  32.504  0.00  0.00    +0.000 C 
ATOM     10  C   UNL     1      34.803  -6.057  33.969  0.00  0.00    +0.000 C 
ATOM     11  C   UNL     1      33.608  -6.960  34.166  0.00  0.00    +0.000 C 
ATOM     12  C   UNL     1      34.448  -4.699  34.487  0.00  0.00    +0.000 C 
ATOM     13  C   UNL     1      33.546  -4.074  32.261  0.00  0.00    +0.000 C 
ENDBRANCH   2   4
BRANCH   3  14
ATOM     14  C   UNL     1      33.884  -0.513  34.444  0.00  0.00    +0.000 A 
ATOM     15  C   UNL     1      34.010  -0.248  35.803  0.00  0.00    +0.000 A 
ATOM     16  C   UNL     1      33.948   1.012  36.327  0.00  0.00    +0.000 A 
ATOM     17  C   UNL     1      33.750   2.059  35.442  0.00  0.00    +0.000 A 
ATOM     18  C   UNL     1      33.618   1.843  34.070  0.00  0.00    +0.000 A 
ATOM     19  C   UNL     1      33.690   0.555  33.612  0.00  0.00    +0.000 A 
BRANCH  18  20
ATOM     20  N   UNL     1      33.416   2.925  33.180  0.00  0.00    +0.000 N 
ATOM     21  O   UNL     1      33.819   2.821  32.010  0.00  0.00    +0.000 OA
ATOM     22  O   UNL     1      32.785   4.051  33.637  0.00  0.00    +0.000 OA
ENDBRANCH  18  20
ENDBRANCH   3  14
TORSDOF 3
ENDMDL
MODEL 10
REMARK VINA RESULT:      -6.3     17.833     19.010
REMARK  Name = 
REMARK  3 active torsions:
REMARK  status: ('A' for Active; 'I' for Inactive)
REMARK    1  A    between atoms: C_2  and  C_13
REMARK    2  A    between atoms: N_3  and  C_4
REMARK    3  A    between atoms: C_8  and  N_9
REMARK                            x       y       z     vdW  Elec       q    Type
REMARK                         _______ _______ _______ _____ _____    ______ ____
ROOT
ATOM      1  O   UNL     1      36.777   6.554  35.519  0.00  0.00    +0.000 OA
ATOM      2  C   UNL     1      35.756   7.245  35.733  0.00  0.00    +0.000 C 
ATOM      3  N   UNL     1      34.498   6.606  35.805  0.00  0.00    +0.000 NA
ENDROOT
BRANCH   2   4
ATOM      4  C   UNL     1      35.794   8.715  35.918  0.00  0.00    +0.000 C 
ATOM      5  C   UNL     1      36.251   9.432  34.672  0.00  0.00    +0.000 C 
ATOM      6  C   UNL     1      36.232  10.912  34.963  0.00  0.00    +0.000 C 
ATOM      7  C   UNL     1      34.836  11.350  35.381  0.00  0.00    +0.000 C 
ATOM      8  C   UNL     1      34.389  10.597  36.617  0.00  0.00    +0.000 C 
ATOM      9  C   UNL     1      35.326  10.874  37.794  0.00  0.00    +0.000 C 
ATOM     10  C   UNL     1      36.723  10.460  37.374  0.00  0.00    +0.000 C 
ATOM     11  C   UNL     1      37.160  11.175  36.118  0.00  0.00    +0.000 C 
ATOM     12  C   UNL     1      36.720   8.990  37.094  0.00  0.00    +0.000 C 
ATOM     13  C   UNL     1      34.372   9.135  36.300  0.00  0.00    +0.000 C 
ENDBRANCH   2   4
BRANCH   3  14
ATOM     14  C   UNL     1      34.285   5.228  35.653  0.00  0.00    +0.000 A 
ATOM     15  C   UNL     1      34.253   4.464  36.813  0.00  0.00    +0.000 A 
ATOM     16  C   UNL     1      34.055   3.112  36.812  0.00  0.00    +0.000 A 
ATOM     17  C   UNL     1      33.878   2.497  35.585  0.00  0.00    +0.000 A 
ATOM     18  C   UNL     1      33.902   3.221  34.392  0.00  0.00    +0.000 A 
ATOM     19  C   UNL     1      34.105   4.573  34.465  0.00  0.00    +0.000 A 
BRANCH  18  20
ATOM     20  N   UNL     1      33.720   2.576  33.146  0.00  0.00    +0.000 N 
ATOM     21  O   UNL     1      33.666   3.266  32.116  0.00  0.00    +0.000 OA
ATOM     22  O   UNL     1      33.608   1.212  33.116  0.00  0.00    +0.000 OA
ENDBRANCH  18  20
ENDBRANCH   3  14
TORSDOF 3
ENDMDL
