MODEL 1
REMARK VINA RESULT:      -5.9      0.000      0.000
REMARK  Name = 
REMARK  6 active torsions:
REMARK  status: ('A' for Active; 'I' for Inactive)
REMARK    1  A    between atoms: C_2  and  C_3
REMARK    2  A    between atoms: C_9  and  C_11
REMARK    3  A    between atoms: N_14  and  C_15
REMARK    4  A    between atoms: C_18  and  O_19
REMARK    5  A    between atoms: C_23  and  C_24
REMARK    6  A    between atoms: C_24  and  O_25
REMARK                            x       y       z     vdW  Elec       q    Type
REMARK                         _______ _______ _______ _____ _____    ______ ____
ROOT
ATOM      1  C   UNL     1      27.009  23.430  25.717  0.00  0.00    +0.000 A 
ATOM      2  N   UNL     1      26.276  22.869  24.747  0.00  0.00    +0.000 NA
ATOM      3  N   UNL     1      26.511  23.456  23.595  0.00  0.00    +0.000 NA
ATOM      4  N   UNL     1      27.423  24.441  23.772  0.00  0.00    +0.000 N 
ATOM      5  C   UNL     1      27.735  24.439  25.057  0.00  0.00    +0.000 A 
ENDROOT
BRANCH   1  12
ATOM      6  C   UNL     1      26.051  23.545  29.480  0.00  0.00    +0.000 C 
ATOM      7  C   UNL     1      27.140  24.683  29.909  0.00  0.00    +0.000 C 
ATOM      8  C   UNL     1      26.802  25.892  29.057  0.00  0.00    +0.000 C 
ATOM      9  C   UNL     1      25.408  25.861  28.487  0.00  0.00    +0.000 C 
ATOM     10  C   UNL     1      25.214  24.663  27.542  0.00  0.00    +0.000 C 
ATOM     11  N   UNL     1      26.187  23.713  27.987  0.00  0.00    +0.000 N 
ATOM     12  C   UNL     1      27.069  23.101  27.130  0.00  0.00    +0.000 C 
ATOM     13  O   UNL     1      27.944  22.255  27.505  0.00  0.00    +0.000 OA
BRANCH   6  15
ATOM     14  C   UNL     1      26.262  21.421  30.595  0.00  0.00    +0.000 C 
ATOM     15  C   UNL     1      27.077  22.296  29.628  0.00  0.00    +0.000 C 
ENDBRANCH   6  15
ENDBRANCH   1  12
BRANCH   4  16
ATOM     16  C   UNL     1      27.926  25.255  22.718  0.00  0.00    +0.000 A 
ATOM     17  C   UNL     1      27.471  26.539  22.465  0.00  0.00    +0.000 A 
ATOM     18  C   UNL     1      27.936  27.322  21.426  0.00  0.00    +0.000 A 
ATOM     19  C   UNL     1      28.905  26.817  20.584  0.00  0.00    +0.000 A 
ATOM     20  C   UNL     1      29.387  25.554  20.793  0.00  0.00    +0.000 A 
ATOM     21  C   UNL     1      28.899  24.800  21.842  0.00  0.00    +0.000 A 
BRANCH  19  22
ATOM     22  O   UNL     1      29.336  27.644  19.560  0.00  0.00    +0.000 OA
ATOM     23  C   UNL     1      30.209  27.236  18.546  0.00  0.00    +0.000 C 
ENDBRANCH  19  22
ENDBRANCH   4  16
BRANCH   5  24
ATOM     24  C   UNL     1      28.684  25.260  25.784  0.00  0.00    +0.000 C 
BRANCH  24  25
ATOM     25  O   UNL     1      29.910  24.778  26.092  0.00  0.00    +0.000 OA
ATOM     26  C   UNL     1      30.816  24.657  25.064  0.00  0.00    +0.000 C 
ENDBRANCH  24  25
ENDBRANCH   5  24
TORSDOF 6
ENDMDL
MODEL 2
REMARK VINA RESULT:      -5.8      2.914      4.890
REMARK  Name = 
REMARK  6 active torsions:
REMARK  status: ('A' for Active; 'I' for Inactive)
REMARK    1  A    between atoms: C_2  and  C_3
REMARK    2  A    between atoms: C_9  and  C_11
REMARK    3  A    between atoms: N_14  and  C_15
REMARK    4  A    between atoms: C_18  and  O_19
REMARK    5  A    between atoms: C_23  and  C_24
REMARK    6  A    between atoms: C_24  and  O_25
REMARK                            x       y       z     vdW  Elec       q    Type
REMARK                         _______ _______ _______ _____ _____    ______ ____
ROOT
ATOM      1  C   UNL     1      29.032  25.144  22.102  0.00  0.00    +0.000 A 
ATOM      2  N   UNL     1      29.526  24.485  21.047  0.00  0.00    +0.000 NA
ATOM      3  N   UNL     1      29.744  25.313  20.049  0.00  0.00    +0.000 NA
ATOM      4  N   UNL     1      29.394  26.567  20.423  0.00  0.00    +0.000 N 
ATOM      5  C   UNL     1      28.958  26.481  21.668  0.00  0.00    +0.000 A 
ENDROOT
BRANCH   1  12
ATOM      6  C   UNL     1      29.457  24.095  25.818  0.00  0.00    +0.000 C 
ATOM      7  C   UNL     1      29.783  22.523  25.526  0.00  0.00    +0.000 C 
ATOM      8  C   UNL     1      31.020  22.533  24.649  0.00  0.00    +0.000 C 
ATOM      9  C   UNL     1      31.793  23.825  24.705  0.00  0.00    +0.000 C 
ATOM     10  C   UNL     1      30.951  25.005  24.191  0.00  0.00    +0.000 C 
ATOM     11  N   UNL     1      29.601  24.580  24.397  0.00  0.00    +0.000 N 
ATOM     12  C   UNL     1      28.651  24.634  23.407  0.00  0.00    +0.000 C 
ATOM     13  O   UNL     1      27.444  24.259  23.568  0.00  0.00    +0.000 OA
BRANCH   6  15
ATOM     14  C   UNL     1      27.737  22.566  26.523  0.00  0.00    +0.000 C 
ATOM     15  C   UNL     1      27.844  23.919  25.800  0.00  0.00    +0.000 C 
ENDBRANCH   6  15
ENDBRANCH   1  12
BRANCH   4  16
ATOM     16  C   UNL     1      29.534  27.712  19.588  0.00  0.00    +0.000 A 
ATOM     17  C   UNL     1      28.479  28.551  19.264  0.00  0.00    +0.000 A 
ATOM     18  C   UNL     1      28.604  29.647  18.432  0.00  0.00    +0.000 A 
ATOM     19  C   UNL     1      29.836  29.938  17.884  0.00  0.00    +0.000 A 
ATOM     20  C   UNL     1      30.908  29.139  18.174  0.00  0.00    +0.000 A 
ATOM     21  C   UNL     1      30.746  28.052  19.010  0.00  0.00    +0.000 A 
BRANCH  19  22
ATOM     22  O   UNL     1      29.905  31.047  17.057  0.00  0.00    +0.000 OA
ATOM     23  C   UNL     1      30.931  31.263  16.130  0.00  0.00    +0.000 C 
ENDBRANCH  19  22
ENDBRANCH   4  16
BRANCH   5  24
ATOM     24  C   UNL     1      28.492  27.522  22.564  0.00  0.00    +0.000 C 
BRANCH  24  25
ATOM     25  O   UNL     1      29.360  28.160  23.381  0.00  0.00    +0.000 OA
ATOM     26  C   UNL     1      29.046  28.208  24.720  0.00  0.00    +0.000 C 
ENDBRANCH  24  25
ENDBRANCH   5  24
TORSDOF 6
ENDMDL
MODEL 3
REMARK VINA RESULT:      -5.7      3.283      7.946
REMARK  Name = 
REMARK  6 active torsions:
REMARK  status: ('A' for Active; 'I' for Inactive)
REMARK    1  A    between atoms: C_2  and  C_3
REMARK    2  A    between atoms: C_9  and  C_11
REMARK    3  A    between atoms: N_14  and  C_15
REMARK    4  A    between atoms: C_18  and  O_19
REMARK    5  A    between atoms: C_23  and  C_24
REMARK    6  A    between atoms: C_24  and  O_25
REMARK                            x       y       z     vdW  Elec       q    Type
REMARK                         _______ _______ _______ _____ _____    ______ ____
ROOT
ATOM      1  C   UNL     1      30.445  24.445  25.469  0.00  0.00    +0.000 A 
ATOM      2  N   UNL     1      31.280  25.307  26.063  0.00  0.00    +0.000 NA
ATOM      3  N   UNL     1      31.551  24.914  27.287  0.00  0.00    +0.000 NA
ATOM      4  N   UNL     1      30.892  23.759  27.544  0.00  0.00    +0.000 N 
ATOM      5  C   UNL     1      30.214  23.461  26.449  0.00  0.00    +0.000 A 
ENDROOT
BRANCH   1  12
ATOM      6  C   UNL     1      27.987  25.414  22.622  0.00  0.00    +0.000 C 
ATOM      7  C   UNL     1      27.017  24.109  22.767  0.00  0.00    +0.000 C 
ATOM      8  C   UNL     1      26.501  24.159  24.193  0.00  0.00    +0.000 C 
ATOM      9  C   UNL     1      26.625  25.516  24.835  0.00  0.00    +0.000 C 
ATOM     10  C   UNL     1      28.095  25.953  24.946  0.00  0.00    +0.000 C 
ATOM     11  N   UNL     1      28.751  25.220  23.908  0.00  0.00    +0.000 N 
ATOM     12  C   UNL     1      29.887  24.481  24.129  0.00  0.00    +0.000 C 
ATOM     13  O   UNL     1      30.486  23.820  23.220  0.00  0.00    +0.000 OA
BRANCH   6  15
ATOM     14  C   UNL     1      29.330  25.850  20.671  0.00  0.00    +0.000 C 
ATOM     15  C   UNL     1      29.063  24.691  21.646  0.00  0.00    +0.000 C 
ENDBRANCH   6  15
ENDBRANCH   1  12
BRANCH   4  16
ATOM     16  C   UNL     1      30.993  23.045  28.772  0.00  0.00    +0.000 A 
ATOM     17  C   UNL     1      30.121  23.232  29.834  0.00  0.00    +0.000 A 
ATOM     18  C   UNL     1      30.231  22.561  31.037  0.00  0.00    +0.000 A 
ATOM     19  C   UNL     1      31.256  21.654  31.210  0.00  0.00    +0.000 A 
ATOM     20  C   UNL     1      32.141  21.435  30.190  0.00  0.00    +0.000 A 
ATOM     21  C   UNL     1      32.000  22.122  29.002  0.00  0.00    +0.000 A 
BRANCH  19  22
ATOM     22  O   UNL     1      31.319  21.010  32.435  0.00  0.00    +0.000 OA
ATOM     23  C   UNL     1      30.558  21.383  33.549  0.00  0.00    +0.000 C 
ENDBRANCH  19  22
ENDBRANCH   4  16
BRANCH   5  24
ATOM     24  C   UNL     1      29.369  22.318  26.162  0.00  0.00    +0.000 C 
BRANCH  24  25
ATOM     25  O   UNL     1      28.390  21.957  27.023  0.00  0.00    +0.000 OA
ATOM     26  C   UNL     1      27.466  22.917  27.365  0.00  0.00    +0.000 C 
ENDBRANCH  24  25
ENDBRANCH   5  24
TORSDOF 6
ENDMDL
MODEL 4
REMARK VINA RESULT:      -5.6     19.828     22.236
REMARK  Name = 
REMARK  6 active torsions:
REMARK  status: ('A' for Active; 'I' for Inactive)
REMARK    1  A    between atoms: C_2  and  C_3
REMARK    2  A    between atoms: C_9  and  C_11
REMARK    3  A    between atoms: N_14  and  C_15
REMARK    4  A    between atoms: C_18  and  O_19
REMARK    5  A    between atoms: C_23  and  C_24
REMARK    6  A    between atoms: C_24  and  O_25
REMARK                            x       y       z     vdW  Elec       q    Type
REMARK                         _______ _______ _______ _____ _____    ______ ____
ROOT
ATOM      1  C   UNL     1      18.144   9.639  39.326  0.00  0.00    +0.000 A 
ATOM      2  N   UNL     1      16.849   9.934  39.494  0.00  0.00    +0.000 NA
ATOM      3  N   UNL     1      16.312  10.307  38.354  0.00  0.00    +0.000 NA
ATOM      4  N   UNL     1      17.254  10.269  37.381  0.00  0.00    +0.000 N 
ATOM      5  C   UNL     1      18.373   9.865  37.956  0.00  0.00    +0.000 A 
ENDROOT
BRANCH   1  12
ATOM      6  C   UNL     1      20.159   7.124  41.495  0.00  0.00    +0.000 C 
ATOM      7  C   UNL     1      19.181   7.186  42.801  0.00  0.00    +0.000 C 
ATOM      8  C   UNL     1      17.820   6.748  42.293  0.00  0.00    +0.000 C 
ATOM      9  C   UNL     1      17.872   5.992  40.992  0.00  0.00    +0.000 C 
ATOM     10  C   UNL     1      18.440   6.864  39.858  0.00  0.00    +0.000 C 
ATOM     11  N   UNL     1      19.237   7.837  40.539  0.00  0.00    +0.000 N 
ATOM     12  C   UNL     1      19.116   9.185  40.305  0.00  0.00    +0.000 C 
ATOM     13  O   UNL     1      19.814  10.069  40.901  0.00  0.00    +0.000 OA
BRANCH   6  15
ATOM     14  C   UNL     1      22.451   7.827  41.724  0.00  0.00    +0.000 C 
ATOM     15  C   UNL     1      21.044   8.419  41.913  0.00  0.00    +0.000 C 
ENDBRANCH   6  15
ENDBRANCH   1  12
BRANCH   4  16
ATOM     16  C   UNL     1      16.998  10.583  36.016  0.00  0.00    +0.000 A 
ATOM     17  C   UNL     1      16.056  11.517  35.614  0.00  0.00    +0.000 A 
ATOM     18  C   UNL     1      15.784  11.806  34.291  0.00  0.00    +0.000 A 
ATOM     19  C   UNL     1      16.476  11.138  33.301  0.00  0.00    +0.000 A 
ATOM     20  C   UNL     1      17.416  10.207  33.648  0.00  0.00    +0.000 A 
ATOM     21  C   UNL     1      17.662   9.945  34.981  0.00  0.00    +0.000 A 
BRANCH  19  22
ATOM     22  O   UNL     1      16.165  11.466  31.992  0.00  0.00    +0.000 OA
ATOM     23  C   UNL     1      14.858  11.648  31.526  0.00  0.00    +0.000 C 
ENDBRANCH  19  22
ENDBRANCH   4  16
BRANCH   5  24
ATOM     24  C   UNL     1      19.680   9.617  37.376  0.00  0.00    +0.000 C 
BRANCH  24  25
ATOM     25  O   UNL     1      20.684  10.507  37.546  0.00  0.00    +0.000 OA
ATOM     26  C   UNL     1      21.849  10.283  36.851  0.00  0.00    +0.000 C 
ENDBRANCH  24  25
ENDBRANCH   5  24
TORSDOF 6
ENDMDL
MODEL 5
REMARK VINA RESULT:      -5.6      2.336      3.862
REMARK  Name = 
REMARK  6 active torsions:
REMARK  status: ('A' for Active; 'I' for Inactive)
REMARK    1  A    between atoms: C_2  and  C_3
REMARK    2  A    between atoms: C_9  and  C_11
REMARK    3  A    between atoms: N_14  and  C_15
REMARK    4  A    between atoms: C_18  and  O_19
REMARK    5  A    between atoms: C_23  and  C_24
REMARK    6  A    between atoms: C_24  and  O_25
REMARK                            x       y       z     vdW  Elec       q    Type
REMARK                         _______ _______ _______ _____ _____    ______ ____
ROOT
ATOM      1  C   UNL     1      29.133  24.504  22.649  0.00  0.00    +0.000 A 
ATOM      2  N   UNL     1      29.497  23.931  21.496  0.00  0.00    +0.000 NA
ATOM      3  N   UNL     1      29.554  24.827  20.536  0.00  0.00    +0.000 NA
ATOM      4  N   UNL     1      29.223  26.041  21.036  0.00  0.00    +0.000 N 
ATOM      5  C   UNL     1      28.962  25.862  22.319  0.00  0.00    +0.000 A 
ENDROOT
BRANCH   1  12
ATOM      6  C   UNL     1      27.262  22.753  25.569  0.00  0.00    +0.000 C 
ATOM      7  C   UNL     1      26.862  24.117  26.371  0.00  0.00    +0.000 C 
ATOM      8  C   UNL     1      26.036  24.924  25.388  0.00  0.00    +0.000 C 
ATOM      9  C   UNL     1      25.471  24.106  24.256  0.00  0.00    +0.000 C 
ATOM     10  C   UNL     1      26.588  23.487  23.398  0.00  0.00    +0.000 C 
ATOM     11  N   UNL     1      27.705  23.416  24.289  0.00  0.00    +0.000 N 
ATOM     12  C   UNL     1      28.947  23.899  23.956  0.00  0.00    +0.000 C 
ATOM     13  O   UNL     1      29.955  23.848  24.734  0.00  0.00    +0.000 OA
BRANCH   6  15
ATOM     14  C   UNL     1      28.322  22.328  27.689  0.00  0.00    +0.000 C 
ATOM     15  C   UNL     1      28.735  22.617  26.237  0.00  0.00    +0.000 C 
ENDBRANCH   6  15
ENDBRANCH   1  12
BRANCH   4  16
ATOM     16  C   UNL     1      29.215  27.240  20.268  0.00  0.00    +0.000 A 
ATOM     17  C   UNL     1      30.270  27.632  19.458  0.00  0.00    +0.000 A 
ATOM     18  C   UNL     1      30.278  28.808  18.733  0.00  0.00    +0.000 A 
ATOM     19  C   UNL     1      29.188  29.651  18.805  0.00  0.00    +0.000 A 
ATOM     20  C   UNL     1      28.122  29.307  19.591  0.00  0.00    +0.000 A 
ATOM     21  C   UNL     1      28.148  28.124  20.301  0.00  0.00    +0.000 A 
BRANCH  19  22
ATOM     22  O   UNL     1      29.250  30.816  18.058  0.00  0.00    +0.000 OA
ATOM     23  C   UNL     1      30.125  31.004  16.984  0.00  0.00    +0.000 C 
ENDBRANCH  19  22
ENDBRANCH   4  16
BRANCH   5  24
ATOM     24  C   UNL     1      28.593  26.827  23.337  0.00  0.00    +0.000 C 
BRANCH  24  25
ATOM     25  O   UNL     1      29.482  27.760  23.749  0.00  0.00    +0.000 OA
ATOM     26  C   UNL     1      30.391  27.384  24.710  0.00  0.00    +0.000 C 
ENDBRANCH  24  25
ENDBRANCH   5  24
TORSDOF 6
ENDMDL
MODEL 6
REMARK VINA RESULT:      -5.5     21.961     25.928
REMARK  Name = 
REMARK  6 active torsions:
REMARK  status: ('A' for Active; 'I' for Inactive)
REMARK    1  A    between atoms: C_2  and  C_3
REMARK    2  A    between atoms: C_9  and  C_11
REMARK    3  A    between atoms: N_14  and  C_15
REMARK    4  A    between atoms: C_18  and  O_19
REMARK    5  A    between atoms: C_23  and  C_24
REMARK    6  A    between atoms: C_24  and  O_25
REMARK                            x       y       z     vdW  Elec       q    Type
REMARK                         _______ _______ _______ _____ _____    ______ ____
ROOT
ATOM      1  C   UNL     1      33.928   4.219  35.367  0.00  0.00    +0.000 A 
ATOM      2  N   UNL     1      33.665   4.255  34.055  0.00  0.00    +0.000 NA
ATOM      3  N   UNL     1      33.500   3.039  33.586  0.00  0.00    +0.000 NA
ATOM      4  N   UNL     1      33.650   2.146  34.593  0.00  0.00    +0.000 N 
ATOM      5  C   UNL     1      33.912   2.848  35.682  0.00  0.00    +0.000 A 
ENDROOT
BRANCH   1  12
ATOM      6  C   UNL     1      35.960   6.927  37.272  0.00  0.00    +0.000 C 
ATOM      7  C   UNL     1      36.270   6.023  38.595  0.00  0.00    +0.000 C 
ATOM      8  C   UNL     1      37.021   4.812  38.076  0.00  0.00    +0.000 C 
ATOM      9  C   UNL     1      37.629   5.013  36.713  0.00  0.00    +0.000 C 
ATOM     10  C   UNL     1      36.549   5.276  35.649  0.00  0.00    +0.000 C 
ATOM     11  N   UNL     1      35.452   5.807  36.398  0.00  0.00    +0.000 N 
ATOM     12  C   UNL     1      34.174   5.318  36.285  0.00  0.00    +0.000 C 
ATOM     13  O   UNL     1      33.184   5.775  36.942  0.00  0.00    +0.000 OA
BRANCH   6  15
ATOM     14  C   UNL     1      34.581   8.901  37.291  0.00  0.00    +0.000 C 
ATOM     15  C   UNL     1      34.510   7.446  37.784  0.00  0.00    +0.000 C 
ENDBRANCH   6  15
ENDBRANCH   1  12
BRANCH   4  16
ATOM     16  C   UNL     1      33.503   0.738  34.435  0.00  0.00    +0.000 A 
ATOM     17  C   UNL     1      34.111   0.020  33.417  0.00  0.00    +0.000 A 
ATOM     18  C   UNL     1      33.949  -1.341  33.243  0.00  0.00    +0.000 A 
ATOM     19  C   UNL     1      33.143  -2.040  34.117  0.00  0.00    +0.000 A 
ATOM     20  C   UNL     1      32.521  -1.374  35.138  0.00  0.00    +0.000 A 
ATOM     21  C   UNL     1      32.706  -0.014  35.282  0.00  0.00    +0.000 A 
BRANCH  19  22
ATOM     22  O   UNL     1      33.015  -3.401  33.896  0.00  0.00    +0.000 OA
ATOM     23  C   UNL     1      33.635  -4.079  32.840  0.00  0.00    +0.000 C 
ENDBRANCH  19  22
ENDBRANCH   4  16
BRANCH   5  24
ATOM     24  C   UNL     1      34.126   2.403  37.046  0.00  0.00    +0.000 C 
BRANCH  24  25
ATOM     25  O   UNL     1      35.328   1.911  37.424  0.00  0.00    +0.000 OA
ATOM     26  C   UNL     1      35.336   0.702  38.082  0.00  0.00    +0.000 C 
ENDBRANCH  24  25
ENDBRANCH   5  24
TORSDOF 6
ENDMDL
MODEL 7
REMARK VINA RESULT:      -5.5     20.114     23.477
REMARK  Name = 
REMARK  6 active torsions:
REMARK  status: ('A' for Active; 'I' for Inactive)
REMARK    1  A    between atoms: C_2  and  C_3
REMARK    2  A    between atoms: C_9  and  C_11
REMARK    3  A    between atoms: N_14  and  C_15
REMARK    4  A    between atoms: C_18  and  O_19
REMARK    5  A    between atoms: C_23  and  C_24
REMARK    6  A    between atoms: C_24  and  O_25
REMARK                            x       y       z     vdW  Elec       q    Type
REMARK                         _______ _______ _______ _____ _____    ______ ____
ROOT
ATOM      1  C   UNL     1      19.891   8.833  40.164  0.00  0.00    +0.000 A 
ATOM      2  N   UNL     1      20.938   9.198  39.414  0.00  0.00    +0.000 NA
ATOM      3  N   UNL     1      20.532   9.644  38.246  0.00  0.00    +0.000 NA
ATOM      4  N   UNL     1      19.181   9.587  38.189  0.00  0.00    +0.000 N 
ATOM      5  C   UNL     1      18.775   9.095  39.347  0.00  0.00    +0.000 A 
ENDROOT
BRANCH   1  12
ATOM      6  C   UNL     1      19.871   6.131  42.955  0.00  0.00    +0.000 C 
ATOM      7  C   UNL     1      18.249   6.054  43.121  0.00  0.00    +0.000 C 
ATOM      8  C   UNL     1      17.731   5.659  41.752  0.00  0.00    +0.000 C 
ATOM      9  C   UNL     1      18.777   5.037  40.864  0.00  0.00    +0.000 C 
ATOM     10  C   UNL     1      19.921   6.022  40.569  0.00  0.00    +0.000 C 
ATOM     11  N   UNL     1      19.888   6.929  41.675  0.00  0.00    +0.000 N 
ATOM     12  C   UNL     1      19.871   8.292  41.512  0.00  0.00    +0.000 C 
ATOM     13  O   UNL     1      19.840   9.117  42.482  0.00  0.00    +0.000 OA
BRANCH   6  15
ATOM     14  C   UNL     1      19.221   6.879  45.149  0.00  0.00    +0.000 C 
ATOM     15  C   UNL     1      20.065   7.384  43.967  0.00  0.00    +0.000 C 
ENDBRANCH   6  15
ENDBRANCH   1  12
BRANCH   4  16
ATOM     16  C   UNL     1      18.414  10.026  37.072  0.00  0.00    +0.000 A 
ATOM     17  C   UNL     1      18.306   9.305  35.893  0.00  0.00    +0.000 A 
ATOM     18  C   UNL     1      17.586   9.739  34.797  0.00  0.00    +0.000 A 
ATOM     19  C   UNL     1      16.934  10.954  34.859  0.00  0.00    +0.000 A 
ATOM     20  C   UNL     1      17.011  11.702  36.001  0.00  0.00    +0.000 A 
ATOM     21  C   UNL     1      17.739  11.235  37.078  0.00  0.00    +0.000 A 
BRANCH  19  22
ATOM     22  O   UNL     1      16.228  11.341  33.732  0.00  0.00    +0.000 OA
ATOM     23  C   UNL     1      16.361  10.727  32.482  0.00  0.00    +0.000 C 
ENDBRANCH  19  22
ENDBRANCH   4  16
BRANCH   5  24
ATOM     24  C   UNL     1      17.431   8.855  39.836  0.00  0.00    +0.000 C 
BRANCH  24  25
ATOM     25  O   UNL     1      16.783   9.804  40.550  0.00  0.00    +0.000 OA
ATOM     26  C   UNL     1      16.318   9.448  41.795  0.00  0.00    +0.000 C 
ENDBRANCH  24  25
ENDBRANCH   5  24
TORSDOF 6
ENDMDL
MODEL 8
REMARK VINA RESULT:      -5.4      1.473      2.417
REMARK  Name = 
REMARK  6 active torsions:
REMARK  status: ('A' for Active; 'I' for Inactive)
REMARK    1  A    between atoms: C_2  and  C_3
REMARK    2  A    between atoms: C_9  and  C_11
REMARK    3  A    between atoms: N_14  and  C_15
REMARK    4  A    between atoms: C_18  and  O_19
REMARK    5  A    between atoms: C_23  and  C_24
REMARK    6  A    between atoms: C_24  and  O_25
REMARK                            x       y       z     vdW  Elec       q    Type
REMARK                         _______ _______ _______ _____ _____    ______ ____
ROOT
ATOM      1  C   UNL     1      26.318  24.213  26.264  0.00  0.00    +0.000 A 
ATOM      2  N   UNL     1      26.034  23.125  25.538  0.00  0.00    +0.000 NA
ATOM      3  N   UNL     1      26.515  23.246  24.321  0.00  0.00    +0.000 NA
ATOM      4  N   UNL     1      27.144  24.440  24.205  0.00  0.00    +0.000 N 
ATOM      5  C   UNL     1      27.032  25.041  25.377  0.00  0.00    +0.000 A 
ENDROOT
BRANCH   1  12
ATOM      6  C   UNL     1      26.837  24.508  30.103  0.00  0.00    +0.000 C 
ATOM      7  C   UNL     1      26.221  23.044  30.481  0.00  0.00    +0.000 C 
ATOM      8  C   UNL     1      27.081  22.048  29.727  0.00  0.00    +0.000 C 
ATOM      9  C   UNL     1      28.412  22.604  29.292  0.00  0.00    +0.000 C 
ATOM     10  C   UNL     1      28.238  23.777  28.311  0.00  0.00    +0.000 C 
ATOM     11  N   UNL     1      26.936  24.287  28.614  0.00  0.00    +0.000 N 
ATOM     12  C   UNL     1      25.986  24.507  27.647  0.00  0.00    +0.000 C 
ATOM     13  O   UNL     1      24.821  24.959  27.894  0.00  0.00    +0.000 OA
BRANCH   6  15
ATOM     14  C   UNL     1      25.342  25.701  31.565  0.00  0.00    +0.000 C 
ATOM     15  C   UNL     1      25.405  25.272  30.090  0.00  0.00    +0.000 C 
ENDBRANCH   6  15
ENDBRANCH   1  12
BRANCH   4  16
ATOM     16  C   UNL     1      27.806  24.876  23.022  0.00  0.00    +0.000 A 
ATOM     17  C   UNL     1      28.875  24.198  22.455  0.00  0.00    +0.000 A 
ATOM     18  C   UNL     1      29.538  24.632  21.323  0.00  0.00    +0.000 A 
ATOM     19  C   UNL     1      29.131  25.799  20.710  0.00  0.00    +0.000 A 
ATOM     20  C   UNL     1      28.080  26.503  21.233  0.00  0.00    +0.000 A 
ATOM     21  C   UNL     1      27.440  26.039  22.365  0.00  0.00    +0.000 A 
BRANCH  19  22
ATOM     22  O   UNL     1      29.830  26.187  19.580  0.00  0.00    +0.000 OA
ATOM     23  C   UNL     1      30.108  27.520  19.257  0.00  0.00    +0.000 C 
ENDBRANCH  19  22
ENDBRANCH   4  16
BRANCH   5  24
ATOM     24  C   UNL     1      27.549  26.322  25.818  0.00  0.00    +0.000 C 
BRANCH  24  25
ATOM     25  O   UNL     1      28.855  26.456  26.144  0.00  0.00    +0.000 OA
ATOM     26  C   UNL     1      29.658  27.142  25.261  0.00  0.00    +0.000 C 
ENDBRANCH  24  25
ENDBRANCH   5  24
TORSDOF 6
ENDMDL
MODEL 9
REMARK VINA RESULT:      -5.4      1.476      1.949
REMARK  Name = 
REMARK  6 active torsions:
REMARK  status: ('A' for Active; 'I' for Inactive)
REMARK    1  A    between atoms: C_2  and  C_3
REMARK    2  A    between atoms: C_9  and  C_11
REMARK    3  A    between atoms: N_14  and  C_15
REMARK    4  A    between atoms: C_18  and  O_19
REMARK    5  A    between atoms: C_23  and  C_24
REMARK    6  A    between atoms: C_24  and  O_25
REMARK                            x       y       z     vdW  Elec       q    Type
REMARK                         _______ _______ _______ _____ _____    ______ ____
ROOT
ATOM      1  C   UNL     1      27.484  23.720  24.407  0.00  0.00    +0.000 A 
ATOM      2  N   UNL     1      27.000  23.040  23.361  0.00  0.00    +0.000 NA
ATOM      3  N   UNL     1      27.173  23.722  22.250  0.00  0.00    +0.000 NA
ATOM      4  N   UNL     1      27.790  24.893  22.535  0.00  0.00    +0.000 N 
ATOM      5  C   UNL     1      27.985  24.909  23.842  0.00  0.00    +0.000 A 
ENDROOT
BRANCH   1  12
ATOM      6  C   UNL     1      26.258  23.484  28.086  0.00  0.00    +0.000 C 
ATOM      7  C   UNL     1      27.064  24.795  28.630  0.00  0.00    +0.000 C 
ATOM      8  C   UNL     1      26.553  25.949  27.788  0.00  0.00    +0.000 C 
ATOM      9  C   UNL     1      25.237  25.668  27.109  0.00  0.00    +0.000 C 
ATOM     10  C   UNL     1      25.355  24.496  26.119  0.00  0.00    +0.000 C 
ATOM     11  N   UNL     1      26.463  23.739  26.613  0.00  0.00    +0.000 N 
ATOM     12  C   UNL     1      27.509  23.350  25.811  0.00  0.00    +0.000 C 
ATOM     13  O   UNL     1      28.506  22.678  26.230  0.00  0.00    +0.000 OA
BRANCH   6  15
ATOM     14  C   UNL     1      27.238  22.026  29.732  0.00  0.00    +0.000 C 
ATOM     15  C   UNL     1      27.500  22.457  28.279  0.00  0.00    +0.000 C 
ENDBRANCH   6  15
ENDBRANCH   1  12
BRANCH   4  16
ATOM     16  C   UNL     1      28.157  25.856  21.552  0.00  0.00    +0.000 A 
ATOM     17  C   UNL     1      29.345  25.802  20.840  0.00  0.00    +0.000 A 
ATOM     18  C   UNL     1      29.717  26.749  19.906  0.00  0.00    +0.000 A 
ATOM     19  C   UNL     1      28.876  27.813  19.654  0.00  0.00    +0.000 A 
ATOM     20  C   UNL     1      27.692  27.910  20.331  0.00  0.00    +0.000 A 
ATOM     21  C   UNL     1      27.352  26.944  21.258  0.00  0.00    +0.000 A 
BRANCH  19  22
ATOM     22  O   UNL     1      29.299  28.732  18.708  0.00  0.00    +0.000 OA
ATOM     23  C   UNL     1      28.838  28.756  17.387  0.00  0.00    +0.000 C 
ENDBRANCH  19  22
ENDBRANCH   4  16
BRANCH   5  24
ATOM     24  C   UNL     1      28.632  25.905  24.675  0.00  0.00    +0.000 C 
BRANCH  24  25
ATOM     25  O   UNL     1      28.057  27.114  24.867  0.00  0.00    +0.000 OA
ATOM     26  C   UNL     1      28.784  28.223  24.501  0.00  0.00    +0.000 C 
ENDBRANCH  24  25
ENDBRANCH   5  24
TORSDOF 6
ENDMDL
MODEL 10
REMARK VINA RESULT:      -5.4     17.361     22.374
REMARK  Name = 
REMARK  6 active torsions:
REMARK  status: ('A' for Active; 'I' for Inactive)
REMARK    1  A    between atoms: C_2  and  C_3
REMARK    2  A    between atoms: C_9  and  C_11
REMARK    3  A    between atoms: N_14  and  C_15
REMARK    4  A    between atoms: C_18  and  O_19
REMARK    5  A    between atoms: C_23  and  C_24
REMARK    6  A    between atoms: C_24  and  O_25
REMARK                            x       y       z     vdW  Elec       q    Type
REMARK                         _______ _______ _______ _____ _____    ______ ____
ROOT
ATOM      1  C   UNL     1      18.826   9.239  39.190  0.00  0.00    +0.000 A 
ATOM      2  N   UNL     1      18.604   9.548  37.907  0.00  0.00    +0.000 NA
ATOM      3  N   UNL     1      19.190  10.683  37.600  0.00  0.00    +0.000 NA
ATOM      4  N   UNL     1      19.830  11.166  38.691  0.00  0.00    +0.000 N 
ATOM      5  C   UNL     1      19.617  10.301  39.667  0.00  0.00    +0.000 A 
ENDROOT
BRANCH   1  12
ATOM      6  C   UNL     1      16.529   7.136  41.513  0.00  0.00    +0.000 C 
ATOM      7  C   UNL     1      17.309   7.487  42.904  0.00  0.00    +0.000 C 
ATOM      8  C   UNL     1      17.240   8.997  43.023  0.00  0.00    +0.000 C 
ATOM      9  C   UNL     1      16.164   9.625  42.175  0.00  0.00    +0.000 C 
ATOM     10  C   UNL     1      16.410   9.371  40.678  0.00  0.00    +0.000 C 
ATOM     11  N   UNL     1      17.202   8.180  40.656  0.00  0.00    +0.000 N 
ATOM     12  C   UNL     1      18.375   8.085  39.948  0.00  0.00    +0.000 C 
ATOM     13  O   UNL     1      19.096   7.036  39.916  0.00  0.00    +0.000 OA
BRANCH   6  15
ATOM     14  C   UNL     1      17.448   5.105  42.423  0.00  0.00    +0.000 C 
ATOM     15  C   UNL     1      17.499   5.900  41.108  0.00  0.00    +0.000 C 
ENDBRANCH   6  15
ENDBRANCH   1  12
BRANCH   4  16
ATOM     16  C   UNL     1      20.595  12.368  38.695  0.00  0.00    +0.000 A 
ATOM     17  C   UNL     1      21.981  12.387  38.690  0.00  0.00    +0.000 A 
ATOM     18  C   UNL     1      22.727  13.549  38.722  0.00  0.00    +0.000 A 
ATOM     19  C   UNL     1      22.077  14.765  38.762  0.00  0.00    +0.000 A 
ATOM     20  C   UNL     1      20.710  14.798  38.768  0.00  0.00    +0.000 A 
ATOM     21  C   UNL     1      19.996  13.616  38.734  0.00  0.00    +0.000 A 
BRANCH  19  22
ATOM     22  O   UNL     1      22.874  15.898  38.792  0.00  0.00    +0.000 OA
ATOM     23  C   UNL     1      22.410  17.183  38.489  0.00  0.00    +0.000 C 
ENDBRANCH  19  22
ENDBRANCH   4  16
BRANCH   5  24
ATOM     24  C   UNL     1      20.097  10.305  41.036  0.00  0.00    +0.000 C 
BRANCH  24  25
ATOM     25  O   UNL     1      21.411  10.120  41.300  0.00  0.00    +0.000 OA
ATOM     26  C   UNL     1      21.886   8.829  41.257  0.00  0.00    +0.000 C 
ENDBRANCH  24  25
ENDBRANCH   5  24
TORSDOF 6
ENDMDL
