MODEL 1
REMARK VINA RESULT:      -8.9      0.000      0.000
REMARK  Name = 
REMARK  1 active torsions:
REMARK  status: ('A' for Active; 'I' for Inactive)
REMARK    1  A    between atoms: C_12  and  C_13
REMARK                            x       y       z     vdW  Elec       q    Type
REMARK                         _______ _______ _______ _____ _____    ______ ____
ROOT
ATOM      1  O   UNL     1      17.957  10.418  34.176  0.00  0.00    +0.000 OA
ATOM      2  C   UNL     1      17.869  10.220  35.415  0.00  0.00    +0.000 C 
ATOM      3  N   UNL     1      18.879   9.583  36.233  0.00  0.00    +0.000 NA
ATOM      4  C   UNL     1      18.443   9.528  37.576  0.00  0.00    +0.000 A 
ATOM      5  C   UNL     1      19.077   9.008  38.710  0.00  0.00    +0.000 A 
ATOM      6  C   UNL     1      18.440   9.073  39.934  0.00  0.00    +0.000 A 
ATOM      7  C   UNL     1      17.189   9.640  40.065  0.00  0.00    +0.000 A 
ATOM      8 CL   UNL     1      16.450   9.683  41.653  0.00  0.00    +0.000 Cl
ATOM      9  C   UNL     1      16.570  10.151  38.942  0.00  0.00    +0.000 A 
ATOM     10  C   UNL     1      17.203  10.092  37.698  0.00  0.00    +0.000 A 
ATOM     11  C   UNL     1      16.802  10.545  36.343  0.00  0.00    +0.000 C 
ATOM     12  C   UNL     1      15.686  11.130  36.063  0.00  0.00    +0.000 C 
ENDROOT
BRANCH  12  13
ATOM     13  C   UNL     1      15.309  11.567  34.743  0.00  0.00    +0.000 A 
ATOM     14  C   UNL     1      14.660  12.808  34.610  0.00  0.00    +0.000 A 
ATOM     15  C   UNL     1      14.417  12.988  33.280  0.00  0.00    +0.000 A 
ATOM     16  C   UNL     1      14.901  11.893  32.628  0.00  0.00    +0.000 A 
ATOM     17  N   UNL     1      15.421  11.076  33.525  0.00  0.00    +0.000 NA
ATOM     18  C   UNL     1      14.812  11.733  31.129  0.00  0.00    +0.000 C 
ATOM     19  C   UNL     1      14.165  12.917  30.478  0.00  0.00    +0.000 C 
ATOM     20  C   UNL     1      14.479  14.213  31.214  0.00  0.00    +0.000 C 
ATOM     21  C   UNL     1      13.754  14.125  32.555  0.00  0.00    +0.000 C 
ENDBRANCH  12  13
TORSDOF 1
ENDMDL
MODEL 2
REMARK VINA RESULT:      -8.8      2.840      7.321
REMARK  Name = 
REMARK  1 active torsions:
REMARK  status: ('A' for Active; 'I' for Inactive)
REMARK    1  A    between atoms: C_12  and  C_13
REMARK                            x       y       z     vdW  Elec       q    Type
REMARK                         _______ _______ _______ _____ _____    ______ ____
ROOT
ATOM      1  O   UNL     1      18.270   9.341  35.046  0.00  0.00    +0.000 OA
ATOM      2  C   UNL     1      17.500  10.031  34.328  0.00  0.00    +0.000 C 
ATOM      3  N   UNL     1      17.265   9.820  32.915  0.00  0.00    +0.000 NA
ATOM      4  C   UNL     1      16.344  10.778  32.435  0.00  0.00    +0.000 A 
ATOM      5  C   UNL     1      15.822  10.964  31.150  0.00  0.00    +0.000 A 
ATOM      6  C   UNL     1      14.921  11.986  30.924  0.00  0.00    +0.000 A 
ATOM      7  C   UNL     1      14.522  12.832  31.939  0.00  0.00    +0.000 A 
ATOM      8 CL   UNL     1      13.375  14.103  31.569  0.00  0.00    +0.000 Cl
ATOM      9  C   UNL     1      15.041  12.642  33.203  0.00  0.00    +0.000 A 
ATOM     10  C   UNL     1      15.953  11.613  33.446  0.00  0.00    +0.000 A 
ATOM     11  C   UNL     1      16.668  11.168  34.669  0.00  0.00    +0.000 C 
ATOM     12  C   UNL     1      16.549  11.719  35.830  0.00  0.00    +0.000 C 
ENDROOT
BRANCH  12  13
ATOM     13  C   UNL     1      17.247  11.277  37.011  0.00  0.00    +0.000 A 
ATOM     14  C   UNL     1      16.562  10.456  37.924  0.00  0.00    +0.000 A 
ATOM     15  C   UNL     1      17.431  10.179  38.938  0.00  0.00    +0.000 A 
ATOM     16  C   UNL     1      18.604  10.812  38.650  0.00  0.00    +0.000 A 
ATOM     17  N   UNL     1      18.457  11.450  37.504  0.00  0.00    +0.000 NA
ATOM     18  C   UNL     1      19.813  10.735  39.552  0.00  0.00    +0.000 C 
ATOM     19  C   UNL     1      19.562   9.874  40.752  0.00  0.00    +0.000 C 
ATOM     20  C   UNL     1      18.617   8.722  40.437  0.00  0.00    +0.000 C 
ATOM     21  C   UNL     1      17.250   9.353  40.181  0.00  0.00    +0.000 C 
ENDBRANCH  12  13
TORSDOF 1
ENDMDL
MODEL 3
REMARK VINA RESULT:      -8.1      1.824      2.315
REMARK  Name = 
REMARK  1 active torsions:
REMARK  status: ('A' for Active; 'I' for Inactive)
REMARK    1  A    between atoms: C_12  and  C_13
REMARK                            x       y       z     vdW  Elec       q    Type
REMARK                         _______ _______ _______ _____ _____    ______ ____
ROOT
ATOM      1  O   UNL     1      17.706  13.155  36.220  0.00  0.00    +0.000 OA
ATOM      2  C   UNL     1      18.003  12.175  36.951  0.00  0.00    +0.000 C 
ATOM      3  N   UNL     1      18.866  12.231  38.111  0.00  0.00    +0.000 NA
ATOM      4  C   UNL     1      18.976  10.945  38.688  0.00  0.00    +0.000 A 
ATOM      5  C   UNL     1      19.695  10.518  39.810  0.00  0.00    +0.000 A 
ATOM      6  C   UNL     1      19.645   9.189  40.183  0.00  0.00    +0.000 A 
ATOM      7  C   UNL     1      18.901   8.269  39.473  0.00  0.00    +0.000 A 
ATOM      8 CL   UNL     1      18.890   6.603  40.012  0.00  0.00    +0.000 Cl
ATOM      9  C   UNL     1      18.196   8.698  38.366  0.00  0.00    +0.000 A 
ATOM     10  C   UNL     1      18.237  10.039  37.978  0.00  0.00    +0.000 A 
ATOM     11  C   UNL     1      17.601  10.784  36.863  0.00  0.00    +0.000 C 
ATOM     12  C   UNL     1      16.823  10.259  35.978  0.00  0.00    +0.000 C 
ENDROOT
BRANCH  12  13
ATOM     13  C   UNL     1      16.209  10.993  34.900  0.00  0.00    +0.000 A 
ATOM     14  C   UNL     1      16.723  10.829  33.601  0.00  0.00    +0.000 A 
ATOM     15  C   UNL     1      15.977  11.617  32.777  0.00  0.00    +0.000 A 
ATOM     16  C   UNL     1      15.042  12.240  33.549  0.00  0.00    +0.000 A 
ATOM     17  N   UNL     1      15.210  11.846  34.798  0.00  0.00    +0.000 NA
ATOM     18  C   UNL     1      14.025  13.201  32.980  0.00  0.00    +0.000 C 
ATOM     19  C   UNL     1      14.164  13.349  31.496  0.00  0.00    +0.000 C 
ATOM     20  C   UNL     1      14.628  12.056  30.837  0.00  0.00    +0.000 C 
ATOM     21  C   UNL     1      16.069  11.841  31.293  0.00  0.00    +0.000 C 
ENDBRANCH  12  13
TORSDOF 1
ENDMDL
MODEL 4
REMARK VINA RESULT:      -8.1     28.575     30.979
REMARK  Name = 
REMARK  1 active torsions:
REMARK  status: ('A' for Active; 'I' for Inactive)
REMARK    1  A    between atoms: C_12  and  C_13
REMARK                            x       y       z     vdW  Elec       q    Type
REMARK                         _______ _______ _______ _____ _____    ______ ____
ROOT
ATOM      1  O   UNL     1      31.371  20.065  12.470  0.00  0.00    +0.000 OA
ATOM      2  C   UNL     1      32.458  20.492  12.003  0.00  0.00    +0.000 C 
ATOM      3  N   UNL     1      33.719  19.783  12.042  0.00  0.00    +0.000 NA
ATOM      4  C   UNL     1      34.725  20.560  11.425  0.00  0.00    +0.000 A 
ATOM      5  C   UNL     1      36.084  20.287  11.230  0.00  0.00    +0.000 A 
ATOM      6  C   UNL     1      36.878  21.218  10.588  0.00  0.00    +0.000 A 
ATOM      7  C   UNL     1      36.361  22.414  10.133  0.00  0.00    +0.000 A 
ATOM      8 CL   UNL     1      37.436  23.539   9.329  0.00  0.00    +0.000 Cl
ATOM      9  C   UNL     1      35.021  22.675  10.329  0.00  0.00    +0.000 A 
ATOM     10  C   UNL     1      34.206  21.743  10.977  0.00  0.00    +0.000 A 
ATOM     11  C   UNL     1      32.764  21.738  11.325  0.00  0.00    +0.000 C 
ATOM     12  C   UNL     1      31.940  22.694  11.059  0.00  0.00    +0.000 C 
ENDROOT
BRANCH  12  13
ATOM     13  C   UNL     1      30.539  22.678  11.401  0.00  0.00    +0.000 A 
ATOM     14  C   UNL     1      30.146  23.230  12.632  0.00  0.00    +0.000 A 
ATOM     15  C   UNL     1      28.791  23.095  12.713  0.00  0.00    +0.000 A 
ATOM     16  C   UNL     1      28.377  22.480  11.569  0.00  0.00    +0.000 A 
ATOM     17  N   UNL     1      29.438  22.249  10.818  0.00  0.00    +0.000 NA
ATOM     18  C   UNL     1      26.926  22.160  11.296  0.00  0.00    +0.000 C 
ATOM     19  C   UNL     1      26.034  22.620  12.407  0.00  0.00    +0.000 C 
ATOM     20  C   UNL     1      26.552  23.894  13.062  0.00  0.00    +0.000 C 
ATOM     21  C   UNL     1      27.832  23.503  13.797  0.00  0.00    +0.000 C 
ENDBRANCH  12  13
TORSDOF 1
ENDMDL
MODEL 5
REMARK VINA RESULT:      -7.9      2.529      7.409
REMARK  Name = 
REMARK  1 active torsions:
REMARK  status: ('A' for Active; 'I' for Inactive)
REMARK    1  A    between atoms: C_12  and  C_13
REMARK                            x       y       z     vdW  Elec       q    Type
REMARK                         _______ _______ _______ _____ _____    ______ ____
ROOT
ATOM      1  O   UNL     1      18.463   9.328  35.375  0.00  0.00    +0.000 OA
ATOM      2  C   UNL     1      17.572  10.161  35.066  0.00  0.00    +0.000 C 
ATOM      3  N   UNL     1      17.082  10.401  33.726  0.00  0.00    +0.000 NA
ATOM      4  C   UNL     1      16.085  11.402  33.752  0.00  0.00    +0.000 A 
ATOM      5  C   UNL     1      15.335  11.957  32.709  0.00  0.00    +0.000 A 
ATOM      6  C   UNL     1      14.404  12.938  32.990  0.00  0.00    +0.000 A 
ATOM      7  C   UNL     1      14.194  13.384  34.279  0.00  0.00    +0.000 A 
ATOM      8 CL   UNL     1      12.993  14.631  34.550  0.00  0.00    +0.000 Cl
ATOM      9  C   UNL     1      14.937  12.832  35.302  0.00  0.00    +0.000 A 
ATOM     10  C   UNL     1      15.882  11.840  35.033  0.00  0.00    +0.000 A 
ATOM     11  C   UNL     1      16.811  11.072  35.900  0.00  0.00    +0.000 C 
ATOM     12  C   UNL     1      16.905  11.211  37.179  0.00  0.00    +0.000 C 
ENDROOT
BRANCH  12  13
ATOM     13  C   UNL     1      17.810  10.458  38.012  0.00  0.00    +0.000 A 
ATOM     14  C   UNL     1      19.042  11.041  38.357  0.00  0.00    +0.000 A 
ATOM     15  C   UNL     1      19.701  10.140  39.140  0.00  0.00    +0.000 A 
ATOM     16  C   UNL     1      18.896   9.048  39.266  0.00  0.00    +0.000 A 
ATOM     17  N   UNL     1      17.787   9.272  38.586  0.00  0.00    +0.000 NA
ATOM     18  C   UNL     1      19.292   7.833  40.071  0.00  0.00    +0.000 C 
ATOM     19  C   UNL     1      20.636   8.001  40.712  0.00  0.00    +0.000 C 
ATOM     20  C   UNL     1      20.902   9.449  41.104  0.00  0.00    +0.000 C 
ATOM     21  C   UNL     1      21.052  10.221  39.795  0.00  0.00    +0.000 C 
ENDBRANCH  12  13
TORSDOF 1
ENDMDL
MODEL 6
REMARK VINA RESULT:      -7.5      5.105      7.137
REMARK  Name = 
REMARK  1 active torsions:
REMARK  status: ('A' for Active; 'I' for Inactive)
REMARK    1  A    between atoms: C_12  and  C_13
REMARK                            x       y       z     vdW  Elec       q    Type
REMARK                         _______ _______ _______ _____ _____    ______ ____
ROOT
ATOM      1  O   UNL     1      20.870   8.807  39.876  0.00  0.00    +0.000 OA
ATOM      2  C   UNL     1      19.641   9.072  39.840  0.00  0.00    +0.000 C 
ATOM      3  N   UNL     1      18.662   8.624  40.807  0.00  0.00    +0.000 NA
ATOM      4  C   UNL     1      17.382   9.109  40.453  0.00  0.00    +0.000 A 
ATOM      5  C   UNL     1      16.145   8.934  41.083  0.00  0.00    +0.000 A 
ATOM      6  C   UNL     1      15.017   9.516  40.537  0.00  0.00    +0.000 A 
ATOM      7  C   UNL     1      15.082  10.269  39.382  0.00  0.00    +0.000 A 
ATOM      8 CL   UNL     1      13.606  10.974  38.756  0.00  0.00    +0.000 Cl
ATOM      9  C   UNL     1      16.306  10.436  38.767  0.00  0.00    +0.000 A 
ATOM     10  C   UNL     1      17.454   9.853  39.307  0.00  0.00    +0.000 A 
ATOM     11  C   UNL     1      18.877   9.854  38.886  0.00  0.00    +0.000 C 
ATOM     12  C   UNL     1      19.334  10.458  37.841  0.00  0.00    +0.000 C 
ENDROOT
BRANCH  12  13
ATOM     13  C   UNL     1      20.719  10.454  37.442  0.00  0.00    +0.000 A 
ATOM     14  C   UNL     1      21.562  11.462  37.943  0.00  0.00    +0.000 A 
ATOM     15  C   UNL     1      22.803  11.235  37.425  0.00  0.00    +0.000 A 
ATOM     16  C   UNL     1      22.716  10.126  36.637  0.00  0.00    +0.000 A 
ATOM     17  N   UNL     1      21.470   9.692  36.672  0.00  0.00    +0.000 NA
ATOM     18  C   UNL     1      23.902   9.563  35.890  0.00  0.00    +0.000 C 
ATOM     19  C   UNL     1      25.150  10.349  36.149  0.00  0.00    +0.000 C 
ATOM     20  C   UNL     1      25.181  10.918  37.561  0.00  0.00    +0.000 C 
ATOM     21  C   UNL     1      24.091  11.986  37.612  0.00  0.00    +0.000 C 
ENDBRANCH  12  13
TORSDOF 1
ENDMDL
MODEL 7
REMARK VINA RESULT:      -7.3      2.979      8.283
REMARK  Name = 
REMARK  1 active torsions:
REMARK  status: ('A' for Active; 'I' for Inactive)
REMARK    1  A    between atoms: C_12  and  C_13
REMARK                            x       y       z     vdW  Elec       q    Type
REMARK                         _______ _______ _______ _____ _____    ______ ____
ROOT
ATOM      1  O   UNL     1      19.076   9.186  38.111  0.00  0.00    +0.000 OA
ATOM      2  C   UNL     1      18.078   9.825  37.687  0.00  0.00    +0.000 C 
ATOM      3  N   UNL     1      17.922  10.333  36.341  0.00  0.00    +0.000 NA
ATOM      4  C   UNL     1      16.681  10.997  36.220  0.00  0.00    +0.000 A 
ATOM      5  C   UNL     1      16.105  11.639  35.118  0.00  0.00    +0.000 A 
ATOM      6  C   UNL     1      14.860  12.225  35.248  0.00  0.00    +0.000 A 
ATOM      7  C   UNL     1      14.170  12.191  36.442  0.00  0.00    +0.000 A 
ATOM      8 CL   UNL     1      12.596  12.957  36.523  0.00  0.00    +0.000 Cl
ATOM      9  C   UNL     1      14.745  11.556  37.524  0.00  0.00    +0.000 A 
ATOM     10  C   UNL     1      16.003  10.960  37.407  0.00  0.00    +0.000 A 
ATOM     11  C   UNL     1      16.859  10.221  38.367  0.00  0.00    +0.000 C 
ATOM     12  C   UNL     1      16.548   9.983  39.597  0.00  0.00    +0.000 C 
ENDROOT
BRANCH  12  13
ATOM     13  C   UNL     1      17.388   9.262  40.520  0.00  0.00    +0.000 A 
ATOM     14  C   UNL     1      17.144   7.890  40.715  0.00  0.00    +0.000 A 
ATOM     15  C   UNL     1      18.063   7.448  41.620  0.00  0.00    +0.000 A 
ATOM     16  C   UNL     1      18.839   8.516  41.963  0.00  0.00    +0.000 A 
ATOM     17  N   UNL     1      18.410   9.569  41.293  0.00  0.00    +0.000 NA
ATOM     18  C   UNL     1      19.976   8.411  42.952  0.00  0.00    +0.000 C 
ATOM     19  C   UNL     1      20.144   7.014  43.465  0.00  0.00    +0.000 C 
ATOM     20  C   UNL     1      19.789   5.974  42.410  0.00  0.00    +0.000 C 
ATOM     21  C   UNL     1      18.280   6.079  42.202  0.00  0.00    +0.000 C 
ENDBRANCH  12  13
TORSDOF 1
ENDMDL
MODEL 8
REMARK VINA RESULT:      -7.2     18.664     20.002
REMARK  Name = 
REMARK  1 active torsions:
REMARK  status: ('A' for Active; 'I' for Inactive)
REMARK    1  A    between atoms: C_12  and  C_13
REMARK                            x       y       z     vdW  Elec       q    Type
REMARK                         _______ _______ _______ _____ _____    ______ ____
ROOT
ATOM      1  O   UNL     1      36.650   4.649  36.057  0.00  0.00    +0.000 OA
ATOM      2  C   UNL     1      36.296   5.851  36.171  0.00  0.00    +0.000 C 
ATOM      3  N   UNL     1      37.131   6.923  36.668  0.00  0.00    +0.000 NA
ATOM      4  C   UNL     1      36.408   8.138  36.658  0.00  0.00    +0.000 A 
ATOM      5  C   UNL     1      36.800   9.424  37.045  0.00  0.00    +0.000 A 
ATOM      6  C   UNL     1      35.900  10.468  36.939  0.00  0.00    +0.000 A 
ATOM      7  C   UNL     1      34.622  10.271  36.460  0.00  0.00    +0.000 A 
ATOM      8 CL   UNL     1      33.543  11.648  36.357  0.00  0.00    +0.000 Cl
ATOM      9  C   UNL     1      34.243   8.999  36.081  0.00  0.00    +0.000 A 
ATOM     10  C   UNL     1      35.142   7.935  36.182  0.00  0.00    +0.000 A 
ATOM     11  C   UNL     1      35.031   6.490  35.860  0.00  0.00    +0.000 C 
ATOM     12  C   UNL     1      33.975   5.923  35.383  0.00  0.00    +0.000 C 
ENDROOT
BRANCH  12  13
ATOM     13  C   UNL     1      33.880   4.518  35.072  0.00  0.00    +0.000 A 
ATOM     14  C   UNL     1      33.828   4.135  33.720  0.00  0.00    +0.000 A 
ATOM     15  C   UNL     1      33.744   2.774  33.697  0.00  0.00    +0.000 A 
ATOM     16  C   UNL     1      33.746   2.346  34.991  0.00  0.00    +0.000 A 
ATOM     17  N   UNL     1      33.827   3.405  35.775  0.00  0.00    +0.000 NA
ATOM     18  C   UNL     1      33.666   0.885  35.365  0.00  0.00    +0.000 C 
ATOM     19  C   UNL     1      33.614   0.000  34.158  0.00  0.00    +0.000 C 
ATOM     20  C   UNL     1      34.416   0.575  32.997  0.00  0.00    +0.000 C 
ATOM     21  C   UNL     1      33.662   1.821  32.537  0.00  0.00    +0.000 C 
ENDBRANCH  12  13
TORSDOF 1
ENDMDL
MODEL 9
REMARK VINA RESULT:      -7.2      7.100      9.942
REMARK  Name = 
REMARK  1 active torsions:
REMARK  status: ('A' for Active; 'I' for Inactive)
REMARK    1  A    between atoms: C_12  and  C_13
REMARK                            x       y       z     vdW  Elec       q    Type
REMARK                         _______ _______ _______ _____ _____    ______ ____
ROOT
ATOM      1  O   UNL     1      21.021   6.331  42.582  0.00  0.00    +0.000 OA
ATOM      2  C   UNL     1      21.361   5.146  42.331  0.00  0.00    +0.000 C 
ATOM      3  N   UNL     1      22.493   4.460  42.916  0.00  0.00    +0.000 NA
ATOM      4  C   UNL     1      22.573   3.145  42.405  0.00  0.00    +0.000 A 
ATOM      5  C   UNL     1      23.491   2.125  42.677  0.00  0.00    +0.000 A 
ATOM      6  C   UNL     1      23.359   0.905  42.043  0.00  0.00    +0.000 A 
ATOM      7  C   UNL     1      22.340   0.667  41.144  0.00  0.00    +0.000 A 
ATOM      8 CL   UNL     1      22.242  -0.908  40.383  0.00  0.00    +0.000 Cl
ATOM      9  C   UNL     1      21.438   1.678  40.880  0.00  0.00    +0.000 A 
ATOM     10  C   UNL     1      21.560   2.917  41.514  0.00  0.00    +0.000 A 
ATOM     11  C   UNL     1      20.765   4.168  41.440  0.00  0.00    +0.000 C 
ATOM     12  C   UNL     1      19.721   4.332  40.699  0.00  0.00    +0.000 C 
ENDROOT
BRANCH  12  13
ATOM     13  C   UNL     1      18.955   5.552  40.637  0.00  0.00    +0.000 A 
ATOM     14  C   UNL     1      17.711   5.595  41.291  0.00  0.00    +0.000 A 
ATOM     15  C   UNL     1      17.197   6.841  41.085  0.00  0.00    +0.000 A 
ATOM     16  C   UNL     1      18.099   7.531  40.332  0.00  0.00    +0.000 A 
ATOM     17  N   UNL     1      19.125   6.737  40.086  0.00  0.00    +0.000 NA
ATOM     18  C   UNL     1      17.875   8.961  39.901  0.00  0.00    +0.000 C 
ATOM     19  C   UNL     1      16.580   9.506  40.421  0.00  0.00    +0.000 C 
ATOM     20  C   UNL     1      16.227   8.925  41.785  0.00  0.00    +0.000 C 
ATOM     21  C   UNL     1      15.904   7.452  41.547  0.00  0.00    +0.000 C 
ENDBRANCH  12  13
TORSDOF 1
ENDMDL
MODEL 10
REMARK VINA RESULT:      -7.2      3.881      8.871
REMARK  Name = 
REMARK  1 active torsions:
REMARK  status: ('A' for Active; 'I' for Inactive)
REMARK    1  A    between atoms: C_12  and  C_13
REMARK                            x       y       z     vdW  Elec       q    Type
REMARK                         _______ _______ _______ _____ _____    ______ ____
ROOT
ATOM      1  O   UNL     1      18.134   9.470  39.776  0.00  0.00    +0.000 OA
ATOM      2  C   UNL     1      17.156   9.983  39.173  0.00  0.00    +0.000 C 
ATOM      3  N   UNL     1      17.230  10.680  37.907  0.00  0.00    +0.000 NA
ATOM      4  C   UNL     1      15.942  11.123  37.528  0.00  0.00    +0.000 A 
ATOM      5  C   UNL     1      15.529  11.832  36.395  0.00  0.00    +0.000 A 
ATOM      6  C   UNL     1      14.194  12.154  36.245  0.00  0.00    +0.000 A 
ATOM      7  C   UNL     1      13.255  11.792  37.190  0.00  0.00    +0.000 A 
ATOM      8 CL   UNL     1      11.582  12.238  36.924  0.00  0.00    +0.000 Cl
ATOM      9  C   UNL     1      13.671  11.092  38.304  0.00  0.00    +0.000 A 
ATOM     10  C   UNL     1      15.018  10.760  38.469  0.00  0.00    +0.000 A 
ATOM     11  C   UNL     1      15.752  10.031  39.533  0.00  0.00    +0.000 C 
ATOM     12  C   UNL     1      15.208   9.532  40.591  0.00  0.00    +0.000 C 
ENDROOT
BRANCH  12  13
ATOM     13  C   UNL     1      15.931   8.825  41.618  0.00  0.00    +0.000 A 
ATOM     14  C   UNL     1      16.386   9.548  42.734  0.00  0.00    +0.000 A 
ATOM     15  C   UNL     1      17.028   8.661  43.547  0.00  0.00    +0.000 A 
ATOM     16  C   UNL     1      16.964   7.440  42.944  0.00  0.00    +0.000 A 
ATOM     17  N   UNL     1      16.309   7.576  41.806  0.00  0.00    +0.000 NA
ATOM     18  C   UNL     1      17.571   6.198  43.554  0.00  0.00    +0.000 C 
ATOM     19  C   UNL     1      18.206   6.480  44.881  0.00  0.00    +0.000 C 
ATOM     20  C   UNL     1      17.468   7.572  45.644  0.00  0.00    +0.000 C 
ATOM     21  C   UNL     1      17.710   8.867  44.871  0.00  0.00    +0.000 C 
ENDBRANCH  12  13
TORSDOF 1
ENDMDL
