MODEL 1
REMARK VINA RESULT:      -8.2      0.000      0.000
REMARK  Name = 
REMARK  6 active torsions:
REMARK  status: ('A' for Active; 'I' for Inactive)
REMARK    1  A    between atoms: C_6  and  C_7
REMARK    2  A    between atoms: C_7  and  C_9
REMARK    3  A    between atoms: C_9  and  S_10
REMARK    4  A    between atoms: S_10  and  C_11
REMARK    5  A    between atoms: N_15  and  C_16
REMARK    6  A    between atoms: N_22  and  C_23
REMARK                            x       y       z     vdW  Elec       q    Type
REMARK                         _______ _______ _______ _____ _____    ______ ____
ROOT
ATOM      1  C   UNL     1      36.743   1.207  14.654  0.00  0.00    +0.000 A 
ATOM      2  N   UNL     1      35.664   1.606  15.309  0.00  0.00    +0.000 NA
ATOM      3  N   UNL     1      35.261   0.634  16.069  0.00  0.00    +0.000 NA
ATOM      4  C   UNL     1      36.104  -0.471  15.925  0.00  0.00    +0.000 A 
ATOM      5  N   UNL     1      35.911  -1.647  16.618  0.00  0.00    +0.000 NA
ATOM      6  N   UNL     1      36.996  -0.058  15.042  0.00  0.00    +0.000 N 
ENDROOT
BRANCH   5   7
ATOM      7  C   UNL     1      36.489  -2.875  16.736  0.00  0.00    +0.000 A 
ATOM      8  C   UNL     1      37.684  -2.961  17.493  0.00  0.00    +0.000 A 
ATOM      9  C   UNL     1      38.353  -4.111  17.686  0.00  0.00    +0.000 A 
ATOM     10  C   UNL     1      37.873  -5.274  17.131  0.00  0.00    +0.000 A 
ATOM     11  C   UNL     1      36.719  -5.244  16.389  0.00  0.00    +0.000 A 
ATOM     12  C   UNL     1      36.067  -4.062  16.214  0.00  0.00    +0.000 A 
ENDBRANCH   5   7
BRANCH   6  13
ATOM     13  C   UNL     1      38.111  -0.776  14.508  0.00  0.00    +0.000 A 
ATOM     14  C   UNL     1      39.324  -0.668  15.141  0.00  0.00    +0.000 A 
ATOM     15  C   UNL     1      40.408  -1.363  14.669  0.00  0.00    +0.000 A 
ATOM     16  C   UNL     1      40.265  -2.166  13.555  0.00  0.00    +0.000 A 
ATOM     17  C   UNL     1      39.047  -2.272  12.923  0.00  0.00    +0.000 A 
ATOM     18  C   UNL     1      37.971  -1.575  13.400  0.00  0.00    +0.000 A 
ENDBRANCH   6  13
BRANCH   1  19
ATOM     19  S   UNL     1      37.703   2.173  13.464  0.00  0.00    +0.000 S 
BRANCH  19  20
ATOM     20  C   UNL     1      39.050   2.963  14.344  0.00  0.00    +0.000 C 
BRANCH  20  21
ATOM     21  C   UNL     1      38.610   4.288  14.854  0.00  0.00    +0.000 C 
ATOM     22  O   UNL     1      37.803   4.985  14.185  0.00  0.00    +0.000 OA
BRANCH  21  28
ATOM     23  C   UNL     1      40.578   6.436  19.845  0.00  0.00    +0.000 C 
ATOM     24  C   UNL     1      40.065   5.877  18.557  0.00  0.00    +0.000 A 
ATOM     25  C   UNL     1      38.948   5.068  18.509  0.00  0.00    +0.000 A 
ATOM     26  C   UNL     1      38.459   4.541  17.323  0.00  0.00    +0.000 A 
ATOM     27  C   UNL     1      37.263   3.683  17.331  0.00  0.00    +0.000 C 
ATOM     28  C   UNL     1      39.089   4.821  16.130  0.00  0.00    +0.000 A 
ATOM     29  C   UNL     1      40.206   5.628  16.164  0.00  0.00    +0.000 A 
ATOM     30  C   UNL     1      40.874   5.919  14.865  0.00  0.00    +0.000 C 
ATOM     31  C   UNL     1      40.689   6.151  17.356  0.00  0.00    +0.000 A 
ENDBRANCH  21  28
ENDBRANCH  20  21
ENDBRANCH  19  20
ENDBRANCH   1  19
TORSDOF 6
ENDMDL
MODEL 2
REMARK VINA RESULT:      -8.2      0.668      1.896
REMARK  Name = 
REMARK  6 active torsions:
REMARK  status: ('A' for Active; 'I' for Inactive)
REMARK    1  A    between atoms: C_6  and  C_7
REMARK    2  A    between atoms: C_7  and  C_9
REMARK    3  A    between atoms: C_9  and  S_10
REMARK    4  A    between atoms: S_10  and  C_11
REMARK    5  A    between atoms: N_15  and  C_16
REMARK    6  A    between atoms: N_22  and  C_23
REMARK                            x       y       z     vdW  Elec       q    Type
REMARK                         _______ _______ _______ _____ _____    ______ ____
ROOT
ATOM      1  C   UNL     1      36.890   1.699  14.508  0.00  0.00    +0.000 A 
ATOM      2  N   UNL     1      35.809   2.203  15.082  0.00  0.00    +0.000 NA
ATOM      3  N   UNL     1      35.187   1.248  15.701  0.00  0.00    +0.000 NA
ATOM      4  C   UNL     1      35.875   0.043  15.541  0.00  0.00    +0.000 A 
ATOM      5  N   UNL     1      35.438  -1.142  16.096  0.00  0.00    +0.000 NA
ATOM      6  N   UNL     1      36.915   0.383  14.798  0.00  0.00    +0.000 N 
ENDROOT
BRANCH   5   7
ATOM      7  C   UNL     1      35.819  -2.448  16.156  0.00  0.00    +0.000 A 
ATOM      8  C   UNL     1      35.023  -3.389  15.456  0.00  0.00    +0.000 A 
ATOM      9  C   UNL     1      35.288  -4.707  15.434  0.00  0.00    +0.000 A 
ATOM     10  C   UNL     1      36.381  -5.189  16.117  0.00  0.00    +0.000 A 
ATOM     11  C   UNL     1      37.184  -4.318  16.809  0.00  0.00    +0.000 A 
ATOM     12  C   UNL     1      36.886  -2.990  16.810  0.00  0.00    +0.000 A 
ENDBRANCH   5   7
BRANCH   6  13
ATOM     13  C   UNL     1      37.971  -0.451  14.317  0.00  0.00    +0.000 A 
ATOM     14  C   UNL     1      39.120  -0.547  15.062  0.00  0.00    +0.000 A 
ATOM     15  C   UNL     1      40.144  -1.358  14.641  0.00  0.00    +0.000 A 
ATOM     16  C   UNL     1      40.004  -2.070  13.466  0.00  0.00    +0.000 A 
ATOM     17  C   UNL     1      38.851  -1.970  12.723  0.00  0.00    +0.000 A 
ATOM     18  C   UNL     1      37.835  -1.159  13.149  0.00  0.00    +0.000 A 
ENDBRANCH   6  13
BRANCH   1  19
ATOM     19  S   UNL     1      38.109   2.599  13.520  0.00  0.00    +0.000 S 
BRANCH  19  20
ATOM     20  C   UNL     1      39.369   3.230  14.629  0.00  0.00    +0.000 C 
BRANCH  20  21
ATOM     21  C   UNL     1      39.004   4.598  15.079  0.00  0.00    +0.000 C 
ATOM     22  O   UNL     1      38.272   5.325  14.358  0.00  0.00    +0.000 OA
BRANCH  21  28
ATOM     23  C   UNL     1      40.778   6.699  20.163  0.00  0.00    +0.000 C 
ATOM     24  C   UNL     1      40.323   6.158  18.845  0.00  0.00    +0.000 A 
ATOM     25  C   UNL     1      41.020   6.403  17.679  0.00  0.00    +0.000 A 
ATOM     26  C   UNL     1      40.612   5.910  16.449  0.00  0.00    +0.000 A 
ATOM     27  C   UNL     1      41.395   6.202  15.238  0.00  0.00    +0.000 C 
ATOM     28  C   UNL     1      39.473   5.141  16.355  0.00  0.00    +0.000 A 
ATOM     29  C   UNL     1      38.768   4.889  17.512  0.00  0.00    +0.000 A 
ATOM     30  C   UNL     1      37.538   4.056  17.391  0.00  0.00    +0.000 C 
ATOM     31  C   UNL     1      39.182   5.387  18.740  0.00  0.00    +0.000 A 
ENDBRANCH  21  28
ENDBRANCH  20  21
ENDBRANCH  19  20
ENDBRANCH   1  19
TORSDOF 6
ENDMDL
MODEL 3
REMARK VINA RESULT:      -7.7      1.604      2.863
REMARK  Name = 
REMARK  6 active torsions:
REMARK  status: ('A' for Active; 'I' for Inactive)
REMARK    1  A    between atoms: C_6  and  C_7
REMARK    2  A    between atoms: C_7  and  C_9
REMARK    3  A    between atoms: C_9  and  S_10
REMARK    4  A    between atoms: S_10  and  C_11
REMARK    5  A    between atoms: N_15  and  C_16
REMARK    6  A    between atoms: N_22  and  C_23
REMARK                            x       y       z     vdW  Elec       q    Type
REMARK                         _______ _______ _______ _____ _____    ______ ____
ROOT
ATOM      1  C   UNL     1      37.909   1.178  14.245  0.00  0.00    +0.000 A 
ATOM      2  N   UNL     1      38.537   0.956  13.102  0.00  0.00    +0.000 NA
ATOM      3  N   UNL     1      38.458  -0.310  12.827  0.00  0.00    +0.000 NA
ATOM      4  C   UNL     1      37.744  -0.975  13.827  0.00  0.00    +0.000 A 
ATOM      5  N   UNL     1      37.506  -2.333  13.791  0.00  0.00    +0.000 NA
ATOM      6  N   UNL     1      37.432  -0.007  14.672  0.00  0.00    +0.000 N 
ENDROOT
BRANCH   5   7
ATOM      7  C   UNL     1      36.884  -3.285  14.541  0.00  0.00    +0.000 A 
ATOM      8  C   UNL     1      37.656  -3.933  15.538  0.00  0.00    +0.000 A 
ATOM      9  C   UNL     1      37.164  -4.889  16.345  0.00  0.00    +0.000 A 
ATOM     10  C   UNL     1      35.850  -5.274  16.215  0.00  0.00    +0.000 A 
ATOM     11  C   UNL     1      35.060  -4.677  15.265  0.00  0.00    +0.000 A 
ATOM     12  C   UNL     1      35.591  -3.712  14.465  0.00  0.00    +0.000 A 
ENDBRANCH   5   7
BRANCH   6  13
ATOM     13  C   UNL     1      36.696  -0.101  15.893  0.00  0.00    +0.000 A 
ATOM     14  C   UNL     1      37.319  -0.633  16.994  0.00  0.00    +0.000 A 
ATOM     15  C   UNL     1      36.649  -0.716  18.188  0.00  0.00    +0.000 A 
ATOM     16  C   UNL     1      35.348  -0.261  18.267  0.00  0.00    +0.000 A 
ATOM     17  C   UNL     1      34.727   0.271  17.161  0.00  0.00    +0.000 A 
ATOM     18  C   UNL     1      35.402   0.350  15.974  0.00  0.00    +0.000 A 
ENDBRANCH   6  13
BRANCH   1  19
ATOM     19  S   UNL     1      37.720   2.770  15.082  0.00  0.00    +0.000 S 
BRANCH  19  20
ATOM     20  C   UNL     1      39.280   3.647  14.971  0.00  0.00    +0.000 C 
BRANCH  20  21
ATOM     21  C   UNL     1      39.120   5.029  15.494  0.00  0.00    +0.000 C 
ATOM     22  O   UNL     1      38.308   5.820  14.946  0.00  0.00    +0.000 OA
BRANCH  21  28
ATOM     23  C   UNL     1      42.214   6.966  19.974  0.00  0.00    +0.000 C 
ATOM     24  C   UNL     1      41.410   6.462  18.818  0.00  0.00    +0.000 A 
ATOM     25  C   UNL     1      40.197   5.829  18.998  0.00  0.00    +0.000 A 
ATOM     26  C   UNL     1      39.438   5.355  17.938  0.00  0.00    +0.000 A 
ATOM     27  C   UNL     1      38.152   4.687  18.188  0.00  0.00    +0.000 C 
ATOM     28  C   UNL     1      39.885   5.511  16.644  0.00  0.00    +0.000 A 
ATOM     29  C   UNL     1      41.095   6.143  16.451  0.00  0.00    +0.000 A 
ATOM     30  C   UNL     1      41.562   6.302  15.045  0.00  0.00    +0.000 C 
ATOM     31  C   UNL     1      41.848   6.613  17.518  0.00  0.00    +0.000 A 
ENDBRANCH  21  28
ENDBRANCH  20  21
ENDBRANCH  19  20
ENDBRANCH   1  19
TORSDOF 6
ENDMDL
MODEL 4
REMARK VINA RESULT:      -7.6     29.762     31.981
REMARK  Name = 
REMARK  6 active torsions:
REMARK  status: ('A' for Active; 'I' for Inactive)
REMARK    1  A    between atoms: C_6  and  C_7
REMARK    2  A    between atoms: C_7  and  C_9
REMARK    3  A    between atoms: C_9  and  S_10
REMARK    4  A    between atoms: S_10  and  C_11
REMARK    5  A    between atoms: N_15  and  C_16
REMARK    6  A    between atoms: N_22  and  C_23
REMARK                            x       y       z     vdW  Elec       q    Type
REMARK                         _______ _______ _______ _____ _____    ______ ____
ROOT
ATOM      1  C   UNL     1       7.851   2.266  11.975  0.00  0.00    +0.000 A 
ATOM      2  N   UNL     1       7.361   1.423  12.870  0.00  0.00    +0.000 NA
ATOM      3  N   UNL     1       6.223   1.884  13.290  0.00  0.00    +0.000 NA
ATOM      4  C   UNL     1       5.928   3.091  12.652  0.00  0.00    +0.000 A 
ATOM      5  N   UNL     1       4.775   3.803  12.907  0.00  0.00    +0.000 NA
ATOM      6  N   UNL     1       6.966   3.274  11.854  0.00  0.00    +0.000 N 
ENDROOT
BRANCH   5   7
ATOM      7  C   UNL     1       4.171   4.956  12.505  0.00  0.00    +0.000 A 
ATOM      8  C   UNL     1       3.254   4.868  11.429  0.00  0.00    +0.000 A 
ATOM      9  C   UNL     1       2.592   5.930  10.936  0.00  0.00    +0.000 A 
ATOM     10  C   UNL     1       2.799   7.173  11.489  0.00  0.00    +0.000 A 
ATOM     11  C   UNL     1       3.677   7.310  12.534  0.00  0.00    +0.000 A 
ATOM     12  C   UNL     1       4.330   6.214  13.008  0.00  0.00    +0.000 A 
ENDBRANCH   5   7
BRANCH   6  13
ATOM     13  C   UNL     1       7.210   4.357  10.953  0.00  0.00    +0.000 A 
ATOM     14  C   UNL     1       6.611   4.329   9.719  0.00  0.00    +0.000 A 
ATOM     15  C   UNL     1       6.805   5.363   8.839  0.00  0.00    +0.000 A 
ATOM     16  C   UNL     1       7.605   6.425   9.209  0.00  0.00    +0.000 A 
ATOM     17  C   UNL     1       8.204   6.450  10.447  0.00  0.00    +0.000 A 
ATOM     18  C   UNL     1       8.006   5.414  11.319  0.00  0.00    +0.000 A 
ENDBRANCH   6  13
BRANCH   1  19
ATOM     19  S   UNL     1       9.413   2.103  11.078  0.00  0.00    +0.000 S 
BRANCH  19  20
ATOM     20  C   UNL     1       9.037   1.897   9.337  0.00  0.00    +0.000 C 
BRANCH  20  21
ATOM     21  C   UNL     1      10.165   2.407   8.514  0.00  0.00    +0.000 C 
ATOM     22  O   UNL     1      11.238   1.752   8.441  0.00  0.00    +0.000 OA
BRANCH  21  28
ATOM     23  C   UNL     1       9.845   7.418   5.654  0.00  0.00    +0.000 C 
ATOM     24  C   UNL     1       9.924   6.119   6.390  0.00  0.00    +0.000 A 
ATOM     25  C   UNL     1       9.323   4.973   5.909  0.00  0.00    +0.000 A 
ATOM     26  C   UNL     1       9.387   3.760   6.579  0.00  0.00    +0.000 A 
ATOM     27  C   UNL     1       8.727   2.570   6.020  0.00  0.00    +0.000 C 
ATOM     28  C   UNL     1      10.070   3.664   7.772  0.00  0.00    +0.000 A 
ATOM     29  C   UNL     1      10.675   4.801   8.262  0.00  0.00    +0.000 A 
ATOM     30  C   UNL     1      11.409   4.678   9.553  0.00  0.00    +0.000 C 
ATOM     31  C   UNL     1      10.606   6.011   7.586  0.00  0.00    +0.000 A 
ENDBRANCH  21  28
ENDBRANCH  20  21
ENDBRANCH  19  20
ENDBRANCH   1  19
TORSDOF 6
ENDMDL
MODEL 5
REMARK VINA RESULT:      -7.5      1.911      2.424
REMARK  Name = 
REMARK  6 active torsions:
REMARK  status: ('A' for Active; 'I' for Inactive)
REMARK    1  A    between atoms: C_6  and  C_7
REMARK    2  A    between atoms: C_7  and  C_9
REMARK    3  A    between atoms: C_9  and  S_10
REMARK    4  A    between atoms: S_10  and  C_11
REMARK    5  A    between atoms: N_15  and  C_16
REMARK    6  A    between atoms: N_22  and  C_23
REMARK                            x       y       z     vdW  Elec       q    Type
REMARK                         _______ _______ _______ _____ _____    ______ ____
ROOT
ATOM      1  C   UNL     1      35.627   2.908  14.960  0.00  0.00    +0.000 A 
ATOM      2  N   UNL     1      34.692   3.059  15.884  0.00  0.00    +0.000 NA
ATOM      3  N   UNL     1      34.532   1.926  16.498  0.00  0.00    +0.000 NA
ATOM      4  C   UNL     1      35.397   0.966  15.968  0.00  0.00    +0.000 A 
ATOM      5  N   UNL     1      35.442  -0.331  16.433  0.00  0.00    +0.000 NA
ATOM      6  N   UNL     1      36.046   1.629  15.025  0.00  0.00    +0.000 N 
ENDROOT
BRANCH   5   7
ATOM      7  C   UNL     1      36.116  -1.488  16.182  0.00  0.00    +0.000 A 
ATOM      8  C   UNL     1      35.390  -2.544  15.576  0.00  0.00    +0.000 A 
ATOM      9  C   UNL     1      35.935  -3.736  15.275  0.00  0.00    +0.000 A 
ATOM     10  C   UNL     1      37.261  -3.965  15.561  0.00  0.00    +0.000 A 
ATOM     11  C   UNL     1      38.007  -2.974  16.148  0.00  0.00    +0.000 A 
ATOM     12  C   UNL     1      37.423  -1.779  16.438  0.00  0.00    +0.000 A 
ENDBRANCH   5   7
BRANCH   6  13
ATOM     13  C   UNL     1      37.064   1.149  14.145  0.00  0.00    +0.000 A 
ATOM     14  C   UNL     1      38.375   1.271  14.532  0.00  0.00    +0.000 A 
ATOM     15  C   UNL     1      39.376   0.799  13.721  0.00  0.00    +0.000 A 
ATOM     16  C   UNL     1      39.049   0.203  12.520  0.00  0.00    +0.000 A 
ATOM     17  C   UNL     1      37.734   0.081  12.136  0.00  0.00    +0.000 A 
ATOM     18  C   UNL     1      36.742   0.556  12.950  0.00  0.00    +0.000 A 
ENDBRANCH   6  13
BRANCH   1  19
ATOM     19  S   UNL     1      36.235   4.175  13.821  0.00  0.00    +0.000 S 
BRANCH  19  20
ATOM     20  C   UNL     1      36.233   5.747  14.683  0.00  0.00    +0.000 C 
BRANCH  20  21
ATOM     21  C   UNL     1      37.628   6.147  15.004  0.00  0.00    +0.000 C 
ATOM     22  O   UNL     1      38.490   6.218  14.089  0.00  0.00    +0.000 OA
BRANCH  21  28
ATOM     23  C   UNL     1      39.246   7.514  20.381  0.00  0.00    +0.000 C 
ATOM     24  C   UNL     1      38.829   7.155  18.991  0.00  0.00    +0.000 A 
ATOM     25  C   UNL     1      38.881   5.856  18.529  0.00  0.00    +0.000 A 
ATOM     26  C   UNL     1      38.499   5.505  17.242  0.00  0.00    +0.000 A 
ATOM     27  C   UNL     1      38.575   4.103  16.803  0.00  0.00    +0.000 C 
ATOM     28  C   UNL     1      38.043   6.469  16.370  0.00  0.00    +0.000 A 
ATOM     29  C   UNL     1      37.986   7.771  16.819  0.00  0.00    +0.000 A 
ATOM     30  C   UNL     1      37.490   8.799  15.861  0.00  0.00    +0.000 C 
ATOM     31  C   UNL     1      38.371   8.113  18.108  0.00  0.00    +0.000 A 
ENDBRANCH  21  28
ENDBRANCH  20  21
ENDBRANCH  19  20
ENDBRANCH   1  19
TORSDOF 6
ENDMDL
MODEL 6
REMARK VINA RESULT:      -7.5     26.143     28.596
REMARK  Name = 
REMARK  6 active torsions:
REMARK  status: ('A' for Active; 'I' for Inactive)
REMARK    1  A    between atoms: C_6  and  C_7
REMARK    2  A    between atoms: C_7  and  C_9
REMARK    3  A    between atoms: C_9  and  S_10
REMARK    4  A    between atoms: S_10  and  C_11
REMARK    5  A    between atoms: N_15  and  C_16
REMARK    6  A    between atoms: N_22  and  C_23
REMARK                            x       y       z     vdW  Elec       q    Type
REMARK                         _______ _______ _______ _____ _____    ______ ____
ROOT
ATOM      1  C   UNL     1      29.702  15.063  37.159  0.00  0.00    +0.000 A 
ATOM      2  N   UNL     1      30.644  14.706  36.301  0.00  0.00    +0.000 NA
ATOM      3  N   UNL     1      30.181  14.849  35.097  0.00  0.00    +0.000 NA
ATOM      4  C   UNL     1      28.869  15.326  35.140  0.00  0.00    +0.000 A 
ATOM      5  N   UNL     1      28.130  15.572  34.001  0.00  0.00    +0.000 NA
ATOM      6  N   UNL     1      28.629  15.438  36.435  0.00  0.00    +0.000 N 
ENDROOT
BRANCH   5   7
ATOM      7  C   UNL     1      26.888  16.016  33.660  0.00  0.00    +0.000 A 
ATOM      8  C   UNL     1      26.560  17.352  33.998  0.00  0.00    +0.000 A 
ATOM      9  C   UNL     1      25.370  17.913  33.719  0.00  0.00    +0.000 A 
ATOM     10  C   UNL     1      24.408  17.170  33.074  0.00  0.00    +0.000 A 
ATOM     11  C   UNL     1      24.676  15.871  32.725  0.00  0.00    +0.000 A 
ATOM     12  C   UNL     1      25.892  15.336  33.023  0.00  0.00    +0.000 A 
ENDBRANCH   5   7
BRANCH   6  13
ATOM     13  C   UNL     1      27.434  15.885  37.079  0.00  0.00    +0.000 A 
ATOM     14  C   UNL     1      27.396  17.163  37.577  0.00  0.00    +0.000 A 
ATOM     15  C   UNL     1      26.255  17.631  38.179  0.00  0.00    +0.000 A 
ATOM     16  C   UNL     1      25.154  16.804  38.278  0.00  0.00    +0.000 A 
ATOM     17  C   UNL     1      25.196  15.523  37.778  0.00  0.00    +0.000 A 
ATOM     18  C   UNL     1      26.337  15.064  37.179  0.00  0.00    +0.000 A 
ENDBRANCH   6  13
BRANCH   1  19
ATOM     19  S   UNL     1      29.824  15.055  38.963  0.00  0.00    +0.000 S 
BRANCH  19  20
ATOM     20  C   UNL     1      30.478  13.464  39.470  0.00  0.00    +0.000 C 
BRANCH  20  21
ATOM     21  C   UNL     1      29.895  13.073  40.780  0.00  0.00    +0.000 C 
ATOM     22  O   UNL     1      30.144  13.753  41.809  0.00  0.00    +0.000 OA
BRANCH  21  28
ATOM     23  C   UNL     1      26.537   8.402  41.333  0.00  0.00    +0.000 C 
ATOM     24  C   UNL     1      27.401   9.614  41.188  0.00  0.00    +0.000 A 
ATOM     25  C   UNL     1      26.865  10.870  40.993  0.00  0.00    +0.000 A 
ATOM     26  C   UNL     1      27.651  12.005  40.857  0.00  0.00    +0.000 A 
ATOM     27  C   UNL     1      27.025  13.320  40.651  0.00  0.00    +0.000 C 
ATOM     28  C   UNL     1      29.024  11.906  40.917  0.00  0.00    +0.000 A 
ATOM     29  C   UNL     1      29.573  10.656  41.112  0.00  0.00    +0.000 A 
ATOM     30  C   UNL     1      31.059  10.568  41.174  0.00  0.00    +0.000 C 
ATOM     31  C   UNL     1      28.778   9.526  41.247  0.00  0.00    +0.000 A 
ENDBRANCH  21  28
ENDBRANCH  20  21
ENDBRANCH  19  20
ENDBRANCH   1  19
TORSDOF 6
ENDMDL
MODEL 7
REMARK VINA RESULT:      -7.4      3.350      4.664
REMARK  Name = 
REMARK  6 active torsions:
REMARK  status: ('A' for Active; 'I' for Inactive)
REMARK    1  A    between atoms: C_6  and  C_7
REMARK    2  A    between atoms: C_7  and  C_9
REMARK    3  A    between atoms: C_9  and  S_10
REMARK    4  A    between atoms: S_10  and  C_11
REMARK    5  A    between atoms: N_15  and  C_16
REMARK    6  A    between atoms: N_22  and  C_23
REMARK                            x       y       z     vdW  Elec       q    Type
REMARK                         _______ _______ _______ _____ _____    ______ ____
ROOT
ATOM      1  C   UNL     1      35.896   1.616  15.691  0.00  0.00    +0.000 A 
ATOM      2  N   UNL     1      34.969   1.818  16.614  0.00  0.00    +0.000 NA
ATOM      3  N   UNL     1      34.860   0.742  17.330  0.00  0.00    +0.000 NA
ATOM      4  C   UNL     1      35.752  -0.232  16.875  0.00  0.00    +0.000 A 
ATOM      5  N   UNL     1      35.850  -1.479  17.456  0.00  0.00    +0.000 NA
ATOM      6  N   UNL     1      36.362   0.364  15.865  0.00  0.00    +0.000 N 
ENDROOT
BRANCH   5   7
ATOM      7  C   UNL     1      36.562  -2.630  17.299  0.00  0.00    +0.000 A 
ATOM      8  C   UNL     1      37.829  -2.701  17.929  0.00  0.00    +0.000 A 
ATOM      9  C   UNL     1      38.631  -3.778  17.853  0.00  0.00    +0.000 A 
ATOM     10  C   UNL     1      38.220  -4.878  17.135  0.00  0.00    +0.000 A 
ATOM     11  C   UNL     1      37.000  -4.859  16.507  0.00  0.00    +0.000 A 
ATOM     12  C   UNL     1      36.215  -3.752  16.605  0.00  0.00    +0.000 A 
ENDBRANCH   5   7
BRANCH   6  13
ATOM     13  C   UNL     1      37.384  -0.159  15.014  0.00  0.00    +0.000 A 
ATOM     14  C   UNL     1      37.013  -0.917  13.932  0.00  0.00    +0.000 A 
ATOM     15  C   UNL     1      37.968  -1.415  13.083  0.00  0.00    +0.000 A 
ATOM     16  C   UNL     1      39.299  -1.146  13.330  0.00  0.00    +0.000 A 
ATOM     17  C   UNL     1      39.668  -0.385  14.415  0.00  0.00    +0.000 A 
ATOM     18  C   UNL     1      38.709   0.107  15.258  0.00  0.00    +0.000 A 
ENDBRANCH   6  13
BRANCH   1  19
ATOM     19  S   UNL     1      36.441   2.794  14.431  0.00  0.00    +0.000 S 
BRANCH  19  20
ATOM     20  C   UNL     1      35.245   4.128  14.360  0.00  0.00    +0.000 C 
BRANCH  20  21
ATOM     21  C   UNL     1      35.885   5.349  13.806  0.00  0.00    +0.000 C 
ATOM     22  O   UNL     1      36.824   5.908  14.432  0.00  0.00    +0.000 OA
BRANCH  21  28
ATOM     23  C   UNL     1      34.265   7.622   8.745  0.00  0.00    +0.000 C 
ATOM     24  C   UNL     1      34.680   7.037  10.058  0.00  0.00    +0.000 A 
ATOM     25  C   UNL     1      33.995   7.309  11.224  0.00  0.00    +0.000 A 
ATOM     26  C   UNL     1      34.367   6.776  12.449  0.00  0.00    +0.000 A 
ATOM     27  C   UNL     1      33.599   7.100  13.662  0.00  0.00    +0.000 C 
ATOM     28  C   UNL     1      35.456   5.936  12.537  0.00  0.00    +0.000 A 
ATOM     29  C   UNL     1      36.149   5.657  11.378  0.00  0.00    +0.000 A 
ATOM     30  C   UNL     1      37.324   4.747  11.492  0.00  0.00    +0.000 C 
ATOM     31  C   UNL     1      35.771   6.196  10.156  0.00  0.00    +0.000 A 
ENDBRANCH  21  28
ENDBRANCH  20  21
ENDBRANCH  19  20
ENDBRANCH   1  19
TORSDOF 6
ENDMDL
MODEL 8
REMARK VINA RESULT:      -7.4      3.134      5.211
REMARK  Name = 
REMARK  6 active torsions:
REMARK  status: ('A' for Active; 'I' for Inactive)
REMARK    1  A    between atoms: C_6  and  C_7
REMARK    2  A    between atoms: C_7  and  C_9
REMARK    3  A    between atoms: C_9  and  S_10
REMARK    4  A    between atoms: S_10  and  C_11
REMARK    5  A    between atoms: N_15  and  C_16
REMARK    6  A    between atoms: N_22  and  C_23
REMARK                            x       y       z     vdW  Elec       q    Type
REMARK                         _______ _______ _______ _____ _____    ______ ____
ROOT
ATOM      1  C   UNL     1      37.201   1.311  15.287  0.00  0.00    +0.000 A 
ATOM      2  N   UNL     1      36.175   1.886  15.893  0.00  0.00    +0.000 NA
ATOM      3  N   UNL     1      35.373   0.958  16.317  0.00  0.00    +0.000 NA
ATOM      4  C   UNL     1      35.878  -0.302  15.986  0.00  0.00    +0.000 A 
ATOM      5  N   UNL     1      35.228  -1.472  16.317  0.00  0.00    +0.000 NA
ATOM      6  N   UNL     1      37.004  -0.020  15.354  0.00  0.00    +0.000 N 
ENDROOT
BRANCH   5   7
ATOM      7  C   UNL     1      35.400  -2.816  16.173  0.00  0.00    +0.000 A 
ATOM      8  C   UNL     1      34.413  -3.521  15.439  0.00  0.00    +0.000 A 
ATOM      9  C   UNL     1      34.462  -4.848  15.223  0.00  0.00    +0.000 A 
ATOM     10  C   UNL     1      35.513  -5.577  15.730  0.00  0.00    +0.000 A 
ATOM     11  C   UNL     1      36.495  -4.940  16.447  0.00  0.00    +0.000 A 
ATOM     12  C   UNL     1      36.413  -3.596  16.646  0.00  0.00    +0.000 A 
ENDBRANCH   5   7
BRANCH   6  13
ATOM     13  C   UNL     1      37.950  -0.928  14.783  0.00  0.00    +0.000 A 
ATOM     14  C   UNL     1      39.055  -1.271  15.521  0.00  0.00    +0.000 A 
ATOM     15  C   UNL     1      39.970  -2.158  15.013  0.00  0.00    +0.000 A 
ATOM     16  C   UNL     1      39.766  -2.696  13.758  0.00  0.00    +0.000 A 
ATOM     17  C   UNL     1      38.657  -2.349  13.022  0.00  0.00    +0.000 A 
ATOM     18  C   UNL     1      37.749  -1.464  13.536  0.00  0.00    +0.000 A 
ENDBRANCH   6  13
BRANCH   1  19
ATOM     19  S   UNL     1      38.607   2.146  14.514  0.00  0.00    +0.000 S 
BRANCH  19  20
ATOM     20  C   UNL     1      38.335   2.171  12.742  0.00  0.00    +0.000 C 
BRANCH  20  21
ATOM     21  C   UNL     1      39.640   2.155  12.032  0.00  0.00    +0.000 C 
ATOM     22  O   UNL     1      40.286   3.224  11.874  0.00  0.00    +0.000 OA
BRANCH  21  28
ATOM     23  C   UNL     1      41.833  -2.729   9.854  0.00  0.00    +0.000 C 
ATOM     24  C   UNL     1      41.269  -1.466  10.423  0.00  0.00    +0.000 A 
ATOM     25  C   UNL     1      41.747  -0.920  11.596  0.00  0.00    +0.000 A 
ATOM     26  C   UNL     1      41.235   0.251  12.137  0.00  0.00    +0.000 A 
ATOM     27  C   UNL     1      41.784   0.788  13.392  0.00  0.00    +0.000 C 
ATOM     28  C   UNL     1      40.212   0.917  11.500  0.00  0.00    +0.000 A 
ATOM     29  C   UNL     1      39.725   0.382  10.326  0.00  0.00    +0.000 A 
ATOM     30  C   UNL     1      38.618   1.116   9.652  0.00  0.00    +0.000 C 
ATOM     31  C   UNL     1      40.243  -0.790   9.792  0.00  0.00    +0.000 A 
ENDBRANCH  21  28
ENDBRANCH  20  21
ENDBRANCH  19  20
ENDBRANCH   1  19
TORSDOF 6
ENDMDL
MODEL 9
REMARK VINA RESULT:      -7.4      2.769      4.395
REMARK  Name = 
REMARK  6 active torsions:
REMARK  status: ('A' for Active; 'I' for Inactive)
REMARK    1  A    between atoms: C_6  and  C_7
REMARK    2  A    between atoms: C_7  and  C_9
REMARK    3  A    between atoms: C_9  and  S_10
REMARK    4  A    between atoms: S_10  and  C_11
REMARK    5  A    between atoms: N_15  and  C_16
REMARK    6  A    between atoms: N_22  and  C_23
REMARK                            x       y       z     vdW  Elec       q    Type
REMARK                         _______ _______ _______ _____ _____    ______ ____
ROOT
ATOM      1  C   UNL     1      35.556   1.253  15.665  0.00  0.00    +0.000 A 
ATOM      2  N   UNL     1      34.723   1.598  16.633  0.00  0.00    +0.000 NA
ATOM      3  N   UNL     1      34.854   0.754  17.610  0.00  0.00    +0.000 NA
ATOM      4  C   UNL     1      35.820  -0.204  17.292  0.00  0.00    +0.000 A 
ATOM      5  N   UNL     1      36.165  -1.225  18.152  0.00  0.00    +0.000 NA
ATOM      6  N   UNL     1      36.216   0.155  16.083  0.00  0.00    +0.000 N 
ENDROOT
BRANCH   5   7
ATOM      7  C   UNL     1      37.014  -2.290  18.192  0.00  0.00    +0.000 A 
ATOM      8  C   UNL     1      36.873  -3.270  17.177  0.00  0.00    +0.000 A 
ATOM      9  C   UNL     1      37.646  -4.368  17.101  0.00  0.00    +0.000 A 
ATOM     10  C   UNL     1      38.627  -4.571  18.044  0.00  0.00    +0.000 A 
ATOM     11  C   UNL     1      38.804  -3.651  19.046  0.00  0.00    +0.000 A 
ATOM     12  C   UNL     1      38.004  -2.550  19.092  0.00  0.00    +0.000 A 
ENDBRANCH   5   7
BRANCH   6  13
ATOM     13  C   UNL     1      37.199  -0.467  15.252  0.00  0.00    +0.000 A 
ATOM     14  C   UNL     1      38.524  -0.214  15.503  0.00  0.00    +0.000 A 
ATOM     15  C   UNL     1      39.493  -0.814  14.740  0.00  0.00    +0.000 A 
ATOM     16  C   UNL     1      39.121  -1.668  13.722  0.00  0.00    +0.000 A 
ATOM     17  C   UNL     1      37.791  -1.919  13.473  0.00  0.00    +0.000 A 
ATOM     18  C   UNL     1      36.830  -1.317  14.239  0.00  0.00    +0.000 A 
ENDBRANCH   6  13
BRANCH   1  19
ATOM     19  S   UNL     1      35.775   2.092  14.077  0.00  0.00    +0.000 S 
BRANCH  19  20
ATOM     20  C   UNL     1      37.358   2.932  14.105  0.00  0.00    +0.000 C 
BRANCH  20  21
ATOM     21  C   UNL     1      37.882   3.067  12.720  0.00  0.00    +0.000 C 
ATOM     22  O   UNL     1      37.534   4.044  12.007  0.00  0.00    +0.000 OA
BRANCH  21  28
ATOM     23  C   UNL     1      41.599  -0.761  10.500  0.00  0.00    +0.000 C 
ATOM     24  C   UNL     1      40.633   0.227  11.071  0.00  0.00    +0.000 A 
ATOM     25  C   UNL     1      39.287   0.184  10.771  0.00  0.00    +0.000 A 
ATOM     26  C   UNL     1      38.377   1.093  11.292  0.00  0.00    +0.000 A 
ATOM     27  C   UNL     1      36.952   1.000  10.938  0.00  0.00    +0.000 C 
ATOM     28  C   UNL     1      38.803   2.086  12.146  0.00  0.00    +0.000 A 
ATOM     29  C   UNL     1      40.146   2.139  12.454  0.00  0.00    +0.000 A 
ATOM     30  C   UNL     1      40.589   3.220  13.379  0.00  0.00    +0.000 C 
ATOM     31  C   UNL     1      41.050   1.226  11.928  0.00  0.00    +0.000 A 
ENDBRANCH  21  28
ENDBRANCH  20  21
ENDBRANCH  19  20
ENDBRANCH   1  19
TORSDOF 6
ENDMDL
MODEL 10
REMARK VINA RESULT:      -7.2     23.823     26.295
REMARK  Name = 
REMARK  6 active torsions:
REMARK  status: ('A' for Active; 'I' for Inactive)
REMARK    1  A    between atoms: C_6  and  C_7
REMARK    2  A    between atoms: C_7  and  C_9
REMARK    3  A    between atoms: C_9  and  S_10
REMARK    4  A    between atoms: S_10  and  C_11
REMARK    5  A    between atoms: N_15  and  C_16
REMARK    6  A    between atoms: N_22  and  C_23
REMARK                            x       y       z     vdW  Elec       q    Type
REMARK                         _______ _______ _______ _____ _____    ______ ____
ROOT
ATOM      1  C   UNL     1      31.076  14.812  35.332  0.00  0.00    +0.000 A 
ATOM      2  N   UNL     1      31.609  15.059  34.147  0.00  0.00    +0.000 NA
ATOM      3  N   UNL     1      32.815  14.581  34.129  0.00  0.00    +0.000 NA
ATOM      4  C   UNL     1      33.114  13.983  35.355  0.00  0.00    +0.000 A 
ATOM      5  N   UNL     1      34.331  13.390  35.616  0.00  0.00    +0.000 NA
ATOM      6  N   UNL     1      32.005  14.156  36.055  0.00  0.00    +0.000 N 
ENDROOT
BRANCH   5   7
ATOM      7  C   UNL     1      34.959  12.741  36.636  0.00  0.00    +0.000 A 
ATOM      8  C   UNL     1      35.243  11.364  36.452  0.00  0.00    +0.000 A 
ATOM      9  C   UNL     1      35.857  10.608  37.379  0.00  0.00    +0.000 A 
ATOM     10  C   UNL     1      36.238  11.178  38.573  0.00  0.00    +0.000 A 
ATOM     11  C   UNL     1      35.986  12.507  38.799  0.00  0.00    +0.000 A 
ATOM     12  C   UNL     1      35.362  13.243  37.838  0.00  0.00    +0.000 A 
ENDBRANCH   5   7
BRANCH   6  13
ATOM     13  C   UNL     1      31.731  13.744  37.396  0.00  0.00    +0.000 A 
ATOM     14  C   UNL     1      31.504  12.412  37.638  0.00  0.00    +0.000 A 
ATOM     15  C   UNL     1      31.261  11.980  38.918  0.00  0.00    +0.000 A 
ATOM     16  C   UNL     1      31.248  12.896  39.950  0.00  0.00    +0.000 A 
ATOM     17  C   UNL     1      31.477  14.230  39.703  0.00  0.00    +0.000 A 
ATOM     18  C   UNL     1      31.718  14.653  38.425  0.00  0.00    +0.000 A 
ENDBRANCH   6  13
BRANCH   1  19
ATOM     19  S   UNL     1      29.415  15.265  35.887  0.00  0.00    +0.000 S 
BRANCH  19  20
ATOM     20  C   UNL     1      28.356  15.373  34.444  0.00  0.00    +0.000 C 
BRANCH  20  21
ATOM     21  C   UNL     1      26.943  15.546  34.869  0.00  0.00    +0.000 C 
ATOM     22  O   UNL     1      26.498  14.904  35.856  0.00  0.00    +0.000 OA
BRANCH  21  28
ATOM     23  C   UNL     1      23.376  19.200  32.162  0.00  0.00    +0.000 C 
ATOM     24  C   UNL     1      24.297  18.249  32.859  0.00  0.00    +0.000 A 
ATOM     25  C   UNL     1      24.410  16.930  32.471  0.00  0.00    +0.000 A 
ATOM     26  C   UNL     1      25.259  16.036  33.106  0.00  0.00    +0.000 A 
ATOM     27  C   UNL     1      25.340  14.640  32.649  0.00  0.00    +0.000 C 
ATOM     28  C   UNL     1      26.033  16.452  34.167  0.00  0.00    +0.000 A 
ATOM     29  C   UNL     1      25.929  17.768  34.565  0.00  0.00    +0.000 A 
ATOM     30  C   UNL     1      26.772  18.199  35.715  0.00  0.00    +0.000 C 
ATOM     31  C   UNL     1      25.076  18.656  33.924  0.00  0.00    +0.000 A 
ENDBRANCH  21  28
ENDBRANCH  20  21
ENDBRANCH  19  20
ENDBRANCH   1  19
TORSDOF 6
ENDMDL
