MODEL 1
REMARK VINA RESULT:      -6.0      0.000      0.000
REMARK  Name = 
REMARK  3 active torsions:
REMARK  status: ('A' for Active; 'I' for Inactive)
REMARK    1  A    between atoms: N_4  and  C_5
REMARK    2  A    between atoms: C_8  and  C_9
REMARK    3  A    between atoms: C_17  and  C_18
REMARK                            x       y       z     vdW  Elec       q    Type
REMARK                         _______ _______ _______ _____ _____    ______ ____
ROOT
ATOM      1  C   UNL     1      27.505  25.057  22.443  0.00  0.00    +0.000 A 
ATOM      2  S   UNL     1      26.407  23.811  22.079  0.00  0.00    +0.000 S 
ATOM      3  C   UNL     1      26.263  23.124  23.621  0.00  0.00    +0.000 A 
ATOM      4  C   UNL     1      27.089  23.898  24.401  0.00  0.00    +0.000 A 
ATOM      5  C   UNL     1      27.739  24.908  23.787  0.00  0.00    +0.000 A 
ENDROOT
BRANCH   4   6
ATOM      6  C   UNL     1      27.146  23.563  25.853  0.00  0.00    +0.000 A 
ATOM      7  C   UNL     1      28.020  22.559  26.198  0.00  0.00    +0.000 A 
ATOM      8  C   UNL     1      28.169  22.110  27.491  0.00  0.00    +0.000 A 
ATOM      9  C   UNL     1      27.403  22.702  28.460  0.00  0.00    +0.000 A 
ATOM     10  C   UNL     1      27.492  22.287  29.886  0.00  0.00    +0.000 C 
ATOM     11  C   UNL     1      26.520  23.713  28.120  0.00  0.00    +0.000 A 
ATOM     12  C   UNL     1      25.704  24.336  29.187  0.00  0.00    +0.000 C 
ATOM     13  C   UNL     1      26.386  24.152  26.804  0.00  0.00    +0.000 A 
ENDBRANCH   4   6
BRANCH   1  17
ATOM     14  C   UNL     1      29.857  26.605  19.828  0.00  0.00    +0.000 C 
ATOM     15  C   UNL     1      29.201  25.674  20.782  0.00  0.00    +0.000 C 
ATOM     16  O   UNL     1      29.671  24.531  20.910  0.00  0.00    +0.000 OA
ATOM     17  N   UNL     1      28.060  26.046  21.545  0.00  0.00    +0.000 NA
ENDBRANCH   1  17
BRANCH   5  18
ATOM     18  C   UNL     1      28.672  25.807  24.494  0.00  0.00    +0.000 C 
ATOM     19  N   UNL     1      28.328  27.079  24.996  0.00  0.00    +0.000 NA
ATOM     20  O   UNL     1      29.850  25.432  24.673  0.00  0.00    +0.000 OA
ENDBRANCH   5  18
TORSDOF 3
ENDMDL
MODEL 2
REMARK VINA RESULT:      -5.6      2.998      6.619
REMARK  Name = 
REMARK  3 active torsions:
REMARK  status: ('A' for Active; 'I' for Inactive)
REMARK    1  A    between atoms: N_4  and  C_5
REMARK    2  A    between atoms: C_8  and  C_9
REMARK    3  A    between atoms: C_17  and  C_18
REMARK                            x       y       z     vdW  Elec       q    Type
REMARK                         _______ _______ _______ _____ _____    ______ ____
ROOT
ATOM      1  C   UNL     1      28.583  22.274  27.154  0.00  0.00    +0.000 A 
ATOM      2  S   UNL     1      30.274  22.111  27.105  0.00  0.00    +0.000 S 
ATOM      3  C   UNL     1      30.593  23.051  25.731  0.00  0.00    +0.000 A 
ATOM      4  C   UNL     1      29.348  23.482  25.336  0.00  0.00    +0.000 A 
ATOM      5  C   UNL     1      28.297  23.076  26.077  0.00  0.00    +0.000 A 
ENDROOT
BRANCH   4   6
ATOM      6  C   UNL     1      29.299  24.386  24.151  0.00  0.00    +0.000 A 
ATOM      7  C   UNL     1      29.279  23.761  22.926  0.00  0.00    +0.000 A 
ATOM      8  C   UNL     1      29.264  24.452  21.735  0.00  0.00    +0.000 A 
ATOM      9  C   UNL     1      29.269  25.821  21.797  0.00  0.00    +0.000 A 
ATOM     10  C   UNL     1      29.253  26.655  20.566  0.00  0.00    +0.000 C 
ATOM     11  C   UNL     1      29.289  26.457  23.026  0.00  0.00    +0.000 A 
ATOM     12  C   UNL     1      29.294  27.937  23.063  0.00  0.00    +0.000 C 
ATOM     13  C   UNL     1      29.304  25.737  24.219  0.00  0.00    +0.000 A 
ENDBRANCH   4   6
BRANCH   1  17
ATOM     14  C   UNL     1      26.501  21.938  30.367  0.00  0.00    +0.000 C 
ATOM     15  C   UNL     1      27.427  22.426  29.312  0.00  0.00    +0.000 C 
ATOM     16  O   UNL     1      28.013  23.507  29.494  0.00  0.00    +0.000 OA
ATOM     17  N   UNL     1      27.660  21.703  28.111  0.00  0.00    +0.000 NA
ENDBRANCH   1  17
BRANCH   5  18
ATOM     18  C   UNL     1      26.904  23.444  25.760  0.00  0.00    +0.000 C 
ATOM     19  N   UNL     1      26.244  24.582  26.267  0.00  0.00    +0.000 NA
ATOM     20  O   UNL     1      26.249  22.711  24.988  0.00  0.00    +0.000 OA
ENDBRANCH   5  18
TORSDOF 3
ENDMDL
MODEL 3
REMARK VINA RESULT:      -5.5      1.033      1.737
REMARK  Name = 
REMARK  3 active torsions:
REMARK  status: ('A' for Active; 'I' for Inactive)
REMARK    1  A    between atoms: N_4  and  C_5
REMARK    2  A    between atoms: C_8  and  C_9
REMARK    3  A    between atoms: C_17  and  C_18
REMARK                            x       y       z     vdW  Elec       q    Type
REMARK                         _______ _______ _______ _____ _____    ______ ____
ROOT
ATOM      1  C   UNL     1      27.171  24.870  22.671  0.00  0.00    +0.000 A 
ATOM      2  S   UNL     1      26.184  23.511  22.411  0.00  0.00    +0.000 S 
ATOM      3  C   UNL     1      25.925  23.058  24.023  0.00  0.00    +0.000 A 
ATOM      4  C   UNL     1      26.627  23.996  24.742  0.00  0.00    +0.000 A 
ATOM      5  C   UNL     1      27.280  24.943  24.037  0.00  0.00    +0.000 A 
ENDROOT
BRANCH   4   6
ATOM      6  C   UNL     1      26.558  23.890  26.228  0.00  0.00    +0.000 A 
ATOM      7  C   UNL     1      25.541  24.594  26.827  0.00  0.00    +0.000 A 
ATOM      8  C   UNL     1      25.357  24.626  28.192  0.00  0.00    +0.000 A 
ATOM      9  C   UNL     1      26.237  23.917  28.966  0.00  0.00    +0.000 A 
ATOM     10  C   UNL     1      26.122  23.888  30.449  0.00  0.00    +0.000 C 
ATOM     11  C   UNL     1      27.264  23.206  28.370  0.00  0.00    +0.000 A 
ATOM     12  C   UNL     1      28.201  22.448  29.230  0.00  0.00    +0.000 C 
ATOM     13  C   UNL     1      27.431  23.188  26.986  0.00  0.00    +0.000 A 
ENDBRANCH   4   6
BRANCH   1  17
ATOM     14  C   UNL     1      29.676  26.154  20.053  0.00  0.00    +0.000 C 
ATOM     15  C   UNL     1      28.980  25.336  21.081  0.00  0.00    +0.000 C 
ATOM     16  O   UNL     1      29.490  24.255  21.420  0.00  0.00    +0.000 OA
ATOM     17  N   UNL     1      27.759  25.747  21.681  0.00  0.00    +0.000 NA
ENDBRANCH   1  17
BRANCH   5  18
ATOM     18  C   UNL     1      28.088  26.001  24.674  0.00  0.00    +0.000 C 
ATOM     19  N   UNL     1      29.465  25.891  24.957  0.00  0.00    +0.000 NA
ATOM     20  O   UNL     1      27.533  27.075  24.990  0.00  0.00    +0.000 OA
ENDBRANCH   5  18
TORSDOF 3
ENDMDL
MODEL 4
REMARK VINA RESULT:      -5.5      3.697      6.854
REMARK  Name = 
REMARK  3 active torsions:
REMARK  status: ('A' for Active; 'I' for Inactive)
REMARK    1  A    between atoms: N_4  and  C_5
REMARK    2  A    between atoms: C_8  and  C_9
REMARK    3  A    between atoms: C_17  and  C_18
REMARK                            x       y       z     vdW  Elec       q    Type
REMARK                         _______ _______ _______ _____ _____    ______ ____
ROOT
ATOM      1  C   UNL     1      26.335  23.650  29.921  0.00  0.00    +0.000 A 
ATOM      2  S   UNL     1      27.167  22.174  30.063  0.00  0.00    +0.000 S 
ATOM      3  C   UNL     1      27.580  21.943  28.437  0.00  0.00    +0.000 A 
ATOM      4  C   UNL     1      27.051  23.045  27.807  0.00  0.00    +0.000 A 
ATOM      5  C   UNL     1      26.400  23.937  28.580  0.00  0.00    +0.000 A 
ENDROOT
BRANCH   4   6
ATOM      6  C   UNL     1      27.291  23.156  26.339  0.00  0.00    +0.000 A 
ATOM      7  C   UNL     1      28.595  23.383  25.965  0.00  0.00    +0.000 A 
ATOM      8  C   UNL     1      28.979  23.540  24.652  0.00  0.00    +0.000 A 
ATOM      9  C   UNL     1      28.004  23.463  23.693  0.00  0.00    +0.000 A 
ATOM     10  C   UNL     1      28.319  23.619  22.248  0.00  0.00    +0.000 C 
ATOM     11  C   UNL     1      26.690  23.235  24.062  0.00  0.00    +0.000 A 
ATOM     12  C   UNL     1      25.655  23.156  23.005  0.00  0.00    +0.000 C 
ATOM     13  C   UNL     1      26.323  23.079  25.397  0.00  0.00    +0.000 A 
ENDBRANCH   4   6
BRANCH   1  17
ATOM     14  C   UNL     1      25.997  26.160  32.811  0.00  0.00    +0.000 C 
ATOM     15  C   UNL     1      26.530  25.315  31.712  0.00  0.00    +0.000 C 
ATOM     16  O   UNL     1      27.739  25.397  31.436  0.00  0.00    +0.000 OA
ATOM     17  N   UNL     1      25.708  24.424  30.970  0.00  0.00    +0.000 NA
ENDBRANCH   1  17
BRANCH   5  18
ATOM     18  C   UNL     1      25.766  25.155  28.038  0.00  0.00    +0.000 C 
ATOM     19  N   UNL     1      24.450  25.213  27.536  0.00  0.00    +0.000 NA
ATOM     20  O   UNL     1      26.424  26.217  28.017  0.00  0.00    +0.000 OA
ENDBRANCH   5  18
TORSDOF 3
ENDMDL
MODEL 5
REMARK VINA RESULT:      -5.4     20.027     22.875
REMARK  Name = 
REMARK  3 active torsions:
REMARK  status: ('A' for Active; 'I' for Inactive)
REMARK    1  A    between atoms: N_4  and  C_5
REMARK    2  A    between atoms: C_8  and  C_9
REMARK    3  A    between atoms: C_17  and  C_18
REMARK                            x       y       z     vdW  Elec       q    Type
REMARK                         _______ _______ _______ _____ _____    ______ ____
ROOT
ATOM      1  C   UNL     1      20.487  10.356  37.616  0.00  0.00    +0.000 A 
ATOM      2  S   UNL     1      19.327   9.974  36.433  0.00  0.00    +0.000 S 
ATOM      3  C   UNL     1      18.197   9.181  37.414  0.00  0.00    +0.000 A 
ATOM      4  C   UNL     1      18.759   9.234  38.667  0.00  0.00    +0.000 A 
ATOM      5  C   UNL     1      19.956   9.847  38.775  0.00  0.00    +0.000 A 
ENDROOT
BRANCH   4   6
ATOM      6  C   UNL     1      17.965   8.644  39.783  0.00  0.00    +0.000 A 
ATOM      7  C   UNL     1      17.070   9.493  40.390  0.00  0.00    +0.000 A 
ATOM      8  C   UNL     1      16.283   9.113  41.454  0.00  0.00    +0.000 A 
ATOM      9  C   UNL     1      16.414   7.829  41.912  0.00  0.00    +0.000 A 
ATOM     10  C   UNL     1      15.608   7.323  43.055  0.00  0.00    +0.000 C 
ATOM     11  C   UNL     1      17.313   6.968  41.307  0.00  0.00    +0.000 A 
ATOM     12  C   UNL     1      17.435   5.585  41.821  0.00  0.00    +0.000 C 
ATOM     13  C   UNL     1      18.100   7.374  40.230  0.00  0.00    +0.000 A 
ENDBRANCH   4   6
BRANCH   1  17
ATOM     14  C   UNL     1      24.146  10.961  36.608  0.00  0.00    +0.000 C 
ATOM     15  C   UNL     1      22.813  10.346  36.838  0.00  0.00    +0.000 C 
ATOM     16  O   UNL     1      22.638   9.167  36.487  0.00  0.00    +0.000 OA
ATOM     17  N   UNL     1      21.740  11.057  37.441  0.00  0.00    +0.000 NA
ENDBRANCH   1  17
BRANCH   5  18
ATOM     18  C   UNL     1      20.685   9.962  40.052  0.00  0.00    +0.000 C 
ATOM     19  N   UNL     1      21.588   8.997  40.545  0.00  0.00    +0.000 NA
ATOM     20  O   UNL     1      20.505  10.977  40.759  0.00  0.00    +0.000 OA
ENDBRANCH   5  18
TORSDOF 3
ENDMDL
MODEL 6
REMARK VINA RESULT:      -5.3     14.736     16.288
REMARK  Name = 
REMARK  3 active torsions:
REMARK  status: ('A' for Active; 'I' for Inactive)
REMARK    1  A    between atoms: N_4  and  C_5
REMARK    2  A    between atoms: C_8  and  C_9
REMARK    3  A    between atoms: C_17  and  C_18
REMARK                            x       y       z     vdW  Elec       q    Type
REMARK                         _______ _______ _______ _____ _____    ______ ____
ROOT
ATOM      1  C   UNL     1      14.125  24.700  22.103  0.00  0.00    +0.000 A 
ATOM      2  S   UNL     1      12.877  25.393  23.026  0.00  0.00    +0.000 S 
ATOM      3  C   UNL     1      11.602  24.385  22.548  0.00  0.00    +0.000 A 
ATOM      4  C   UNL     1      12.190  23.512  21.664  0.00  0.00    +0.000 A 
ATOM      5  C   UNL     1      13.508  23.676  21.429  0.00  0.00    +0.000 A 
ENDROOT
BRANCH   4   6
ATOM      6  C   UNL     1      11.315  22.450  21.089  0.00  0.00    +0.000 A 
ATOM      7  C   UNL     1      11.615  21.163  21.468  0.00  0.00    +0.000 A 
ATOM      8  C   UNL     1      10.922  20.067  21.003  0.00  0.00    +0.000 A 
ATOM      9  C   UNL     1       9.895  20.292  20.126  0.00  0.00    +0.000 A 
ATOM     10  C   UNL     1       9.088  19.174  19.568  0.00  0.00    +0.000 C 
ATOM     11  C   UNL     1       9.588  21.585  19.739  0.00  0.00    +0.000 A 
ATOM     12  C   UNL     1       8.472  21.800  18.789  0.00  0.00    +0.000 C 
ATOM     13  C   UNL     1      10.302  22.680  20.222  0.00  0.00    +0.000 A 
ENDBRANCH   4   6
BRANCH   1  17
ATOM     14  C   UNL     1      17.197  26.910  21.430  0.00  0.00    +0.000 C 
ATOM     15  C   UNL     1      15.808  26.394  21.539  0.00  0.00    +0.000 C 
ATOM     16  O   UNL     1      14.874  27.129  21.174  0.00  0.00    +0.000 OA
ATOM     17  N   UNL     1      15.515  25.097  22.043  0.00  0.00    +0.000 NA
ENDBRANCH   1  17
BRANCH   5  18
ATOM     18  C   UNL     1      14.266  22.827  20.490  0.00  0.00    +0.000 C 
ATOM     19  N   UNL     1      14.053  22.791  19.096  0.00  0.00    +0.000 NA
ATOM     20  O   UNL     1      15.163  22.083  20.941  0.00  0.00    +0.000 OA
ENDBRANCH   5  18
TORSDOF 3
ENDMDL
MODEL 7
REMARK VINA RESULT:      -5.3      2.034      2.789
REMARK  Name = 
REMARK  3 active torsions:
REMARK  status: ('A' for Active; 'I' for Inactive)
REMARK    1  A    between atoms: N_4  and  C_5
REMARK    2  A    between atoms: C_8  and  C_9
REMARK    3  A    between atoms: C_17  and  C_18
REMARK                            x       y       z     vdW  Elec       q    Type
REMARK                         _______ _______ _______ _____ _____    ______ ____
ROOT
ATOM      1  C   UNL     1      28.197  24.748  23.642  0.00  0.00    +0.000 A 
ATOM      2  S   UNL     1      26.985  23.562  23.753  0.00  0.00    +0.000 S 
ATOM      3  C   UNL     1      27.417  22.878  25.241  0.00  0.00    +0.000 A 
ATOM      4  C   UNL     1      28.518  23.605  25.627  0.00  0.00    +0.000 A 
ATOM      5  C   UNL     1      28.928  24.582  24.793  0.00  0.00    +0.000 A 
ENDROOT
BRANCH   4   6
ATOM      6  C   UNL     1      29.117  23.262  26.949  0.00  0.00    +0.000 A 
ATOM      7  C   UNL     1      28.418  23.700  28.050  0.00  0.00    +0.000 A 
ATOM      8  C   UNL     1      28.851  23.493  29.341  0.00  0.00    +0.000 A 
ATOM      9  C   UNL     1      30.031  22.818  29.512  0.00  0.00    +0.000 A 
ATOM     10  C   UNL     1      30.582  22.545  30.867  0.00  0.00    +0.000 C 
ATOM     11  C   UNL     1      30.740  22.375  28.409  0.00  0.00    +0.000 A 
ATOM     12  C   UNL     1      32.012  21.649  28.623  0.00  0.00    +0.000 C 
ATOM     13  C   UNL     1      30.283  22.596  27.111  0.00  0.00    +0.000 A 
ENDBRANCH   4   6
BRANCH   1  17
ATOM     14  C   UNL     1      29.439  26.188  20.302  0.00  0.00    +0.000 C 
ATOM     15  C   UNL     1      29.158  25.288  21.451  0.00  0.00    +0.000 C 
ATOM     16  O   UNL     1      29.596  24.126  21.412  0.00  0.00    +0.000 OA
ATOM     17  N   UNL     1      28.409  25.711  22.583  0.00  0.00    +0.000 NA
ENDBRANCH   1  17
BRANCH   5  18
ATOM     18  C   UNL     1      30.104  25.429  25.068  0.00  0.00    +0.000 C 
ATOM     19  N   UNL     1      31.414  25.141  24.633  0.00  0.00    +0.000 NA
ATOM     20  O   UNL     1      29.949  26.478  25.729  0.00  0.00    +0.000 OA
ENDBRANCH   5  18
TORSDOF 3
ENDMDL
MODEL 8
REMARK VINA RESULT:      -5.3     19.754     21.109
REMARK  Name = 
REMARK  3 active torsions:
REMARK  status: ('A' for Active; 'I' for Inactive)
REMARK    1  A    between atoms: N_4  and  C_5
REMARK    2  A    between atoms: C_8  and  C_9
REMARK    3  A    between atoms: C_17  and  C_18
REMARK                            x       y       z     vdW  Elec       q    Type
REMARK                         _______ _______ _______ _____ _____    ______ ____
ROOT
ATOM      1  C   UNL     1      28.649   7.381  15.153  0.00  0.00    +0.000 A 
ATOM      2  S   UNL     1      29.522   7.307  16.610  0.00  0.00    +0.000 S 
ATOM      3  C   UNL     1      28.539   6.216  17.455  0.00  0.00    +0.000 A 
ATOM      4  C   UNL     1      27.533   5.926  16.563  0.00  0.00    +0.000 A 
ATOM      5  C   UNL     1      27.588   6.535  15.360  0.00  0.00    +0.000 A 
ENDROOT
BRANCH   4   6
ATOM      6  C   UNL     1      26.510   4.936  17.007  0.00  0.00    +0.000 A 
ATOM      7  C   UNL     1      25.401   5.465  17.624  0.00  0.00    +0.000 A 
ATOM      8  C   UNL     1      24.379   4.685  18.120  0.00  0.00    +0.000 A 
ATOM      9  C   UNL     1      24.494   3.328  17.981  0.00  0.00    +0.000 A 
ATOM     10  C   UNL     1      23.443   2.402  18.483  0.00  0.00    +0.000 C 
ATOM     11  C   UNL     1      25.607   2.788  17.362  0.00  0.00    +0.000 A 
ATOM     12  C   UNL     1      25.706   1.317  17.225  0.00  0.00    +0.000 C 
ATOM     13  C   UNL     1      26.630   3.596  16.867  0.00  0.00    +0.000 A 
ENDBRANCH   4   6
BRANCH   1  17
ATOM     14  C   UNL     1      30.152   8.243  11.723  0.00  0.00    +0.000 C 
ATOM     15  C   UNL     1      29.772   7.546  12.979  0.00  0.00    +0.000 C 
ATOM     16  O   UNL     1      30.187   6.389  13.161  0.00  0.00    +0.000 OA
ATOM     17  N   UNL     1      28.954   8.155  13.969  0.00  0.00    +0.000 NA
ENDBRANCH   1  17
BRANCH   5  18
ATOM     18  C   UNL     1      26.568   6.334  14.314  0.00  0.00    +0.000 C 
ATOM     19  N   UNL     1      26.511   5.214  13.459  0.00  0.00    +0.000 NA
ATOM     20  O   UNL     1      25.683   7.203  14.161  0.00  0.00    +0.000 OA
ENDBRANCH   5  18
TORSDOF 3
ENDMDL
MODEL 9
REMARK VINA RESULT:      -5.2     34.272     35.897
REMARK  Name = 
REMARK  3 active torsions:
REMARK  status: ('A' for Active; 'I' for Inactive)
REMARK    1  A    between atoms: N_4  and  C_5
REMARK    2  A    between atoms: C_8  and  C_9
REMARK    3  A    between atoms: C_17  and  C_18
REMARK                            x       y       z     vdW  Elec       q    Type
REMARK                         _______ _______ _______ _____ _____    ______ ____
ROOT
ATOM      1  C   UNL     1      16.728 -11.271  29.604  0.00  0.00    +0.000 A 
ATOM      2  S   UNL     1      15.562 -11.304  28.368  0.00  0.00    +0.000 S 
ATOM      3  C   UNL     1      16.252 -10.164  27.321  0.00  0.00    +0.000 A 
ATOM      4  C   UNL     1      17.400  -9.778  27.971  0.00  0.00    +0.000 A 
ATOM      5  C   UNL     1      17.650 -10.354  29.164  0.00  0.00    +0.000 A 
ENDROOT
BRANCH   4   6
ATOM      6  C   UNL     1      18.269  -8.791  27.265  0.00  0.00    +0.000 A 
ATOM      7  C   UNL     1      19.342  -9.321  26.588  0.00  0.00    +0.000 A 
ATOM      8  C   UNL     1      20.256  -8.544  25.912  0.00  0.00    +0.000 A 
ATOM      9  C   UNL     1      20.069  -7.187  25.928  0.00  0.00    +0.000 A 
ATOM     10  C   UNL     1      21.001  -6.264  25.227  0.00  0.00    +0.000 C 
ATOM     11  C   UNL     1      18.992  -6.647  26.608  0.00  0.00    +0.000 A 
ATOM     12  C   UNL     1      18.813  -5.177  26.609  0.00  0.00    +0.000 C 
ATOM     13  C   UNL     1      18.078  -7.452  27.286  0.00  0.00    +0.000 A 
ENDBRANCH   4   6
BRANCH   1  17
ATOM     14  C   UNL     1      16.081 -12.146  33.290  0.00  0.00    +0.000 C 
ATOM     15  C   UNL     1      16.125 -11.456  31.974  0.00  0.00    +0.000 C 
ATOM     16  O   UNL     1      15.596 -10.336  31.876  0.00  0.00    +0.000 OA
ATOM     17  N   UNL     1      16.746 -12.034  30.833  0.00  0.00    +0.000 NA
ENDBRANCH   1  17
BRANCH   5  18
ATOM     18  C   UNL     1      18.833 -10.022  29.982  0.00  0.00    +0.000 C 
ATOM     19  N   UNL     1      20.109 -10.596  29.809  0.00  0.00    +0.000 NA
ATOM     20  O   UNL     1      18.716  -9.174  30.892  0.00  0.00    +0.000 OA
ENDBRANCH   5  18
TORSDOF 3
ENDMDL
MODEL 10
REMARK VINA RESULT:      -5.2     32.909     34.498
REMARK  Name = 
REMARK  3 active torsions:
REMARK  status: ('A' for Active; 'I' for Inactive)
REMARK    1  A    between atoms: N_4  and  C_5
REMARK    2  A    between atoms: C_8  and  C_9
REMARK    3  A    between atoms: C_17  and  C_18
REMARK                            x       y       z     vdW  Elec       q    Type
REMARK                         _______ _______ _______ _____ _____    ______ ____
ROOT
ATOM      1  C   UNL     1      18.382  -8.459  27.872  0.00  0.00    +0.000 A 
ATOM      2  S   UNL     1      17.785  -6.967  27.317  0.00  0.00    +0.000 S 
ATOM      3  C   UNL     1      18.922  -6.662  26.099  0.00  0.00    +0.000 A 
ATOM      4  C   UNL     1      19.757  -7.753  26.151  0.00  0.00    +0.000 A 
ATOM      5  C   UNL     1      19.477  -8.693  27.078  0.00  0.00    +0.000 A 
ENDROOT
BRANCH   4   6
ATOM      6  C   UNL     1      20.860  -7.800  25.149  0.00  0.00    +0.000 A 
ATOM      7  C   UNL     1      20.736  -8.762  24.174  0.00  0.00    +0.000 A 
ATOM      8  C   UNL     1      21.683  -8.957  23.192  0.00  0.00    +0.000 A 
ATOM      9  C   UNL     1      22.788  -8.147  23.208  0.00  0.00    +0.000 A 
ATOM     10  C   UNL     1      23.865  -8.279  22.191  0.00  0.00    +0.000 C 
ATOM     11  C   UNL     1      22.920  -7.178  24.188  0.00  0.00    +0.000 A 
ATOM     12  C   UNL     1      24.124  -6.316  24.182  0.00  0.00    +0.000 C 
ATOM     13  C   UNL     1      21.949  -6.998  25.171  0.00  0.00    +0.000 A 
ENDBRANCH   4   6
BRANCH   1  17
ATOM     14  C   UNL     1      16.266 -11.171  29.588  0.00  0.00    +0.000 C 
ATOM     15  C   UNL     1      16.877 -10.262  28.584  0.00  0.00    +0.000 C 
ATOM     16  O   UNL     1      16.516 -10.361  27.399  0.00  0.00    +0.000 OA
ATOM     17  N   UNL     1      17.856  -9.291  28.933  0.00  0.00    +0.000 NA
ENDBRANCH   1  17
BRANCH   5  18
ATOM     18  C   UNL     1      20.297  -9.906  27.261  0.00  0.00    +0.000 C 
ATOM     19  N   UNL     1      19.970 -11.176  26.741  0.00  0.00    +0.000 NA
ATOM     20  O   UNL     1      21.357  -9.822  27.916  0.00  0.00    +0.000 OA
ENDBRANCH   5  18
TORSDOF 3
ENDMDL
