MODEL 1
REMARK VINA RESULT:      -7.0      0.000      0.000
REMARK  Name = 
REMARK  2 active torsions:
REMARK  status: ('A' for Active; 'I' for Inactive)
REMARK    1  A    between atoms: N_2  and  C_4
REMARK    2  A    between atoms: C_7  and  C_8
REMARK                            x       y       z     vdW  Elec       q    Type
REMARK                         _______ _______ _______ _____ _____    ______ ____
ROOT
ATOM      1  C   UNL     1      16.050  11.197  35.737  0.00  0.00    +0.000 A 
ATOM      2  N   UNL     1      15.128  12.134  35.379  0.00  0.00    +0.000 NA
ATOM      3  C   UNL     1      15.069  12.236  34.032  0.00  0.00    +0.000 A 
ATOM      4  C   UNL     1      14.344  13.004  33.152  0.00  0.00    +0.000 A 
ATOM      5  C   UNL     1      14.484  12.921  31.775  0.00  0.00    +0.000 A 
ATOM      6  N   UNL     1      13.693  13.755  30.922  0.00  0.00    +0.000 NA
ATOM      7  C   UNL     1      15.395  12.023  31.271  0.00  0.00    +0.000 A 
ATOM      8  C   UNL     1      16.137  11.237  32.125  0.00  0.00    +0.000 A 
ATOM      9  C   UNL     1      15.977  11.342  33.510  0.00  0.00    +0.000 A 
ATOM     10  N   UNL     1      16.537  10.745  34.561  0.00  0.00    +0.000 N 
ATOM     11  C   UNL     1      17.575   9.710  34.462  0.00  0.00    +0.000 C 
ENDROOT
BRANCH   1  15
ATOM     12  C   UNL     1      17.142   9.989  39.647  0.00  0.00    +0.000 A 
ATOM     13  C   UNL     1      18.096  10.094  38.661  0.00  0.00    +0.000 A 
ATOM     14  C   UNL     1      17.735  10.500  37.365  0.00  0.00    +0.000 A 
ATOM     15  C   UNL     1      16.431  10.795  37.068  0.00  0.00    +0.000 A 
ATOM     16  C   UNL     1      15.497  10.688  38.057  0.00  0.00    +0.000 A 
ATOM     17  C   UNL     1      15.810  10.295  39.331  0.00  0.00    +0.000 A 
BRANCH  12  19
ATOM     18  C   UNL     1      18.850   9.188  41.322  0.00  0.00    +0.000 C 
ATOM     19  N   UNL     1      17.475   9.559  40.974  0.00  0.00    +0.000 N 
ATOM     20  C   UNL     1      16.449   9.485  42.001  0.00  0.00    +0.000 C 
ENDBRANCH  12  19
ENDBRANCH   1  15
TORSDOF 2
ENDMDL
MODEL 2
REMARK VINA RESULT:      -6.9      1.565      7.663
REMARK  Name = 
REMARK  2 active torsions:
REMARK  status: ('A' for Active; 'I' for Inactive)
REMARK    1  A    between atoms: N_2  and  C_4
REMARK    2  A    between atoms: C_7  and  C_8
REMARK                            x       y       z     vdW  Elec       q    Type
REMARK                         _______ _______ _______ _____ _____    ______ ____
ROOT
ATOM      1  C   UNL     1      16.909  10.648  36.450  0.00  0.00    +0.000 A 
ATOM      2  N   UNL     1      18.162  10.131  36.591  0.00  0.00    +0.000 NA
ATOM      3  C   UNL     1      18.370   9.759  37.874  0.00  0.00    +0.000 A 
ATOM      4  C   UNL     1      19.424   9.204  38.560  0.00  0.00    +0.000 A 
ATOM      5  C   UNL     1      19.384   8.920  39.917  0.00  0.00    +0.000 A 
ATOM      6  N   UNL     1      20.523   8.343  40.564  0.00  0.00    +0.000 NA
ATOM      7  C   UNL     1      18.228   9.210  40.604  0.00  0.00    +0.000 A 
ATOM      8  C   UNL     1      17.153   9.765  39.946  0.00  0.00    +0.000 A 
ATOM      9  C   UNL     1      17.220  10.043  38.578  0.00  0.00    +0.000 A 
ATOM     10  N   UNL     1      16.378  10.569  37.690  0.00  0.00    +0.000 N 
ATOM     11  C   UNL     1      15.019  11.022  38.016  0.00  0.00    +0.000 C 
ENDROOT
BRANCH   1  15
ATOM     12  C   UNL     1      15.108  12.158  32.927  0.00  0.00    +0.000 A 
ATOM     13  C   UNL     1      14.718  12.626  34.162  0.00  0.00    +0.000 A 
ATOM     14  C   UNL     1      15.320  12.129  35.330  0.00  0.00    +0.000 A 
ATOM     15  C   UNL     1      16.299  11.174  35.256  0.00  0.00    +0.000 A 
ATOM     16  C   UNL     1      16.675  10.721  34.024  0.00  0.00    +0.000 A 
ATOM     17  C   UNL     1      16.111  11.180  32.863  0.00  0.00    +0.000 A 
BRANCH  12  19
ATOM     18  C   UNL     1      13.819  13.928  31.674  0.00  0.00    +0.000 C 
ATOM     19  N   UNL     1      14.500  12.630  31.718  0.00  0.00    +0.000 N 
ATOM     20  C   UNL     1      14.551  11.826  30.507  0.00  0.00    +0.000 C 
ENDBRANCH  12  19
ENDBRANCH   1  15
TORSDOF 2
ENDMDL
MODEL 3
REMARK VINA RESULT:      -6.9      3.545      5.352
REMARK  Name = 
REMARK  2 active torsions:
REMARK  status: ('A' for Active; 'I' for Inactive)
REMARK    1  A    between atoms: N_2  and  C_4
REMARK    2  A    between atoms: C_7  and  C_8
REMARK                            x       y       z     vdW  Elec       q    Type
REMARK                         _______ _______ _______ _____ _____    ______ ____
ROOT
ATOM      1  C   UNL     1      18.170  11.140  37.488  0.00  0.00    +0.000 A 
ATOM      2  N   UNL     1      17.446  11.970  36.686  0.00  0.00    +0.000 NA
ATOM      3  C   UNL     1      16.134  11.890  36.998  0.00  0.00    +0.000 A 
ATOM      4  C   UNL     1      14.989  12.483  36.520  0.00  0.00    +0.000 A 
ATOM      5  C   UNL     1      13.724  12.211  37.022  0.00  0.00    +0.000 A 
ATOM      6  N   UNL     1      12.578  12.868  36.471  0.00  0.00    +0.000 NA
ATOM      7  C   UNL     1      13.618  11.305  38.050  0.00  0.00    +0.000 A 
ATOM      8  C   UNL     1      14.745  10.694  38.553  0.00  0.00    +0.000 A 
ATOM      9  C   UNL     1      16.008  10.984  38.028  0.00  0.00    +0.000 A 
ATOM     10  N   UNL     1      17.246  10.564  38.288  0.00  0.00    +0.000 N 
ATOM     11  C   UNL     1      17.578   9.578  39.326  0.00  0.00    +0.000 C 
ENDROOT
BRANCH   1  15
ATOM     12  C   UNL     1      22.352  10.477  37.405  0.00  0.00    +0.000 A 
ATOM     13  C   UNL     1      21.827  11.506  38.153  0.00  0.00    +0.000 A 
ATOM     14  C   UNL     1      20.439  11.722  38.185  0.00  0.00    +0.000 A 
ATOM     15  C   UNL     1      19.593  10.914  37.473  0.00  0.00    +0.000 A 
ATOM     16  C   UNL     1      20.129   9.897  36.737  0.00  0.00    +0.000 A 
ATOM     17  C   UNL     1      21.476   9.655  36.681  0.00  0.00    +0.000 A 
BRANCH  12  19
ATOM     18  C   UNL     1      24.478  10.311  36.057  0.00  0.00    +0.000 C 
ATOM     19  N   UNL     1      23.765  10.242  37.336  0.00  0.00    +0.000 N 
ATOM     20  C   UNL     1      24.517   9.930  38.540  0.00  0.00    +0.000 C 
ENDBRANCH  12  19
ENDBRANCH   1  15
TORSDOF 2
ENDMDL
MODEL 4
REMARK VINA RESULT:      -6.7      1.559      2.614
REMARK  Name = 
REMARK  2 active torsions:
REMARK  status: ('A' for Active; 'I' for Inactive)
REMARK    1  A    between atoms: N_2  and  C_4
REMARK    2  A    between atoms: C_7  and  C_8
REMARK                            x       y       z     vdW  Elec       q    Type
REMARK                         _______ _______ _______ _____ _____    ______ ____
ROOT
ATOM      1  C   UNL     1      17.179  10.645  35.773  0.00  0.00    +0.000 A 
ATOM      2  N   UNL     1      17.144  10.100  34.525  0.00  0.00    +0.000 NA
ATOM      3  C   UNL     1      16.302  10.802  33.734  0.00  0.00    +0.000 A 
ATOM      4  C   UNL     1      15.890  10.696  32.427  0.00  0.00    +0.000 A 
ATOM      5  C   UNL     1      14.981  11.565  31.842  0.00  0.00    +0.000 A 
ATOM      6  N   UNL     1      14.600  11.391  30.474  0.00  0.00    +0.000 NA
ATOM      7  C   UNL     1      14.471  12.582  32.614  0.00  0.00    +0.000 A 
ATOM      8  C   UNL     1      14.864  12.717  33.927  0.00  0.00    +0.000 A 
ATOM      9  C   UNL     1      15.780  11.826  34.493  0.00  0.00    +0.000 A 
ATOM     10  N   UNL     1      16.331  11.694  35.699  0.00  0.00    +0.000 N 
ATOM     11  C   UNL     1      16.050  12.586  36.833  0.00  0.00    +0.000 C 
ENDROOT
BRANCH   1  15
ATOM     12  C   UNL     1      19.421   9.346  39.123  0.00  0.00    +0.000 A 
ATOM     13  C   UNL     1      18.061   9.537  39.229  0.00  0.00    +0.000 A 
ATOM     14  C   UNL     1      17.317   9.963  38.116  0.00  0.00    +0.000 A 
ATOM     15  C   UNL     1      17.933  10.193  36.915  0.00  0.00    +0.000 A 
ATOM     16  C   UNL     1      19.281   9.998  36.826  0.00  0.00    +0.000 A 
ATOM     17  C   UNL     1      20.041   9.585  37.888  0.00  0.00    +0.000 A 
BRANCH  12  19
ATOM     18  C   UNL     1      21.676   8.982  40.194  0.00  0.00    +0.000 C 
ATOM     19  N   UNL     1      20.212   8.932  40.245  0.00  0.00    +0.000 N 
ATOM     20  C   UNL     1      19.570   8.452  41.459  0.00  0.00    +0.000 C 
ENDBRANCH  12  19
ENDBRANCH   1  15
TORSDOF 2
ENDMDL
MODEL 5
REMARK VINA RESULT:      -6.6     28.760     31.498
REMARK  Name = 
REMARK  2 active torsions:
REMARK  status: ('A' for Active; 'I' for Inactive)
REMARK    1  A    between atoms: N_2  and  C_4
REMARK    2  A    between atoms: C_7  and  C_8
REMARK                            x       y       z     vdW  Elec       q    Type
REMARK                         _______ _______ _______ _____ _____    ______ ____
ROOT
ATOM      1  C   UNL     1      31.584  21.873  11.605  0.00  0.00    +0.000 A 
ATOM      2  N   UNL     1      31.085  22.661  12.598  0.00  0.00    +0.000 NA
ATOM      3  C   UNL     1      29.745  22.779  12.468  0.00  0.00    +0.000 A 
ATOM      4  C   UNL     1      28.762  23.442  13.164  0.00  0.00    +0.000 A 
ATOM      5  C   UNL     1      27.422  23.409  12.806  0.00  0.00    +0.000 A 
ATOM      6  N   UNL     1      26.455  24.126  13.580  0.00  0.00    +0.000 NA
ATOM      7  C   UNL     1      27.066  22.673  11.700  0.00  0.00    +0.000 A 
ATOM      8  C   UNL     1      28.027  21.996  10.982  0.00  0.00    +0.000 A 
ATOM      9  C   UNL     1      29.371  22.048  11.363  0.00  0.00    +0.000 A 
ATOM     10  N   UNL     1      30.498  21.525  10.881  0.00  0.00    +0.000 N 
ATOM     11  C   UNL     1      30.562  20.666   9.691  0.00  0.00    +0.000 C 
ENDROOT
BRANCH   1  15
ATOM     12  C   UNL     1      35.636  20.840  10.928  0.00  0.00    +0.000 A 
ATOM     13  C   UNL     1      34.836  20.038  11.710  0.00  0.00    +0.000 A 
ATOM     14  C   UNL     1      33.491  20.378  11.930  0.00  0.00    +0.000 A 
ATOM     15  C   UNL     1      32.959  21.509  11.371  0.00  0.00    +0.000 A 
ATOM     16  C   UNL     1      33.764  22.293  10.597  0.00  0.00    +0.000 A 
ATOM     17  C   UNL     1      35.080  21.996  10.359  0.00  0.00    +0.000 A 
BRANCH  12  19
ATOM     18  C   UNL     1      37.503  19.151  10.775  0.00  0.00    +0.000 C 
ATOM     19  N   UNL     1      37.017  20.532  10.700  0.00  0.00    +0.000 N 
ATOM     20  C   UNL     1      37.964  21.591  10.387  0.00  0.00    +0.000 C 
ENDBRANCH  12  19
ENDBRANCH   1  15
TORSDOF 2
ENDMDL
MODEL 6
REMARK VINA RESULT:      -6.6     18.936     20.345
REMARK  Name = 
REMARK  2 active torsions:
REMARK  status: ('A' for Active; 'I' for Inactive)
REMARK    1  A    between atoms: N_2  and  C_4
REMARK    2  A    between atoms: C_7  and  C_8
REMARK                            x       y       z     vdW  Elec       q    Type
REMARK                         _______ _______ _______ _____ _____    ______ ____
ROOT
ATOM      1  C   UNL     1      34.247   3.409  35.503  0.00  0.00    +0.000 A 
ATOM      2  N   UNL     1      34.276   2.431  36.451  0.00  0.00    +0.000 NA
ATOM      3  C   UNL     1      33.811   1.271  35.935  0.00  0.00    +0.000 A 
ATOM      4  C   UNL     1      33.616   0.003  36.429  0.00  0.00    +0.000 A 
ATOM      5  C   UNL     1      33.100  -1.039  35.673  0.00  0.00    +0.000 A 
ATOM      6  N   UNL     1      32.925  -2.333  36.258  0.00  0.00    +0.000 NA
ATOM      7  C   UNL     1      32.770  -0.783  34.362  0.00  0.00    +0.000 A 
ATOM      8  C   UNL     1      32.954   0.476  33.835  0.00  0.00    +0.000 A 
ATOM      9  C   UNL     1      33.475   1.508  34.620  0.00  0.00    +0.000 A 
ATOM     10  N   UNL     1      33.752   2.794  34.407  0.00  0.00    +0.000 N 
ATOM     11  C   UNL     1      33.542   3.478  33.123  0.00  0.00    +0.000 C 
ENDROOT
BRANCH   1  15
ATOM     12  C   UNL     1      35.380   7.465  35.954  0.00  0.00    +0.000 A 
ATOM     13  C   UNL     1      36.315   6.518  35.604  0.00  0.00    +0.000 A 
ATOM     14  C   UNL     1      35.938   5.174  35.449  0.00  0.00    +0.000 A 
ATOM     15  C   UNL     1      34.638   4.789  35.645  0.00  0.00    +0.000 A 
ATOM     16  C   UNL     1      33.722   5.740  35.990  0.00  0.00    +0.000 A 
ATOM     17  C   UNL     1      34.052   7.061  36.151  0.00  0.00    +0.000 A 
BRANCH  12  19
ATOM     18  C   UNL     1      34.908   9.915  35.582  0.00  0.00    +0.000 C 
ATOM     19  N   UNL     1      35.736   8.842  36.139  0.00  0.00    +0.000 N 
ATOM     20  C   UNL     1      36.931   9.197  36.888  0.00  0.00    +0.000 C 
ENDBRANCH  12  19
ENDBRANCH   1  15
TORSDOF 2
ENDMDL
MODEL 7
REMARK VINA RESULT:      -6.5     19.367     20.804
REMARK  Name = 
REMARK  2 active torsions:
REMARK  status: ('A' for Active; 'I' for Inactive)
REMARK    1  A    between atoms: N_2  and  C_4
REMARK    2  A    between atoms: C_7  and  C_8
REMARK                            x       y       z     vdW  Elec       q    Type
REMARK                         _______ _______ _______ _____ _____    ______ ____
ROOT
ATOM      1  C   UNL     1      33.713   1.595  35.151  0.00  0.00    +0.000 A 
ATOM      2  N   UNL     1      33.926   2.126  36.387  0.00  0.00    +0.000 NA
ATOM      3  C   UNL     1      34.136   3.458  36.291  0.00  0.00    +0.000 A 
ATOM      4  C   UNL     1      34.401   4.462  37.192  0.00  0.00    +0.000 A 
ATOM      5  C   UNL     1      34.590   5.786  36.823  0.00  0.00    +0.000 A 
ATOM      6  N   UNL     1      34.864   6.776  37.820  0.00  0.00    +0.000 NA
ATOM      7  C   UNL     1      34.506   6.103  35.488  0.00  0.00    +0.000 A 
ATOM      8  C   UNL     1      34.240   5.121  34.559  0.00  0.00    +0.000 A 
ATOM      9  C   UNL     1      34.055   3.794  34.958  0.00  0.00    +0.000 A 
ATOM     10  N   UNL     1      33.801   2.654  34.316  0.00  0.00    +0.000 N 
ATOM     11  C   UNL     1      33.637   2.550  32.860  0.00  0.00    +0.000 C 
ENDROOT
BRANCH   1  15
ATOM     12  C   UNL     1      33.032  -2.465  34.157  0.00  0.00    +0.000 A 
ATOM     13  C   UNL     1      32.245  -1.839  35.097  0.00  0.00    +0.000 A 
ATOM     14  C   UNL     1      32.468  -0.490  35.422  0.00  0.00    +0.000 A 
ATOM     15  C   UNL     1      33.468   0.216  34.811  0.00  0.00    +0.000 A 
ATOM     16  C   UNL     1      34.239  -0.418  33.880  0.00  0.00    +0.000 A 
ATOM     17  C   UNL     1      34.053  -1.731  33.536  0.00  0.00    +0.000 A 
BRANCH  12  19
ATOM     18  C   UNL     1      33.505  -4.429  32.647  0.00  0.00    +0.000 C 
ATOM     19  N   UNL     1      32.843  -3.845  33.817  0.00  0.00    +0.000 N 
ATOM     20  C   UNL     1      31.988  -4.692  34.632  0.00  0.00    +0.000 C 
ENDBRANCH  12  19
ENDBRANCH   1  15
TORSDOF 2
ENDMDL
MODEL 8
REMARK VINA RESULT:      -6.5     21.350     23.761
REMARK  Name = 
REMARK  2 active torsions:
REMARK  status: ('A' for Active; 'I' for Inactive)
REMARK    1  A    between atoms: N_2  and  C_4
REMARK    2  A    between atoms: C_7  and  C_8
REMARK                            x       y       z     vdW  Elec       q    Type
REMARK                         _______ _______ _______ _____ _____    ______ ____
ROOT
ATOM      1  C   UNL     1      22.412  -7.738  24.841  0.00  0.00    +0.000 A 
ATOM      2  N   UNL     1      21.513  -6.714  24.818  0.00  0.00    +0.000 NA
ATOM      3  C   UNL     1      20.468  -6.996  25.629  0.00  0.00    +0.000 A 
ATOM      4  C   UNL     1      19.307  -6.344  25.970  0.00  0.00    +0.000 A 
ATOM      5  C   UNL     1      18.367  -6.870  26.844  0.00  0.00    +0.000 A 
ATOM      6  N   UNL     1      17.180  -6.131  27.150  0.00  0.00    +0.000 NA
ATOM      7  C   UNL     1      18.616  -8.105  27.394  0.00  0.00    +0.000 A 
ATOM      8  C   UNL     1      19.770  -8.785  27.074  0.00  0.00    +0.000 A 
ATOM      9  C   UNL     1      20.701  -8.232  26.189  0.00  0.00    +0.000 A 
ATOM     10  N   UNL     1      21.870  -8.636  25.692  0.00  0.00    +0.000 N 
ATOM     11  C   UNL     1      22.505  -9.918  26.025  0.00  0.00    +0.000 C 
ENDROOT
BRANCH   1  15
ATOM     12  C   UNL     1      26.028  -8.063  22.660  0.00  0.00    +0.000 A 
ATOM     13  C   UNL     1      25.727  -6.902  23.337  0.00  0.00    +0.000 A 
ATOM     14  C   UNL     1      24.530  -6.797  24.065  0.00  0.00    +0.000 A 
ATOM     15  C   UNL     1      23.649  -7.844  24.110  0.00  0.00    +0.000 A 
ATOM     16  C   UNL     1      23.962  -8.988  23.435  0.00  0.00    +0.000 A 
ATOM     17  C   UNL     1      25.119  -9.129  22.714  0.00  0.00    +0.000 A 
BRANCH  12  19
ATOM     18  C   UNL     1      27.432  -9.340  20.999  0.00  0.00    +0.000 C 
ATOM     19  N   UNL     1      27.232  -8.196  21.892  0.00  0.00    +0.000 N 
ATOM     20  C   UNL     1      28.278  -7.190  21.988  0.00  0.00    +0.000 C 
ENDBRANCH  12  19
ENDBRANCH   1  15
TORSDOF 2
ENDMDL
MODEL 9
REMARK VINA RESULT:      -6.4     19.410     21.505
REMARK  Name = 
REMARK  2 active torsions:
REMARK  status: ('A' for Active; 'I' for Inactive)
REMARK    1  A    between atoms: N_2  and  C_4
REMARK    2  A    between atoms: C_7  and  C_8
REMARK                            x       y       z     vdW  Elec       q    Type
REMARK                         _______ _______ _______ _____ _____    ______ ____
ROOT
ATOM      1  C   UNL     1      33.268  -0.537  34.575  0.00  0.00    +0.000 A 
ATOM      2  N   UNL     1      33.189   0.504  33.700  0.00  0.00    +0.000 NA
ATOM      3  C   UNL     1      33.502   1.661  34.325  0.00  0.00    +0.000 A 
ATOM      4  C   UNL     1      33.575   2.978  33.939  0.00  0.00    +0.000 A 
ATOM      5  C   UNL     1      33.921   4.007  34.802  0.00  0.00    +0.000 A 
ATOM      6  N   UNL     1      33.974   5.356  34.327  0.00  0.00    +0.000 NA
ATOM      7  C   UNL     1      34.207   3.685  36.108  0.00  0.00    +0.000 A 
ATOM      8  C   UNL     1      34.146   2.375  36.527  0.00  0.00    +0.000 A 
ATOM      9  C   UNL     1      33.791   1.357  35.637  0.00  0.00    +0.000 A 
ATOM     10  N   UNL     1      33.640   0.037  35.740  0.00  0.00    +0.000 N 
ATOM     11  C   UNL     1      33.849  -0.718  36.983  0.00  0.00    +0.000 C 
ENDROOT
BRANCH   1  15
ATOM     12  C   UNL     1      32.514  -4.637  33.829  0.00  0.00    +0.000 A 
ATOM     13  C   UNL     1      31.793  -3.962  34.788  0.00  0.00    +0.000 A 
ATOM     14  C   UNL     1      32.040  -2.601  35.031  0.00  0.00    +0.000 A 
ATOM     15  C   UNL     1      32.999  -1.930  34.320  0.00  0.00    +0.000 A 
ATOM     16  C   UNL     1      33.705  -2.613  33.372  0.00  0.00    +0.000 A 
ATOM     17  C   UNL     1      33.494  -3.940  33.106  0.00  0.00    +0.000 A 
BRANCH  12  19
ATOM     18  C   UNL     1      33.425  -6.921  33.264  0.00  0.00    +0.000 C 
ATOM     19  N   UNL     1      32.301  -6.031  33.570  0.00  0.00    +0.000 N 
ATOM     20  C   UNL     1      30.958  -6.588  33.607  0.00  0.00    +0.000 C 
ENDBRANCH  12  19
ENDBRANCH   1  15
TORSDOF 2
ENDMDL
MODEL 10
REMARK VINA RESULT:      -6.4     19.126     20.464
REMARK  Name = 
REMARK  2 active torsions:
REMARK  status: ('A' for Active; 'I' for Inactive)
REMARK    1  A    between atoms: N_2  and  C_4
REMARK    2  A    between atoms: C_7  and  C_8
REMARK                            x       y       z     vdW  Elec       q    Type
REMARK                         _______ _______ _______ _____ _____    ______ ____
ROOT
ATOM      1  C   UNL     1      30.125  22.894  26.724  0.00  0.00    +0.000 A 
ATOM      2  N   UNL     1      30.850  23.421  25.697  0.00  0.00    +0.000 NA
ATOM      3  C   UNL     1      30.064  23.583  24.609  0.00  0.00    +0.000 A 
ATOM      4  C   UNL     1      30.267  24.051  23.333  0.00  0.00    +0.000 A 
ATOM      5  C   UNL     1      29.266  24.106  22.374  0.00  0.00    +0.000 A 
ATOM      6  N   UNL     1      29.554  24.605  21.064  0.00  0.00    +0.000 NA
ATOM      7  C   UNL     1      28.010  23.670  22.726  0.00  0.00    +0.000 A 
ATOM      8  C   UNL     1      27.773  23.196  23.997  0.00  0.00    +0.000 A 
ATOM      9  C   UNL     1      28.800  23.150  24.944  0.00  0.00    +0.000 A 
ATOM     10  N   UNL     1      28.883  22.750  26.212  0.00  0.00    +0.000 N 
ATOM     11  C   UNL     1      27.753  22.206  26.977  0.00  0.00    +0.000 C 
ENDROOT
BRANCH   1  15
ATOM     12  C   UNL     1      31.509  21.903  30.602  0.00  0.00    +0.000 A 
ATOM     13  C   UNL     1      30.367  22.655  30.443  0.00  0.00    +0.000 A 
ATOM     14  C   UNL     1      29.905  22.978  29.157  0.00  0.00    +0.000 A 
ATOM     15  C   UNL     1      30.584  22.552  28.047  0.00  0.00    +0.000 A 
ATOM     16  C   UNL     1      31.714  21.807  28.220  0.00  0.00    +0.000 A 
ATOM     17  C   UNL     1      32.196  21.471  29.458  0.00  0.00    +0.000 A 
BRANCH  12  19
ATOM     18  C   UNL     1      31.118  21.438  33.050  0.00  0.00    +0.000 C 
ATOM     19  N   UNL     1      32.018  21.572  31.901  0.00  0.00    +0.000 N 
ATOM     20  C   UNL     1      33.443  21.362  32.100  0.00  0.00    +0.000 C 
ENDBRANCH  12  19
ENDBRANCH   1  15
TORSDOF 2
ENDMDL
