MODEL 1
REMARK VINA RESULT:      -8.0      0.000      0.000
REMARK  Name = 
REMARK  9 active torsions:
REMARK  status: ('A' for Active; 'I' for Inactive)
REMARK    1  A    between atoms: C_2  and  O_3
REMARK    2  A    between atoms: O_3  and  C_4
REMARK    3  A    between atoms: C_4  and  C_6
REMARK    4  A    between atoms: C_6  and  C_8
REMARK    5  A    between atoms: C_8  and  C_9
REMARK    6  A    between atoms: C_12  and  O_13
REMARK    7  A    between atoms: O_13  and  C_14
REMARK    8  A    between atoms: C_14  and  C_15
REMARK    9  A    between atoms: C_15  and  C_16
REMARK                            x       y       z     vdW  Elec       q    Type
REMARK                         _______ _______ _______ _____ _____    ______ ____
ROOT
ATOM      1  C   UNL     1      38.904   3.175  13.943  0.00  0.00    +0.000 C 
ENDROOT
BRANCH   1   2
ATOM      2  O   UNL     1      38.760   4.481  14.327  0.00  0.00    +0.000 OA
BRANCH   2   6
ATOM      3  C   UNL     1      39.717   5.667  18.189  0.00  0.00    +0.000 A 
ATOM      4  C   UNL     1      40.428   6.147  17.108  0.00  0.00    +0.000 A 
ATOM      5  C   UNL     1      40.116   5.758  15.826  0.00  0.00    +0.000 A 
ATOM      6  C   UNL     1      39.089   4.882  15.591  0.00  0.00    +0.000 A 
ATOM      7  C   UNL     1      38.377   4.401  16.658  0.00  0.00    +0.000 A 
ATOM      8  C   UNL     1      38.691   4.792  17.937  0.00  0.00    +0.000 A 
BRANCH   3   9
ATOM      9  C   UNL     1      40.091   6.117  19.562  0.00  0.00    +0.000 C 
BRANCH   9  10
ATOM     10  C   UNL     1      40.803   7.592  19.149  0.00  0.00    +0.000 C 
ATOM     11  O   UNL     1      42.027   7.330  20.023  0.00  0.00    +0.000 OA
BRANCH  10  12
ATOM     12  C   UNL     1      39.976   8.429  20.240  0.00  0.00    +0.000 C 
ATOM     13  O   UNL     1      40.564   9.463  20.627  0.00  0.00    +0.000 OA
BRANCH  12  14
ATOM     14  O   UNL     1      38.786   8.070  20.693  0.00  0.00    +0.000 OA
BRANCH  14  16
ATOM     15  C   UNL     1      37.219   8.450  18.987  0.00  0.00    +0.000 C 
ATOM     16  C   UNL     1      37.652   8.879  20.379  0.00  0.00    +0.000 C 
ENDBRANCH  14  16
ENDBRANCH  12  14
ENDBRANCH  10  12
ENDBRANCH   9  10
ENDBRANCH   3   9
ENDBRANCH   2   6
ENDBRANCH   1   2
BRANCH   1  17
ATOM     17  C   UNL     1      37.685   2.600  13.253  0.00  0.00    +0.000 C 
BRANCH  17  18
ATOM     18  C   UNL     1      37.656   1.057  13.599  0.00  0.00    +0.000 C 
ATOM     19  S   UNL     1      39.420   1.038  14.326  0.00  0.00    +0.000 S 
ATOM     20  C   UNL     1      39.575  -0.635  14.958  0.00  0.00    +0.000 A 
ATOM     21  C   UNL     1      40.648  -1.320  14.429  0.00  0.00    +0.000 A 
ATOM     22  C   UNL     1      40.838  -2.632  14.867  0.00  0.00    +0.000 A 
ATOM     23  C   UNL     1      39.959  -3.165  15.789  0.00  0.00    +0.000 A 
ATOM     24  C   UNL     1      38.894  -2.461  16.304  0.00  0.00    +0.000 A 
ATOM     25  C   UNL     1      38.699  -1.164  15.877  0.00  0.00    +0.000 A 
ATOM     26  O   UNL     1      37.628  -0.526  16.425  0.00  0.00    +0.000 OA
ATOM     27  C   UNL     1      36.763   0.458  16.011  0.00  0.00    +0.000 A 
ATOM     28  C   UNL     1      35.777   0.773  16.925  0.00  0.00    +0.000 A 
ATOM     29  C   UNL     1      34.817   1.732  16.688  0.00  0.00    +0.000 A 
ATOM     30  C   UNL     1      34.812   2.427  15.498  0.00  0.00    +0.000 A 
ATOM     31  C   UNL     1      35.795   2.114  14.589  0.00  0.00    +0.000 A 
ATOM     32  C   UNL     1      36.762   1.133  14.851  0.00  0.00    +0.000 A 
ENDBRANCH  17  18
ENDBRANCH   1  17
TORSDOF 9
ENDMDL
MODEL 2
REMARK VINA RESULT:      -7.6     24.527     27.941
REMARK  Name = 
REMARK  9 active torsions:
REMARK  status: ('A' for Active; 'I' for Inactive)
REMARK    1  A    between atoms: C_2  and  O_3
REMARK    2  A    between atoms: O_3  and  C_4
REMARK    3  A    between atoms: C_4  and  C_6
REMARK    4  A    between atoms: C_6  and  C_8
REMARK    5  A    between atoms: C_8  and  C_9
REMARK    6  A    between atoms: C_12  and  O_13
REMARK    7  A    between atoms: O_13  and  C_14
REMARK    8  A    between atoms: C_14  and  C_15
REMARK    9  A    between atoms: C_15  and  C_16
REMARK                            x       y       z     vdW  Elec       q    Type
REMARK                         _______ _______ _______ _____ _____    ______ ____
ROOT
ATOM      1  C   UNL     1      26.065  17.846  37.641  0.00  0.00    +0.000 C 
ENDROOT
BRANCH   1   2
ATOM      2  O   UNL     1      25.350  16.892  38.316  0.00  0.00    +0.000 OA
BRANCH   2   6
ATOM      3  C   UNL     1      27.307  13.725  40.153  0.00  0.00    +0.000 A 
ATOM      4  C   UNL     1      25.974  13.627  39.812  0.00  0.00    +0.000 A 
ATOM      5  C   UNL     1      25.320  14.673  39.204  0.00  0.00    +0.000 A 
ATOM      6  C   UNL     1      25.979  15.840  38.920  0.00  0.00    +0.000 A 
ATOM      7  C   UNL     1      27.303  15.946  39.255  0.00  0.00    +0.000 A 
ATOM      8  C   UNL     1      27.953  14.900  39.862  0.00  0.00    +0.000 A 
BRANCH   3   9
ATOM      9  C   UNL     1      27.976  12.564  40.811  0.00  0.00    +0.000 C 
BRANCH   9  10
ATOM     10  C   UNL     1      26.595  11.662  41.173  0.00  0.00    +0.000 C 
ATOM     11  O   UNL     1      26.934  11.601  42.661  0.00  0.00    +0.000 OA
BRANCH  10  12
ATOM     12  C   UNL     1      27.267  10.259  40.776  0.00  0.00    +0.000 C 
ATOM     13  O   UNL     1      26.549   9.269  41.039  0.00  0.00    +0.000 OA
BRANCH  12  14
ATOM     14  O   UNL     1      28.464  10.150  40.222  0.00  0.00    +0.000 OA
BRANCH  14  16
ATOM     15  C   UNL     1      30.707   9.890  40.858  0.00  0.00    +0.000 C 
ATOM     16  C   UNL     1      29.374   9.172  40.727  0.00  0.00    +0.000 C 
ENDBRANCH  14  16
ENDBRANCH  12  14
ENDBRANCH  10  12
ENDBRANCH   9  10
ENDBRANCH   3   9
ENDBRANCH   2   6
ENDBRANCH   1   2
BRANCH   1  17
ATOM     17  C   UNL     1      26.332  17.501  36.192  0.00  0.00    +0.000 C 
BRANCH  17  18
ATOM     18  C   UNL     1      25.017  17.865  35.391  0.00  0.00    +0.000 C 
ATOM     19  S   UNL     1      25.771  19.413  34.570  0.00  0.00    +0.000 S 
ATOM     20  C   UNL     1      24.475  19.940  33.445  0.00  0.00    +0.000 A 
ATOM     21  C   UNL     1      24.061  21.237  33.660  0.00  0.00    +0.000 A 
ATOM     22  C   UNL     1      23.052  21.725  32.828  0.00  0.00    +0.000 A 
ATOM     23  C   UNL     1      22.530  20.899  31.851  0.00  0.00    +0.000 A 
ATOM     24  C   UNL     1      22.961  19.606  31.655  0.00  0.00    +0.000 A 
ATOM     25  C   UNL     1      23.957  19.117  32.473  0.00  0.00    +0.000 A 
ATOM     26  O   UNL     1      24.335  17.832  32.225  0.00  0.00    +0.000 OA
ATOM     27  C   UNL     1      24.833  16.799  32.983  0.00  0.00    +0.000 A 
ATOM     28  C   UNL     1      25.043  15.628  32.281  0.00  0.00    +0.000 A 
ATOM     29  C   UNL     1      25.536  14.483  32.869  0.00  0.00    +0.000 A 
ATOM     30  C   UNL     1      25.844  14.473  34.213  0.00  0.00    +0.000 A 
ATOM     31  C   UNL     1      25.635  15.640  34.909  0.00  0.00    +0.000 A 
ATOM     32  C   UNL     1      25.132  16.793  34.290  0.00  0.00    +0.000 A 
ENDBRANCH  17  18
ENDBRANCH   1  17
TORSDOF 9
ENDMDL
MODEL 3
REMARK VINA RESULT:      -7.4      1.339      2.034
REMARK  Name = 
REMARK  9 active torsions:
REMARK  status: ('A' for Active; 'I' for Inactive)
REMARK    1  A    between atoms: C_2  and  O_3
REMARK    2  A    between atoms: O_3  and  C_4
REMARK    3  A    between atoms: C_4  and  C_6
REMARK    4  A    between atoms: C_6  and  C_8
REMARK    5  A    between atoms: C_8  and  C_9
REMARK    6  A    between atoms: C_12  and  O_13
REMARK    7  A    between atoms: O_13  and  C_14
REMARK    8  A    between atoms: C_14  and  C_15
REMARK    9  A    between atoms: C_15  and  C_16
REMARK                            x       y       z     vdW  Elec       q    Type
REMARK                         _______ _______ _______ _____ _____    ______ ____
ROOT
ATOM      1  C   UNL     1      38.955   3.351  14.512  0.00  0.00    +0.000 C 
ENDROOT
BRANCH   1   2
ATOM      2  O   UNL     1      38.864   4.672  14.862  0.00  0.00    +0.000 OA
BRANCH   2   6
ATOM      3  C   UNL     1      40.020   5.942  18.641  0.00  0.00    +0.000 A 
ATOM      4  C   UNL     1      40.685   6.383  17.516  0.00  0.00    +0.000 A 
ATOM      5  C   UNL     1      40.308   5.966  16.261  0.00  0.00    +0.000 A 
ATOM      6  C   UNL     1      39.258   5.100  16.098  0.00  0.00    +0.000 A 
ATOM      7  C   UNL     1      38.591   4.657  17.209  0.00  0.00    +0.000 A 
ATOM      8  C   UNL     1      38.971   5.076  18.461  0.00  0.00    +0.000 A 
BRANCH   3   9
ATOM      9  C   UNL     1      40.465   6.422  19.983  0.00  0.00    +0.000 C 
BRANCH   9  10
ATOM     10  C   UNL     1      42.099   6.657  19.627  0.00  0.00    +0.000 C 
ATOM     11  O   UNL     1      42.555   5.950  20.902  0.00  0.00    +0.000 OA
BRANCH  10  12
ATOM     12  C   UNL     1      42.133   8.147  20.223  0.00  0.00    +0.000 C 
ATOM     13  O   UNL     1      41.021   8.718  20.202  0.00  0.00    +0.000 OA
BRANCH  12  14
ATOM     14  O   UNL     1      43.227   8.723  20.694  0.00  0.00    +0.000 OA
BRANCH  14  16
ATOM     15  C   UNL     1      44.164   9.256  22.778  0.00  0.00    +0.000 C 
ATOM     16  C   UNL     1      43.109   9.663  21.763  0.00  0.00    +0.000 C 
ENDBRANCH  14  16
ENDBRANCH  12  14
ENDBRANCH  10  12
ENDBRANCH   9  10
ENDBRANCH   3   9
ENDBRANCH   2   6
ENDBRANCH   1   2
BRANCH   1  17
ATOM     17  C   UNL     1      37.773   2.845  13.714  0.00  0.00    +0.000 C 
BRANCH  17  18
ATOM     18  C   UNL     1      37.803   1.267  13.814  0.00  0.00    +0.000 C 
ATOM     19  S   UNL     1      39.547   1.203  14.584  0.00  0.00    +0.000 S 
ATOM     20  C   UNL     1      39.760  -0.541  14.952  0.00  0.00    +0.000 A 
ATOM     21  C   UNL     1      40.875  -1.091  14.357  0.00  0.00    +0.000 A 
ATOM     22  C   UNL     1      41.111  -2.447  14.591  0.00  0.00    +0.000 A 
ATOM     23  C   UNL     1      40.234  -3.153  15.390  0.00  0.00    +0.000 A 
ATOM     24  C   UNL     1      39.126  -2.581  15.974  0.00  0.00    +0.000 A 
ATOM     25  C   UNL     1      38.885  -1.242  15.749  0.00  0.00    +0.000 A 
ATOM     26  O   UNL     1      37.774  -0.741  16.356  0.00  0.00    +0.000 OA
ATOM     27  C   UNL     1      36.877   0.261  16.073  0.00  0.00    +0.000 A 
ATOM     28  C   UNL     1      35.855   0.388  16.993  0.00  0.00    +0.000 A 
ATOM     29  C   UNL     1      34.860   1.334  16.879  0.00  0.00    +0.000 A 
ATOM     30  C   UNL     1      34.854   2.208  15.812  0.00  0.00    +0.000 A 
ATOM     31  C   UNL     1      35.872   2.080  14.897  0.00  0.00    +0.000 A 
ATOM     32  C   UNL     1      36.875   1.110  15.033  0.00  0.00    +0.000 A 
ENDBRANCH  17  18
ENDBRANCH   1  17
TORSDOF 9
ENDMDL
MODEL 4
REMARK VINA RESULT:      -7.2      1.764      3.010
REMARK  Name = 
REMARK  9 active torsions:
REMARK  status: ('A' for Active; 'I' for Inactive)
REMARK    1  A    between atoms: C_2  and  O_3
REMARK    2  A    between atoms: O_3  and  C_4
REMARK    3  A    between atoms: C_4  and  C_6
REMARK    4  A    between atoms: C_6  and  C_8
REMARK    5  A    between atoms: C_8  and  C_9
REMARK    6  A    between atoms: C_12  and  O_13
REMARK    7  A    between atoms: O_13  and  C_14
REMARK    8  A    between atoms: C_14  and  C_15
REMARK    9  A    between atoms: C_15  and  C_16
REMARK                            x       y       z     vdW  Elec       q    Type
REMARK                         _______ _______ _______ _____ _____    ______ ____
ROOT
ATOM      1  C   UNL     1      36.693   2.320  14.860  0.00  0.00    +0.000 C 
ENDROOT
BRANCH   1   2
ATOM      2  O   UNL     1      36.330   3.587  15.233  0.00  0.00    +0.000 OA
BRANCH   2   6
ATOM      3  C   UNL     1      38.964   6.082  17.251  0.00  0.00    +0.000 A 
ATOM      4  C   UNL     1      38.629   4.847  17.766  0.00  0.00    +0.000 A 
ATOM      5  C   UNL     1      37.757   4.015  17.103  0.00  0.00    +0.000 A 
ATOM      6  C   UNL     1      37.198   4.396  15.911  0.00  0.00    +0.000 A 
ATOM      7  C   UNL     1      37.525   5.620  15.392  0.00  0.00    +0.000 A 
ATOM      8  C   UNL     1      38.396   6.447  16.057  0.00  0.00    +0.000 A 
BRANCH   3   9
ATOM      9  C   UNL     1      39.915   6.950  18.006  0.00  0.00    +0.000 C 
BRANCH   9  10
ATOM     10  C   UNL     1      39.912   6.101  19.467  0.00  0.00    +0.000 C 
ATOM     11  O   UNL     1      39.443   7.320  20.259  0.00  0.00    +0.000 OA
BRANCH  10  12
ATOM     12  C   UNL     1      41.482   6.311  19.724  0.00  0.00    +0.000 C 
ATOM     13  O   UNL     1      42.139   6.502  18.677  0.00  0.00    +0.000 OA
BRANCH  12  14
ATOM     14  O   UNL     1      42.038   6.287  20.925  0.00  0.00    +0.000 OA
BRANCH  14  16
ATOM     15  C   UNL     1      44.279   5.865  21.479  0.00  0.00    +0.000 C 
ATOM     16  C   UNL     1      43.283   6.957  21.125  0.00  0.00    +0.000 C 
ENDBRANCH  14  16
ENDBRANCH  12  14
ENDBRANCH  10  12
ENDBRANCH   9  10
ENDBRANCH   3   9
ENDBRANCH   2   6
ENDBRANCH   1   2
BRANCH   1  17
ATOM     17  C   UNL     1      35.726   1.247  15.313  0.00  0.00    +0.000 C 
BRANCH  17  18
ATOM     18  C   UNL     1      36.465  -0.138  15.117  0.00  0.00    +0.000 C 
ATOM     19  S   UNL     1      38.157   0.654  14.729  0.00  0.00    +0.000 S 
ATOM     20  C   UNL     1      39.248  -0.767  14.617  0.00  0.00    +0.000 A 
ATOM     21  C   UNL     1      39.910  -0.852  13.411  0.00  0.00    +0.000 A 
ATOM     22  C   UNL     1      40.778  -1.932  13.241  0.00  0.00    +0.000 A 
ATOM     23  C   UNL     1      40.925  -2.842  14.270  0.00  0.00    +0.000 A 
ATOM     24  C   UNL     1      40.253  -2.736  15.466  0.00  0.00    +0.000 A 
ATOM     25  C   UNL     1      39.394  -1.672  15.642  0.00  0.00    +0.000 A 
ATOM     26  O   UNL     1      38.762  -1.627  16.848  0.00  0.00    +0.000 OA
ATOM     27  C   UNL     1      37.553  -1.154  17.298  0.00  0.00    +0.000 A 
ATOM     28  C   UNL     1      37.322  -1.367  18.643  0.00  0.00    +0.000 A 
ATOM     29  C   UNL     1      36.165  -0.965  19.275  0.00  0.00    +0.000 A 
ATOM     30  C   UNL     1      35.176  -0.320  18.564  0.00  0.00    +0.000 A 
ATOM     31  C   UNL     1      35.408  -0.109  17.225  0.00  0.00    +0.000 A 
ATOM     32  C   UNL     1      36.593  -0.527  16.602  0.00  0.00    +0.000 A 
ENDBRANCH  17  18
ENDBRANCH   1  17
TORSDOF 9
ENDMDL
MODEL 5
REMARK VINA RESULT:      -7.1     24.662     29.618
REMARK  Name = 
REMARK  9 active torsions:
REMARK  status: ('A' for Active; 'I' for Inactive)
REMARK    1  A    between atoms: C_2  and  O_3
REMARK    2  A    between atoms: O_3  and  C_4
REMARK    3  A    between atoms: C_4  and  C_6
REMARK    4  A    between atoms: C_6  and  C_8
REMARK    5  A    between atoms: C_8  and  C_9
REMARK    6  A    between atoms: C_12  and  O_13
REMARK    7  A    between atoms: O_13  and  C_14
REMARK    8  A    between atoms: C_14  and  C_15
REMARK    9  A    between atoms: C_15  and  C_16
REMARK                            x       y       z     vdW  Elec       q    Type
REMARK                         _______ _______ _______ _____ _____    ______ ____
ROOT
ATOM      1  C   UNL     1      26.427  18.171  37.566  0.00  0.00    +0.000 C 
ENDROOT
BRANCH   1   2
ATOM      2  O   UNL     1      26.482  17.143  38.468  0.00  0.00    +0.000 OA
BRANCH   2   6
ATOM      3  C   UNL     1      23.023  15.671  40.228  0.00  0.00    +0.000 A 
ATOM      4  C   UNL     1      23.657  14.968  39.225  0.00  0.00    +0.000 A 
ATOM      5  C   UNL     1      24.803  15.450  38.637  0.00  0.00    +0.000 A 
ATOM      6  C   UNL     1      25.344  16.644  39.036  0.00  0.00    +0.000 A 
ATOM      7  C   UNL     1      24.722  17.349  40.032  0.00  0.00    +0.000 A 
ATOM      8  C   UNL     1      23.578  16.864  40.616  0.00  0.00    +0.000 A 
BRANCH   3   9
ATOM      9  C   UNL     1      21.781  15.109  40.836  0.00  0.00    +0.000 C 
BRANCH   9  10
ATOM     10  C   UNL     1      22.191  15.316  42.462  0.00  0.00    +0.000 C 
ATOM     11  O   UNL     1      22.697  13.881  42.594  0.00  0.00    +0.000 OA
BRANCH  10  12
ATOM     12  C   UNL     1      20.703  15.035  42.993  0.00  0.00    +0.000 C 
ATOM     13  O   UNL     1      19.912  15.981  42.786  0.00  0.00    +0.000 OA
BRANCH  12  14
ATOM     14  O   UNL     1      20.338  13.913  43.591  0.00  0.00    +0.000 OA
BRANCH  14  16
ATOM     15  C   UNL     1      19.451  12.406  42.027  0.00  0.00    +0.000 C 
ATOM     16  C   UNL     1      19.109  13.293  43.212  0.00  0.00    +0.000 C 
ENDBRANCH  14  16
ENDBRANCH  12  14
ENDBRANCH  10  12
ENDBRANCH   9  10
ENDBRANCH   3   9
ENDBRANCH   2   6
ENDBRANCH   1   2
BRANCH   1  17
ATOM     17  C   UNL     1      26.586  17.734  36.126  0.00  0.00    +0.000 C 
BRANCH  17  18
ATOM     18  C   UNL     1      25.216  18.053  35.403  0.00  0.00    +0.000 C 
ATOM     19  S   UNL     1      25.911  19.534  34.421  0.00  0.00    +0.000 S 
ATOM     20  C   UNL     1      24.536  19.993  33.363  0.00  0.00    +0.000 A 
ATOM     21  C   UNL     1      24.143  21.305  33.517  0.00  0.00    +0.000 A 
ATOM     22  C   UNL     1      23.076  21.743  32.730  0.00  0.00    +0.000 A 
ATOM     23  C   UNL     1      22.480  20.856  31.856  0.00  0.00    +0.000 A 
ATOM     24  C   UNL     1      22.890  19.549  31.719  0.00  0.00    +0.000 A 
ATOM     25  C   UNL     1      23.943  19.109  32.492  0.00  0.00    +0.000 A 
ATOM     26  O   UNL     1      24.297  17.806  32.306  0.00  0.00    +0.000 OA
ATOM     27  C   UNL     1      24.848  16.825  33.095  0.00  0.00    +0.000 A 
ATOM     28  C   UNL     1      25.000  15.605  32.463  0.00  0.00    +0.000 A 
ATOM     29  C   UNL     1      25.532  14.500  33.091  0.00  0.00    +0.000 A 
ATOM     30  C   UNL     1      25.940  14.581  34.405  0.00  0.00    +0.000 A 
ATOM     31  C   UNL     1      25.788  15.795  35.032  0.00  0.00    +0.000 A 
ATOM     32  C   UNL     1      25.244  16.906  34.373  0.00  0.00    +0.000 A 
ENDBRANCH  17  18
ENDBRANCH   1  17
TORSDOF 9
ENDMDL
MODEL 6
REMARK VINA RESULT:      -7.0     24.641     28.505
REMARK  Name = 
REMARK  9 active torsions:
REMARK  status: ('A' for Active; 'I' for Inactive)
REMARK    1  A    between atoms: C_2  and  O_3
REMARK    2  A    between atoms: O_3  and  C_4
REMARK    3  A    between atoms: C_4  and  C_6
REMARK    4  A    between atoms: C_6  and  C_8
REMARK    5  A    between atoms: C_8  and  C_9
REMARK    6  A    between atoms: C_12  and  O_13
REMARK    7  A    between atoms: O_13  and  C_14
REMARK    8  A    between atoms: C_14  and  C_15
REMARK    9  A    between atoms: C_15  and  C_16
REMARK                            x       y       z     vdW  Elec       q    Type
REMARK                         _______ _______ _______ _____ _____    ______ ____
ROOT
ATOM      1  C   UNL     1      26.819  18.285  37.370  0.00  0.00    +0.000 C 
ENDROOT
BRANCH   1   2
ATOM      2  O   UNL     1      25.810  17.730  38.111  0.00  0.00    +0.000 OA
BRANCH   2   6
ATOM      3  C   UNL     1      26.232  14.006  39.898  0.00  0.00    +0.000 A 
ATOM      4  C   UNL     1      27.195  14.980  40.064  0.00  0.00    +0.000 A 
ATOM      5  C   UNL     1      27.061  16.216  39.475  0.00  0.00    +0.000 A 
ATOM      6  C   UNL     1      25.966  16.510  38.707  0.00  0.00    +0.000 A 
ATOM      7  C   UNL     1      25.004  15.549  38.536  0.00  0.00    +0.000 A 
ATOM      8  C   UNL     1      25.141  14.316  39.126  0.00  0.00    +0.000 A 
BRANCH   3   9
ATOM      9  C   UNL     1      26.419  12.680  40.557  0.00  0.00    +0.000 C 
BRANCH   9  10
ATOM     10  C   UNL     1      26.877  13.231  42.087  0.00  0.00    +0.000 C 
ATOM     11  O   UNL     1      27.597  11.927  42.423  0.00  0.00    +0.000 OA
BRANCH  10  12
ATOM     12  C   UNL     1      25.476  12.847  42.771  0.00  0.00    +0.000 C 
ATOM     13  O   UNL     1      25.031  11.737  42.406  0.00  0.00    +0.000 OA
BRANCH  12  14
ATOM     14  O   UNL     1      24.846  13.623  43.638  0.00  0.00    +0.000 OA
BRANCH  14  16
ATOM     15  C   UNL     1      23.548  15.051  42.304  0.00  0.00    +0.000 C 
ATOM     16  C   UNL     1      24.669  15.006  43.329  0.00  0.00    +0.000 C 
ENDBRANCH  14  16
ENDBRANCH  12  14
ENDBRANCH  10  12
ENDBRANCH   9  10
ENDBRANCH   3   9
ENDBRANCH   2   6
ENDBRANCH   1   2
BRANCH   1  17
ATOM     17  C   UNL     1      26.877  17.785  35.942  0.00  0.00    +0.000 C 
BRANCH  17  18
ATOM     18  C   UNL     1      25.470  18.105  35.294  0.00  0.00    +0.000 C 
ATOM     19  S   UNL     1      26.134  19.517  34.195  0.00  0.00    +0.000 S 
ATOM     20  C   UNL     1      24.704  19.960  33.205  0.00  0.00    +0.000 A 
ATOM     21  C   UNL     1      24.355  21.289  33.317  0.00  0.00    +0.000 A 
ATOM     22  C   UNL     1      23.249  21.716  32.580  0.00  0.00    +0.000 A 
ATOM     23  C   UNL     1      22.575  20.803  31.792  0.00  0.00    +0.000 A 
ATOM     24  C   UNL     1      22.943  19.481  31.696  0.00  0.00    +0.000 A 
ATOM     25  C   UNL     1      24.034  19.050  32.421  0.00  0.00    +0.000 A 
ATOM     26  O   UNL     1      24.343  17.731  32.280  0.00  0.00    +0.000 OA
ATOM     27  C   UNL     1      24.921  16.775  33.080  0.00  0.00    +0.000 A 
ATOM     28  C   UNL     1      25.001  15.522  32.504  0.00  0.00    +0.000 A 
ATOM     29  C   UNL     1      25.546  14.435  33.151  0.00  0.00    +0.000 A 
ATOM     30  C   UNL     1      26.043  14.569  34.430  0.00  0.00    +0.000 A 
ATOM     31  C   UNL     1      25.962  15.817  35.003  0.00  0.00    +0.000 A 
ATOM     32  C   UNL     1      25.403  16.909  34.325  0.00  0.00    +0.000 A 
ENDBRANCH  17  18
ENDBRANCH   1  17
TORSDOF 9
ENDMDL
MODEL 7
REMARK VINA RESULT:      -6.9     24.539     28.324
REMARK  Name = 
REMARK  9 active torsions:
REMARK  status: ('A' for Active; 'I' for Inactive)
REMARK    1  A    between atoms: C_2  and  O_3
REMARK    2  A    between atoms: O_3  and  C_4
REMARK    3  A    between atoms: C_4  and  C_6
REMARK    4  A    between atoms: C_6  and  C_8
REMARK    5  A    between atoms: C_8  and  C_9
REMARK    6  A    between atoms: C_12  and  O_13
REMARK    7  A    between atoms: O_13  and  C_14
REMARK    8  A    between atoms: C_14  and  C_15
REMARK    9  A    between atoms: C_15  and  C_16
REMARK                            x       y       z     vdW  Elec       q    Type
REMARK                         _______ _______ _______ _____ _____    ______ ____
ROOT
ATOM      1  C   UNL     1      26.388  17.743  37.631  0.00  0.00    +0.000 C 
ENDROOT
BRANCH   1   2
ATOM      2  O   UNL     1      27.332  17.176  38.445  0.00  0.00    +0.000 OA
BRANCH   2   6
ATOM      3  C   UNL     1      26.789  13.419  40.127  0.00  0.00    +0.000 A 
ATOM      4  C   UNL     1      25.768  14.035  39.434  0.00  0.00    +0.000 A 
ATOM      5  C   UNL     1      25.941  15.280  38.875  0.00  0.00    +0.000 A 
ATOM      6  C   UNL     1      27.136  15.939  38.992  0.00  0.00    +0.000 A 
ATOM      7  C   UNL     1      28.156  15.335  39.678  0.00  0.00    +0.000 A 
ATOM      8  C   UNL     1      27.980  14.093  40.235  0.00  0.00    +0.000 A 
BRANCH   3   9
ATOM      9  C   UNL     1      26.556  12.068  40.717  0.00  0.00    +0.000 C 
BRANCH   9  10
ATOM     10  C   UNL     1      26.782  12.471  42.342  0.00  0.00    +0.000 C 
ATOM     11  O   UNL     1      28.011  11.573  42.470  0.00  0.00    +0.000 OA
BRANCH  10  12
ATOM     12  C   UNL     1      25.715  11.396  42.875  0.00  0.00    +0.000 C 
ATOM     13  O   UNL     1      24.528  11.713  42.643  0.00  0.00    +0.000 OA
BRANCH  12  14
ATOM     14  O   UNL     1      26.050  10.279  43.501  0.00  0.00    +0.000 OA
BRANCH  14  16
ATOM     15  C   UNL     1      26.323   8.412  42.106  0.00  0.00    +0.000 C 
ATOM     16  C   UNL     1      25.406   9.059  43.131  0.00  0.00    +0.000 C 
ENDBRANCH  14  16
ENDBRANCH  12  14
ENDBRANCH  10  12
ENDBRANCH   9  10
ENDBRANCH   3   9
ENDBRANCH   2   6
ENDBRANCH   1   2
BRANCH   1  17
ATOM     17  C   UNL     1      26.580  17.438  36.161  0.00  0.00    +0.000 C 
BRANCH  17  18
ATOM     18  C   UNL     1      25.228  17.826  35.438  0.00  0.00    +0.000 C 
ATOM     19  S   UNL     1      25.967  19.348  34.556  0.00  0.00    +0.000 S 
ATOM     20  C   UNL     1      24.618  19.896  33.506  0.00  0.00    +0.000 A 
ATOM     21  C   UNL     1      24.249  21.205  33.732  0.00  0.00    +0.000 A 
ATOM     22  C   UNL     1      23.204  21.710  32.957  0.00  0.00    +0.000 A 
ATOM     23  C   UNL     1      22.603  20.888  32.023  0.00  0.00    +0.000 A 
ATOM     24  C   UNL     1      22.989  19.583  31.816  0.00  0.00    +0.000 A 
ATOM     25  C   UNL     1      24.022  19.077  32.576  0.00  0.00    +0.000 A 
ATOM     26  O   UNL     1      24.353  17.781  32.320  0.00  0.00    +0.000 OA
ATOM     27  C   UNL     1      24.871  16.743  33.057  0.00  0.00    +0.000 A 
ATOM     28  C   UNL     1      25.009  15.560  32.357  0.00  0.00    +0.000 A 
ATOM     29  C   UNL     1      25.509  14.409  32.927  0.00  0.00    +0.000 A 
ATOM     30  C   UNL     1      25.899  14.404  34.249  0.00  0.00    +0.000 A 
ATOM     31  C   UNL     1      25.761  15.583  34.944  0.00  0.00    +0.000 A 
ATOM     32  C   UNL     1      25.250  16.742  34.344  0.00  0.00    +0.000 A 
ENDBRANCH  17  18
ENDBRANCH   1  17
TORSDOF 9
ENDMDL
MODEL 8
REMARK VINA RESULT:      -6.8      1.741      3.391
REMARK  Name = 
REMARK  9 active torsions:
REMARK  status: ('A' for Active; 'I' for Inactive)
REMARK    1  A    between atoms: C_2  and  O_3
REMARK    2  A    between atoms: O_3  and  C_4
REMARK    3  A    between atoms: C_4  and  C_6
REMARK    4  A    between atoms: C_6  and  C_8
REMARK    5  A    between atoms: C_8  and  C_9
REMARK    6  A    between atoms: C_12  and  O_13
REMARK    7  A    between atoms: O_13  and  C_14
REMARK    8  A    between atoms: C_14  and  C_15
REMARK    9  A    between atoms: C_15  and  C_16
REMARK                            x       y       z     vdW  Elec       q    Type
REMARK                         _______ _______ _______ _____ _____    ______ ____
ROOT
ATOM      1  C   UNL     1      37.198   3.010  13.692  0.00  0.00    +0.000 C 
ENDROOT
BRANCH   1   2
ATOM      2  O   UNL     1      38.251   3.861  13.895  0.00  0.00    +0.000 OA
BRANCH   2   6
ATOM      3  C   UNL     1      39.192   5.310  17.669  0.00  0.00    +0.000 A 
ATOM      4  C   UNL     1      38.067   4.537  17.472  0.00  0.00    +0.000 A 
ATOM      5  C   UNL     1      37.749   4.054  16.224  0.00  0.00    +0.000 A 
ATOM      6  C   UNL     1      38.546   4.330  15.144  0.00  0.00    +0.000 A 
ATOM      7  C   UNL     1      39.665   5.096  15.330  0.00  0.00    +0.000 A 
ATOM      8  C   UNL     1      39.979   5.577  16.578  0.00  0.00    +0.000 A 
BRANCH   3   9
ATOM      9  C   UNL     1      39.497   5.812  19.041  0.00  0.00    +0.000 C 
BRANCH   9  10
ATOM     10  C   UNL     1      40.840   6.764  18.659  0.00  0.00    +0.000 C 
ATOM     11  O   UNL     1      41.520   6.472  19.995  0.00  0.00    +0.000 OA
BRANCH  10  12
ATOM     12  C   UNL     1      40.139   8.136  19.108  0.00  0.00    +0.000 C 
ATOM     13  O   UNL     1      39.933   8.925  18.160  0.00  0.00    +0.000 OA
BRANCH  12  14
ATOM     14  O   UNL     1      39.807   8.415  20.358  0.00  0.00    +0.000 OA
BRANCH  14  16
ATOM     15  C   UNL     1      38.644  10.275  21.193  0.00  0.00    +0.000 C 
ATOM     16  C   UNL     1      38.482   8.870  20.638  0.00  0.00    +0.000 C 
ENDBRANCH  14  16
ENDBRANCH  12  14
ENDBRANCH  10  12
ENDBRANCH   9  10
ENDBRANCH   3   9
ENDBRANCH   2   6
ENDBRANCH   1   2
BRANCH   1  17
ATOM     17  C   UNL     1      37.609   1.597  13.337  0.00  0.00    +0.000 C 
BRANCH  17  18
ATOM     18  C   UNL     1      38.022   0.893  14.692  0.00  0.00    +0.000 C 
ATOM     19  S   UNL     1      36.235   0.787  15.351  0.00  0.00    +0.000 S 
ATOM     20  C   UNL     1      36.423  -0.152  16.869  0.00  0.00    +0.000 A 
ATOM     21  C   UNL     1      35.943   0.507  17.981  0.00  0.00    +0.000 A 
ATOM     22  C   UNL     1      36.054  -0.154  19.205  0.00  0.00    +0.000 A 
ATOM     23  C   UNL     1      36.628  -1.410  19.239  0.00  0.00    +0.000 A 
ATOM     24  C   UNL     1      37.099  -2.049  18.114  0.00  0.00    +0.000 A 
ATOM     25  C   UNL     1      36.993  -1.403  16.901  0.00  0.00    +0.000 A 
ATOM     26  O   UNL     1      37.479  -2.091  15.831  0.00  0.00    +0.000 OA
ATOM     27  C   UNL     1      38.048  -1.747  14.628  0.00  0.00    +0.000 A 
ATOM     28  C   UNL     1      38.430  -2.822  13.850  0.00  0.00    +0.000 A 
ATOM     29  C   UNL     1      39.019  -2.677  12.612  0.00  0.00    +0.000 A 
ATOM     30  C   UNL     1      39.251  -1.419  12.100  0.00  0.00    +0.000 A 
ATOM     31  C   UNL     1      38.871  -0.350  12.876  0.00  0.00    +0.000 A 
ATOM     32  C   UNL     1      38.273  -0.521  14.132  0.00  0.00    +0.000 A 
ENDBRANCH  17  18
ENDBRANCH   1  17
TORSDOF 9
ENDMDL
MODEL 9
REMARK VINA RESULT:      -6.7      2.352      3.679
REMARK  Name = 
REMARK  9 active torsions:
REMARK  status: ('A' for Active; 'I' for Inactive)
REMARK    1  A    between atoms: C_2  and  O_3
REMARK    2  A    between atoms: O_3  and  C_4
REMARK    3  A    between atoms: C_4  and  C_6
REMARK    4  A    between atoms: C_6  and  C_8
REMARK    5  A    between atoms: C_8  and  C_9
REMARK    6  A    between atoms: C_12  and  O_13
REMARK    7  A    between atoms: O_13  and  C_14
REMARK    8  A    between atoms: C_14  and  C_15
REMARK    9  A    between atoms: C_15  and  C_16
REMARK                            x       y       z     vdW  Elec       q    Type
REMARK                         _______ _______ _______ _____ _____    ______ ____
ROOT
ATOM      1  C   UNL     1      36.050   1.502  15.609  0.00  0.00    +0.000 C 
ENDROOT
BRANCH   1   2
ATOM      2  O   UNL     1      36.806   2.421  14.931  0.00  0.00    +0.000 OA
BRANCH   2   6
ATOM      3  C   UNL     1      39.193   5.173  16.920  0.00  0.00    +0.000 A 
ATOM      4  C   UNL     1      38.115   4.589  17.552  0.00  0.00    +0.000 A 
ATOM      5  C   UNL     1      37.320   3.677  16.899  0.00  0.00    +0.000 A 
ATOM      6  C   UNL     1      37.580   3.325  15.601  0.00  0.00    +0.000 A 
ATOM      7  C   UNL     1      38.649   3.900  14.965  0.00  0.00    +0.000 A 
ATOM      8  C   UNL     1      39.441   4.810  15.620  0.00  0.00    +0.000 A 
BRANCH   3   9
ATOM      9  C   UNL     1      40.028   6.158  17.669  0.00  0.00    +0.000 C 
BRANCH   9  10
ATOM     10  C   UNL     1      38.865   6.663  18.785  0.00  0.00    +0.000 C 
ATOM     11  O   UNL     1      38.959   8.120  18.335  0.00  0.00    +0.000 OA
BRANCH  10  12
ATOM     12  C   UNL     1      39.912   6.779  19.997  0.00  0.00    +0.000 C 
ATOM     13  O   UNL     1      39.572   7.605  20.872  0.00  0.00    +0.000 OA
BRANCH  12  14
ATOM     14  O   UNL     1      41.028   6.073  20.071  0.00  0.00    +0.000 OA
BRANCH  14  16
ATOM     15  C   UNL     1      43.186   6.835  19.551  0.00  0.00    +0.000 C 
ATOM     16  C   UNL     1      42.180   6.661  20.677  0.00  0.00    +0.000 C 
ENDBRANCH  14  16
ENDBRANCH  12  14
ENDBRANCH  10  12
ENDBRANCH   9  10
ENDBRANCH   3   9
ENDBRANCH   2   6
ENDBRANCH   1   2
BRANCH   1  17
ATOM     17  C   UNL     1      36.720   0.154  15.769  0.00  0.00    +0.000 C 
BRANCH  17  18
ATOM     18  C   UNL     1      37.053  -0.361  14.311  0.00  0.00    +0.000 C 
ATOM     19  S   UNL     1      38.942  -0.234  14.540  0.00  0.00    +0.000 S 
ATOM     20  C   UNL     1      39.578  -0.939  13.017  0.00  0.00    +0.000 A 
ATOM     21  C   UNL     1      40.409  -0.084  12.326  0.00  0.00    +0.000 A 
ATOM     22  C   UNL     1      40.945  -0.555  11.126  0.00  0.00    +0.000 A 
ATOM     23  C   UNL     1      40.622  -1.829  10.701  0.00  0.00    +0.000 A 
ATOM     24  C   UNL     1      39.789  -2.666  11.410  0.00  0.00    +0.000 A 
ATOM     25  C   UNL     1      39.256  -2.208  12.596  0.00  0.00    +0.000 A 
ATOM     26  O   UNL     1      38.442  -3.086  13.245  0.00  0.00    +0.000 OA
ATOM     27  C   UNL     1      37.356  -2.974  14.080  0.00  0.00    +0.000 A 
ATOM     28  C   UNL     1      36.816  -4.181  14.479  0.00  0.00    +0.000 A 
ATOM     29  C   UNL     1      35.724  -4.272  15.314  0.00  0.00    +0.000 A 
ATOM     30  C   UNL     1      35.121  -3.128  15.791  0.00  0.00    +0.000 A 
ATOM     31  C   UNL     1      35.659  -1.927  15.393  0.00  0.00    +0.000 A 
ATOM     32  C   UNL     1      36.771  -1.858  14.542  0.00  0.00    +0.000 A 
ENDBRANCH  17  18
ENDBRANCH   1  17
TORSDOF 9
ENDMDL
MODEL 10
REMARK VINA RESULT:      -6.7      4.789      7.482
REMARK  Name = 
REMARK  9 active torsions:
REMARK  status: ('A' for Active; 'I' for Inactive)
REMARK    1  A    between atoms: C_2  and  O_3
REMARK    2  A    between atoms: O_3  and  C_4
REMARK    3  A    between atoms: C_4  and  C_6
REMARK    4  A    between atoms: C_6  and  C_8
REMARK    5  A    between atoms: C_8  and  C_9
REMARK    6  A    between atoms: C_12  and  O_13
REMARK    7  A    between atoms: O_13  and  C_14
REMARK    8  A    between atoms: C_14  and  C_15
REMARK    9  A    between atoms: C_15  and  C_16
REMARK                            x       y       z     vdW  Elec       q    Type
REMARK                         _______ _______ _______ _____ _____    ______ ____
ROOT
ATOM      1  C   UNL     1      36.120   3.104  14.660  0.00  0.00    +0.000 C 
ENDROOT
BRANCH   1   2
ATOM      2  O   UNL     1      35.747   4.396  14.920  0.00  0.00    +0.000 OA
BRANCH   2   6
ATOM      3  C   UNL     1      34.524   6.889  11.834  0.00  0.00    +0.000 A 
ATOM      4  C   UNL     1      33.855   6.881  13.041  0.00  0.00    +0.000 A 
ATOM      5  C   UNL     1      34.255   6.057  14.067  0.00  0.00    +0.000 A 
ATOM      6  C   UNL     1      35.331   5.222  13.915  0.00  0.00    +0.000 A 
ATOM      7  C   UNL     1      36.001   5.224  12.721  0.00  0.00    +0.000 A 
ATOM      8  C   UNL     1      35.599   6.047  11.698  0.00  0.00    +0.000 A 
BRANCH   3   9
ATOM      9  C   UNL     1      34.054   7.799  10.749  0.00  0.00    +0.000 C 
BRANCH   9  10
ATOM     10  C   UNL     1      35.208   7.401   9.581  0.00  0.00    +0.000 C 
ATOM     11  O   UNL     1      35.699   8.843   9.468  0.00  0.00    +0.000 OA
BRANCH  10  12
ATOM     12  C   UNL     1      34.166   7.468   8.362  0.00  0.00    +0.000 C 
ATOM     13  O   UNL     1      33.066   6.931   8.616  0.00  0.00    +0.000 OA
BRANCH  12  14
ATOM     14  O   UNL     1      34.434   8.037   7.198  0.00  0.00    +0.000 OA
BRANCH  14  16
ATOM     15  C   UNL     1      33.676   7.172   5.153  0.00  0.00    +0.000 C 
ATOM     16  C   UNL     1      33.384   8.190   6.243  0.00  0.00    +0.000 C 
ENDBRANCH  14  16
ENDBRANCH  12  14
ENDBRANCH  10  12
ENDBRANCH   9  10
ENDBRANCH   3   9
ENDBRANCH   2   6
ENDBRANCH   1   2
BRANCH   1  17
ATOM     17  C   UNL     1      35.659   2.110  15.705  0.00  0.00    +0.000 C 
BRANCH  17  18
ATOM     18  C   UNL     1      35.976   0.671  15.130  0.00  0.00    +0.000 C 
ATOM     19  S   UNL     1      37.687   1.163  14.443  0.00  0.00    +0.000 S 
ATOM     20  C   UNL     1      38.346  -0.400  13.855  0.00  0.00    +0.000 A 
ATOM     21  C   UNL     1      38.693  -0.377  12.521  0.00  0.00    +0.000 A 
ATOM     22  C   UNL     1      39.213  -1.555  11.982  0.00  0.00    +0.000 A 
ATOM     23  C   UNL     1      39.349  -2.662  12.797  0.00  0.00    +0.000 A 
ATOM     24  C   UNL     1      38.995  -2.661  14.128  0.00  0.00    +0.000 A 
ATOM     25  C   UNL     1      38.482  -1.500  14.667  0.00  0.00    +0.000 A 
ATOM     26  O   UNL     1      38.153  -1.569  15.988  0.00  0.00    +0.000 OA
ATOM     27  C   UNL     1      37.222  -0.958  16.793  0.00  0.00    +0.000 A 
ATOM     28  C   UNL     1      37.239  -1.382  18.107  0.00  0.00    +0.000 A 
ATOM     29  C   UNL     1      36.379  -0.887  19.063  0.00  0.00    +0.000 A 
ATOM     30  C   UNL     1      35.450   0.074  18.727  0.00  0.00    +0.000 A 
ATOM     31  C   UNL     1      35.434   0.495  17.419  0.00  0.00    +0.000 A 
ATOM     32  C   UNL     1      36.319  -0.023  16.462  0.00  0.00    +0.000 A 
ENDBRANCH  17  18
ENDBRANCH   1  17
TORSDOF 9
ENDMDL
