MODEL 1
REMARK VINA RESULT:      -8.0      0.000      0.000
REMARK  Name = 
REMARK  6 active torsions:
REMARK  status: ('A' for Active; 'I' for Inactive)
REMARK    1  A    between atoms: O_2  and  C_3
REMARK    2  A    between atoms: C_6  and  O_7
REMARK    3  A    between atoms: C_9  and  C_10
REMARK    4  A    between atoms: C_20  and  O_21
REMARK    5  A    between atoms: O_21  and  C_22
REMARK    6  A    between atoms: C_22  and  C_23
REMARK                            x       y       z     vdW  Elec       q    Type
REMARK                         _______ _______ _______ _____ _____    ______ ____
ROOT
ATOM      1  C   UNL     1      38.447  -0.645  12.636  0.00  0.00    +0.000 C 
ATOM      2  N   UNL     1      39.898  -0.194  12.193  0.00  0.00    +0.000 NA
ATOM      3  C   UNL     1      40.733   0.129  13.216  0.00  0.00    +0.000 C 
ATOM      4  C   UNL     1      40.179   0.739  14.470  0.00  0.00    +0.000 C 
ATOM      5  C   UNL     1      38.912   1.371  14.112  0.00  0.00    +0.000 A 
ATOM      6  C   UNL     1      38.056   0.794  13.269  0.00  0.00    +0.000 A 
ATOM      7  N   UNL     1      36.965   1.498  13.056  0.00  0.00    +0.000 NA
ATOM      8  C   UNL     1      37.116   2.620  13.814  0.00  0.00    +0.000 A 
ATOM      9  C   UNL     1      36.331   3.736  14.025  0.00  0.00    +0.000 A 
ATOM     10  C   UNL     1      36.737   4.749  14.867  0.00  0.00    +0.000 A 
ATOM     11  C   UNL     1      37.929   4.709  15.536  0.00  0.00    +0.000 A 
ATOM     12  C   UNL     1      38.737   3.586  15.334  0.00  0.00    +0.000 A 
ATOM     13  C   UNL     1      38.320   2.580  14.490  0.00  0.00    +0.000 A 
ENDROOT
BRANCH   1  18
ATOM     14  C   UNL     1      38.523  -1.536  16.363  0.00  0.00    +0.000 A 
ATOM     15  C   UNL     1      39.402  -2.597  16.377  0.00  0.00    +0.000 A 
ATOM     16  C   UNL     1      39.977  -3.037  15.190  0.00  0.00    +0.000 A 
ATOM     17  C   UNL     1      39.663  -2.408  14.000  0.00  0.00    +0.000 A 
ATOM     18  C   UNL     1      38.800  -1.370  14.008  0.00  0.00    +0.000 A 
ATOM     19  C   UNL     1      38.241  -0.941  15.155  0.00  0.00    +0.000 A 
BRANCH  14  21
ATOM     20  C   UNL     1      36.563  -0.797  17.557  0.00  0.00    +0.000 C 
ATOM     21  O   UNL     1      37.928  -1.073  17.555  0.00  0.00    +0.000 OA
ENDBRANCH  14  21
BRANCH  17  22
ATOM     22  O   UNL     1      40.252  -2.880  12.866  0.00  0.00    +0.000 OA
ATOM     23  C   UNL     1      41.548  -3.361  12.731  0.00  0.00    +0.000 C 
ENDBRANCH  17  22
ENDBRANCH   1  18
BRANCH  11  24
ATOM     24  O   UNL     1      38.307   5.736  16.370  0.00  0.00    +0.000 OA
BRANCH  24  25
ATOM     25  C   UNL     1      38.457   5.492  17.741  0.00  0.00    +0.000 C 
BRANCH  25  26
ATOM     26  C   UNL     1      39.810   5.910  18.158  0.00  0.00    +0.000 A 
ATOM     27  C   UNL     1      40.857   6.126  17.303  0.00  0.00    +0.000 A 
ATOM     28  C   UNL     1      42.063   6.514  17.838  0.00  0.00    +0.000 A 
ATOM     29  C   UNL     1      42.246   6.688  19.190  0.00  0.00    +0.000 A 
ATOM     30  C   UNL     1      41.191   6.468  20.016  0.00  0.00    +0.000 A 
ATOM     31  C   UNL     1      39.989   6.085  19.526  0.00  0.00    +0.000 A 
ENDBRANCH  25  26
ENDBRANCH  24  25
ENDBRANCH  11  24
TORSDOF 6
ENDMDL
MODEL 2
REMARK VINA RESULT:      -7.9      1.938      3.281
REMARK  Name = 
REMARK  6 active torsions:
REMARK  status: ('A' for Active; 'I' for Inactive)
REMARK    1  A    between atoms: O_2  and  C_3
REMARK    2  A    between atoms: C_6  and  O_7
REMARK    3  A    between atoms: C_9  and  C_10
REMARK    4  A    between atoms: C_20  and  O_21
REMARK    5  A    between atoms: O_21  and  C_22
REMARK    6  A    between atoms: C_22  and  C_23
REMARK                            x       y       z     vdW  Elec       q    Type
REMARK                         _______ _______ _______ _____ _____    ______ ____
ROOT
ATOM      1  C   UNL     1      36.697  -1.975  14.490  0.00  0.00    +0.000 C 
ATOM      2  N   UNL     1      38.056  -2.520  13.889  0.00  0.00    +0.000 NA
ATOM      3  C   UNL     1      39.163  -2.225  14.620  0.00  0.00    +0.000 C 
ATOM      4  C   UNL     1      39.225  -0.945  15.403  0.00  0.00    +0.000 C 
ATOM      5  C   UNL     1      38.292  -0.016  14.771  0.00  0.00    +0.000 A 
ATOM      6  C   UNL     1      37.101  -0.415  14.323  0.00  0.00    +0.000 A 
ATOM      7  N   UNL     1      36.387   0.548  13.783  0.00  0.00    +0.000 NA
ATOM      8  C   UNL     1      37.165   1.663  13.884  0.00  0.00    +0.000 A 
ATOM      9  C   UNL     1      36.990   2.980  13.510  0.00  0.00    +0.000 A 
ATOM     10  C   UNL     1      37.966   3.926  13.738  0.00  0.00    +0.000 A 
ATOM     11  C   UNL     1      39.153   3.619  14.344  0.00  0.00    +0.000 A 
ATOM     12  C   UNL     1      39.347   2.289  14.731  0.00  0.00    +0.000 A 
ATOM     13  C   UNL     1      38.363   1.353  14.497  0.00  0.00    +0.000 A 
ENDROOT
BRANCH   1  18
ATOM     14  C   UNL     1      38.208  -3.165  17.805  0.00  0.00    +0.000 A 
ATOM     15  C   UNL     1      37.597  -2.321  18.708  0.00  0.00    +0.000 A 
ATOM     16  C   UNL     1      36.696  -1.362  18.260  0.00  0.00    +0.000 A 
ATOM     17  C   UNL     1      36.418  -1.258  16.910  0.00  0.00    +0.000 A 
ATOM     18  C   UNL     1      37.026  -2.094  16.044  0.00  0.00    +0.000 A 
ATOM     19  C   UNL     1      37.899  -3.025  16.473  0.00  0.00    +0.000 A 
BRANCH  14  21
ATOM     20  C   UNL     1      38.959  -4.701  19.505  0.00  0.00    +0.000 C 
ATOM     21  O   UNL     1      39.124  -4.146  18.238  0.00  0.00    +0.000 OA
ENDBRANCH  14  21
BRANCH  17  22
ATOM     22  O   UNL     1      35.530  -0.299  16.524  0.00  0.00    +0.000 OA
ATOM     23  C   UNL     1      35.170   0.843  17.228  0.00  0.00    +0.000 C 
ENDBRANCH  17  22
ENDBRANCH   1  18
BRANCH  11  24
ATOM     24  O   UNL     1      40.108   4.585  14.559  0.00  0.00    +0.000 OA
BRANCH  24  25
ATOM     25  C   UNL     1      39.723   5.840  15.048  0.00  0.00    +0.000 C 
BRANCH  25  26
ATOM     26  C   UNL     1      39.822   5.834  16.520  0.00  0.00    +0.000 A 
ATOM     27  C   UNL     1      38.849   5.371  17.364  0.00  0.00    +0.000 A 
ATOM     28  C   UNL     1      39.081   5.428  18.718  0.00  0.00    +0.000 A 
ATOM     29  C   UNL     1      40.249   5.933  19.243  0.00  0.00    +0.000 A 
ATOM     30  C   UNL     1      41.197   6.386  18.384  0.00  0.00    +0.000 A 
ATOM     31  C   UNL     1      41.004   6.345  17.044  0.00  0.00    +0.000 A 
ENDBRANCH  25  26
ENDBRANCH  24  25
ENDBRANCH  11  24
TORSDOF 6
ENDMDL
MODEL 3
REMARK VINA RESULT:      -7.7      3.778      6.803
REMARK  Name = 
REMARK  6 active torsions:
REMARK  status: ('A' for Active; 'I' for Inactive)
REMARK    1  A    between atoms: O_2  and  C_3
REMARK    2  A    between atoms: C_6  and  O_7
REMARK    3  A    between atoms: C_9  and  C_10
REMARK    4  A    between atoms: C_20  and  O_21
REMARK    5  A    between atoms: O_21  and  C_22
REMARK    6  A    between atoms: C_22  and  C_23
REMARK                            x       y       z     vdW  Elec       q    Type
REMARK                         _______ _______ _______ _____ _____    ______ ____
ROOT
ATOM      1  C   UNL     1      36.310  -2.765  15.001  0.00  0.00    +0.000 C 
ATOM      2  N   UNL     1      36.822  -3.563  16.269  0.00  0.00    +0.000 NA
ATOM      3  C   UNL     1      37.607  -2.847  17.117  0.00  0.00    +0.000 C 
ATOM      4  C   UNL     1      38.502  -1.770  16.578  0.00  0.00    +0.000 C 
ATOM      5  C   UNL     1      38.754  -2.088  15.175  0.00  0.00    +0.000 A 
ATOM      6  C   UNL     1      37.791  -2.553  14.380  0.00  0.00    +0.000 A 
ATOM      7  N   UNL     1      38.188  -2.788  13.148  0.00  0.00    +0.000 NA
ATOM      8  C   UNL     1      39.509  -2.452  13.132  0.00  0.00    +0.000 A 
ATOM      9  C   UNL     1      40.481  -2.468  12.154  0.00  0.00    +0.000 A 
ATOM     10  C   UNL     1      41.773  -2.063  12.418  0.00  0.00    +0.000 A 
ATOM     11  C   UNL     1      42.161  -1.626  13.654  0.00  0.00    +0.000 A 
ATOM     12  C   UNL     1      41.189  -1.603  14.658  0.00  0.00    +0.000 A 
ATOM     13  C   UNL     1      39.901  -2.009  14.381  0.00  0.00    +0.000 A 
ENDROOT
BRANCH   1  18
ATOM     14  C   UNL     1      36.860   0.954  15.749  0.00  0.00    +0.000 A 
ATOM     15  C   UNL     1      35.926   1.180  16.737  0.00  0.00    +0.000 A 
ATOM     16  C   UNL     1      35.110   0.140  17.170  0.00  0.00    +0.000 A 
ATOM     17  C   UNL     1      35.240  -1.115  16.607  0.00  0.00    +0.000 A 
ATOM     18  C   UNL     1      36.161  -1.315  15.642  0.00  0.00    +0.000 A 
ATOM     19  C   UNL     1      36.952  -0.312  15.219  0.00  0.00    +0.000 A 
BRANCH  14  21
ATOM     20  C   UNL     1      38.835   1.661  14.561  0.00  0.00    +0.000 C 
ATOM     21  O   UNL     1      37.698   1.993  15.294  0.00  0.00    +0.000 OA
ENDBRANCH  14  21
BRANCH  17  22
ATOM     22  O   UNL     1      34.414  -2.098  17.067  0.00  0.00    +0.000 OA
ATOM     23  C   UNL     1      33.076  -1.972  17.419  0.00  0.00    +0.000 C 
ENDBRANCH  17  22
ENDBRANCH   1  18
BRANCH  11  24
ATOM     24  O   UNL     1      43.457  -1.228  13.888  0.00  0.00    +0.000 OA
BRANCH  24  25
ATOM     25  C   UNL     1      44.426  -2.189  14.206  0.00  0.00    +0.000 C 
BRANCH  25  26
ATOM     26  C   UNL     1      45.051  -1.833  15.495  0.00  0.00    +0.000 A 
ATOM     27  C   UNL     1      45.666  -2.723  16.334  0.00  0.00    +0.000 A 
ATOM     28  C   UNL     1      46.205  -2.246  17.506  0.00  0.00    +0.000 A 
ATOM     29  C   UNL     1      46.145  -0.916  17.855  0.00  0.00    +0.000 A 
ATOM     30  C   UNL     1      45.529  -0.055  17.005  0.00  0.00    +0.000 A 
ATOM     31  C   UNL     1      44.987  -0.488  15.842  0.00  0.00    +0.000 A 
ENDBRANCH  25  26
ENDBRANCH  24  25
ENDBRANCH  11  24
TORSDOF 6
ENDMDL
MODEL 4
REMARK VINA RESULT:      -7.7      2.168      3.353
REMARK  Name = 
REMARK  6 active torsions:
REMARK  status: ('A' for Active; 'I' for Inactive)
REMARK    1  A    between atoms: O_2  and  C_3
REMARK    2  A    between atoms: C_6  and  O_7
REMARK    3  A    between atoms: C_9  and  C_10
REMARK    4  A    between atoms: C_20  and  O_21
REMARK    5  A    between atoms: O_21  and  C_22
REMARK    6  A    between atoms: C_22  and  C_23
REMARK                            x       y       z     vdW  Elec       q    Type
REMARK                         _______ _______ _______ _____ _____    ______ ____
ROOT
ATOM      1  C   UNL     1      37.034  -2.156  13.878  0.00  0.00    +0.000 C 
ATOM      2  N   UNL     1      38.371  -2.734  14.499  0.00  0.00    +0.000 NA
ATOM      3  C   UNL     1      38.763  -2.144  15.659  0.00  0.00    +0.000 C 
ATOM      4  C   UNL     1      38.470  -0.691  15.897  0.00  0.00    +0.000 C 
ATOM      5  C   UNL     1      38.305  -0.071  14.585  0.00  0.00    +0.000 A 
ATOM      6  C   UNL     1      37.652  -0.685  13.598  0.00  0.00    +0.000 A 
ATOM      7  N   UNL     1      37.596   0.013  12.484  0.00  0.00    +0.000 NA
ATOM      8  C   UNL     1      38.259   1.172  12.760  0.00  0.00    +0.000 A 
ATOM      9  C   UNL     1      38.546   2.301  12.021  0.00  0.00    +0.000 A 
ATOM     10  C   UNL     1      39.253   3.353  12.562  0.00  0.00    +0.000 A 
ATOM     11  C   UNL     1      39.707   3.340  13.852  0.00  0.00    +0.000 A 
ATOM     12  C   UNL     1      39.426   2.203  14.617  0.00  0.00    +0.000 A 
ATOM     13  C   UNL     1      38.718   1.158  14.063  0.00  0.00    +0.000 A 
ENDROOT
BRANCH   1  18
ATOM     14  C   UNL     1      35.212  -0.150  16.589  0.00  0.00    +0.000 A 
ATOM     15  C   UNL     1      34.926  -1.131  17.515  0.00  0.00    +0.000 A 
ATOM     16  C   UNL     1      35.315  -2.444  17.276  0.00  0.00    +0.000 A 
ATOM     17  C   UNL     1      35.986  -2.761  16.110  0.00  0.00    +0.000 A 
ATOM     18  C   UNL     1      36.256  -1.787  15.217  0.00  0.00    +0.000 A 
ATOM     19  C   UNL     1      35.881  -0.513  15.444  0.00  0.00    +0.000 A 
BRANCH  14  21
ATOM     20  C   UNL     1      35.684   2.206  16.397  0.00  0.00    +0.000 C 
ATOM     21  O   UNL     1      34.827   1.188  16.810  0.00  0.00    +0.000 OA
ENDBRANCH  14  21
BRANCH  17  22
ATOM     22  O   UNL     1      36.342  -4.064  15.925  0.00  0.00    +0.000 OA
ATOM     23  C   UNL     1      35.492  -5.149  15.751  0.00  0.00    +0.000 C 
ENDBRANCH  17  22
ENDBRANCH   1  18
BRANCH  11  24
ATOM     24  O   UNL     1      40.411   4.405  14.365  0.00  0.00    +0.000 OA
BRANCH  24  25
ATOM     25  C   UNL     1      39.720   5.544  14.796  0.00  0.00    +0.000 C 
BRANCH  25  26
ATOM     26  C   UNL     1      39.708   5.570  16.271  0.00  0.00    +0.000 A 
ATOM     27  C   UNL     1      38.761   4.966  17.053  0.00  0.00    +0.000 A 
ATOM     28  C   UNL     1      38.879   5.074  18.419  0.00  0.00    +0.000 A 
ATOM     29  C   UNL     1      39.908   5.766  19.016  0.00  0.00    +0.000 A 
ATOM     30  C   UNL     1      40.834   6.356  18.217  0.00  0.00    +0.000 A 
ATOM     31  C   UNL     1      40.751   6.270  16.869  0.00  0.00    +0.000 A 
ENDBRANCH  25  26
ENDBRANCH  24  25
ENDBRANCH  11  24
TORSDOF 6
ENDMDL
MODEL 5
REMARK VINA RESULT:      -7.5      4.126      6.513
REMARK  Name = 
REMARK  6 active torsions:
REMARK  status: ('A' for Active; 'I' for Inactive)
REMARK    1  A    between atoms: O_2  and  C_3
REMARK    2  A    between atoms: C_6  and  O_7
REMARK    3  A    between atoms: C_9  and  C_10
REMARK    4  A    between atoms: C_20  and  O_21
REMARK    5  A    between atoms: O_21  and  C_22
REMARK    6  A    between atoms: C_22  and  C_23
REMARK                            x       y       z     vdW  Elec       q    Type
REMARK                         _______ _______ _______ _____ _____    ______ ____
ROOT
ATOM      1  C   UNL     1      36.767  -2.783  14.588  0.00  0.00    +0.000 C 
ATOM      2  N   UNL     1      37.186  -3.411  15.979  0.00  0.00    +0.000 NA
ATOM      3  C   UNL     1      37.908  -2.586  16.784  0.00  0.00    +0.000 C 
ATOM      4  C   UNL     1      38.840  -1.578  16.179  0.00  0.00    +0.000 C 
ATOM      5  C   UNL     1      39.192  -2.068  14.849  0.00  0.00    +0.000 A 
ATOM      6  C   UNL     1      38.288  -2.638  14.051  0.00  0.00    +0.000 A 
ATOM      7  N   UNL     1      38.772  -3.023  12.890  0.00  0.00    +0.000 NA
ATOM      8  C   UNL     1      40.091  -2.680  12.927  0.00  0.00    +0.000 A 
ATOM      9  C   UNL     1      41.131  -2.811  12.030  0.00  0.00    +0.000 A 
ATOM     10  C   UNL     1      42.400  -2.365  12.332  0.00  0.00    +0.000 A 
ATOM     11  C   UNL     1      42.699  -1.771  13.527  0.00  0.00    +0.000 A 
ATOM     12  C   UNL     1      41.657  -1.630  14.449  0.00  0.00    +0.000 A 
ATOM     13  C   UNL     1      40.393  -2.080  14.134  0.00  0.00    +0.000 A 
ENDROOT
BRANCH   1  18
ATOM     14  C   UNL     1      36.019   0.319  16.711  0.00  0.00    +0.000 A 
ATOM     15  C   UNL     1      36.224   1.335  15.801  0.00  0.00    +0.000 A 
ATOM     16  C   UNL     1      36.605   1.031  14.499  0.00  0.00    +0.000 A 
ATOM     17  C   UNL     1      36.778  -0.287  14.123  0.00  0.00    +0.000 A 
ATOM     18  C   UNL     1      36.572  -1.266  15.028  0.00  0.00    +0.000 A 
ATOM     19  C   UNL     1      36.203  -0.977  16.291  0.00  0.00    +0.000 A 
BRANCH  14  21
ATOM     20  C   UNL     1      35.819  -0.375  19.011  0.00  0.00    +0.000 C 
ATOM     21  O   UNL     1      35.631   0.603  18.037  0.00  0.00    +0.000 OA
ENDBRANCH  14  21
BRANCH  17  22
ATOM     22  O   UNL     1      37.155  -0.528  12.835  0.00  0.00    +0.000 OA
ATOM     23  C   UNL     1      37.739   0.369  11.951  0.00  0.00    +0.000 C 
ENDBRANCH  17  22
ENDBRANCH   1  18
BRANCH  11  24
ATOM     24  O   UNL     1      43.976  -1.336  13.801  0.00  0.00    +0.000 OA
BRANCH  24  25
ATOM     25  C   UNL     1      44.896  -2.219  14.381  0.00  0.00    +0.000 C 
BRANCH  25  26
ATOM     26  C   UNL     1      45.300  -1.693  15.699  0.00  0.00    +0.000 A 
ATOM     27  C   UNL     1      45.171  -0.388  16.091  0.00  0.00    +0.000 A 
ATOM     28  C   UNL     1      45.593  -0.043  17.353  0.00  0.00    +0.000 A 
ATOM     29  C   UNL     1      46.136  -0.960  18.224  0.00  0.00    +0.000 A 
ATOM     30  C   UNL     1      46.253  -2.247  17.810  0.00  0.00    +0.000 A 
ATOM     31  C   UNL     1      45.849  -2.625  16.575  0.00  0.00    +0.000 A 
ENDBRANCH  25  26
ENDBRANCH  24  25
ENDBRANCH  11  24
TORSDOF 6
ENDMDL
MODEL 6
REMARK VINA RESULT:      -7.4      1.913      2.577
REMARK  Name = 
REMARK  6 active torsions:
REMARK  status: ('A' for Active; 'I' for Inactive)
REMARK    1  A    between atoms: O_2  and  C_3
REMARK    2  A    between atoms: C_6  and  O_7
REMARK    3  A    between atoms: C_9  and  C_10
REMARK    4  A    between atoms: C_20  and  O_21
REMARK    5  A    between atoms: O_21  and  C_22
REMARK    6  A    between atoms: C_22  and  C_23
REMARK                            x       y       z     vdW  Elec       q    Type
REMARK                         _______ _______ _______ _____ _____    ______ ____
ROOT
ATOM      1  C   UNL     1      37.372  -0.097  12.676  0.00  0.00    +0.000 C 
ATOM      2  N   UNL     1      38.830  -0.623  12.997  0.00  0.00    +0.000 NA
ATOM      3  C   UNL     1      39.247  -0.410  14.273  0.00  0.00    +0.000 C 
ATOM      4  C   UNL     1      38.778   0.804  15.021  0.00  0.00    +0.000 C 
ATOM      5  C   UNL     1      38.400   1.799  14.021  0.00  0.00    +0.000 A 
ATOM      6  C   UNL     1      37.747   1.462  12.909  0.00  0.00    +0.000 A 
ATOM      7  N   UNL     1      37.486   2.480  12.118  0.00  0.00    +0.000 NA
ATOM      8  C   UNL     1      38.004   3.566  12.758  0.00  0.00    +0.000 A 
ATOM      9  C   UNL     1      38.056   4.911  12.454  0.00  0.00    +0.000 A 
ATOM     10  C   UNL     1      38.657   5.816  13.303  0.00  0.00    +0.000 A 
ATOM     11  C   UNL     1      39.232   5.437  14.484  0.00  0.00    +0.000 A 
ATOM     12  C   UNL     1      39.189   4.077  14.808  0.00  0.00    +0.000 A 
ATOM     13  C   UNL     1      38.584   3.183  13.951  0.00  0.00    +0.000 A 
ENDROOT
BRANCH   1  18
ATOM     14  C   UNL     1      35.557   0.527  15.994  0.00  0.00    +0.000 A 
ATOM     15  C   UNL     1      35.505  -0.744  16.526  0.00  0.00    +0.000 A 
ATOM     16  C   UNL     1      36.051  -1.812  15.823  0.00  0.00    +0.000 A 
ATOM     17  C   UNL     1      36.643  -1.594  14.593  0.00  0.00    +0.000 A 
ATOM     18  C   UNL     1      36.683  -0.343  14.091  0.00  0.00    +0.000 A 
ATOM     19  C   UNL     1      36.156   0.694  14.768  0.00  0.00    +0.000 A 
BRANCH  14  21
ATOM     20  C   UNL     1      35.245   2.908  16.202  0.00  0.00    +0.000 C 
ATOM     21  O   UNL     1      35.009   1.625  16.690  0.00  0.00    +0.000 OA
ENDBRANCH  14  21
BRANCH  17  22
ATOM     22  O   UNL     1      37.160  -2.676  13.945  0.00  0.00    +0.000 OA
ATOM     23  C   UNL     1      37.050  -4.009  14.319  0.00  0.00    +0.000 C 
ENDBRANCH  17  22
ENDBRANCH   1  18
BRANCH  11  24
ATOM     24  O   UNL     1      39.826   6.362  15.311  0.00  0.00    +0.000 OA
BRANCH  24  25
ATOM     25  C   UNL     1      41.074   6.079  15.880  0.00  0.00    +0.000 C 
BRANCH  25  26
ATOM     26  C   UNL     1      40.975   6.212  17.346  0.00  0.00    +0.000 A 
ATOM     27  C   UNL     1      42.024   6.510  18.174  0.00  0.00    +0.000 A 
ATOM     28  C   UNL     1      41.782   6.603  19.524  0.00  0.00    +0.000 A 
ATOM     29  C   UNL     1      40.531   6.405  20.062  0.00  0.00    +0.000 A 
ATOM     30  C   UNL     1      39.508   6.111  19.219  0.00  0.00    +0.000 A 
ATOM     31  C   UNL     1      39.708   6.012  17.884  0.00  0.00    +0.000 A 
ENDBRANCH  25  26
ENDBRANCH  24  25
ENDBRANCH  11  24
TORSDOF 6
ENDMDL
MODEL 7
REMARK VINA RESULT:      -7.4      3.707      8.775
REMARK  Name = 
REMARK  6 active torsions:
REMARK  status: ('A' for Active; 'I' for Inactive)
REMARK    1  A    between atoms: O_2  and  C_3
REMARK    2  A    between atoms: C_6  and  O_7
REMARK    3  A    between atoms: C_9  and  C_10
REMARK    4  A    between atoms: C_20  and  O_21
REMARK    5  A    between atoms: O_21  and  C_22
REMARK    6  A    between atoms: C_22  and  C_23
REMARK                            x       y       z     vdW  Elec       q    Type
REMARK                         _______ _______ _______ _____ _____    ______ ____
ROOT
ATOM      1  C   UNL     1      39.936   8.867  18.234  0.00  0.00    +0.000 C 
ATOM      2  N   UNL     1      39.141   8.744  19.597  0.00  0.00    +0.000 NA
ATOM      3  C   UNL     1      39.371   7.598  20.291  0.00  0.00    +0.000 C 
ATOM      4  C   UNL     1      39.670   6.324  19.556  0.00  0.00    +0.000 C 
ATOM      5  C   UNL     1      39.106   6.465  18.216  0.00  0.00    +0.000 A 
ATOM      6  C   UNL     1      39.188   7.610  17.538  0.00  0.00    +0.000 A 
ATOM      7  N   UNL     1      38.628   7.564  16.349  0.00  0.00    +0.000 NA
ATOM      8  C   UNL     1      38.143   6.295  16.236  0.00  0.00    +0.000 A 
ATOM      9  C   UNL     1      37.460   5.624  15.242  0.00  0.00    +0.000 A 
ATOM     10  C   UNL     1      37.079   4.308  15.395  0.00  0.00    +0.000 A 
ATOM     11  C   UNL     1      37.354   3.596  16.530  0.00  0.00    +0.000 A 
ATOM     12  C   UNL     1      38.046   4.260  17.548  0.00  0.00    +0.000 A 
ATOM     13  C   UNL     1      38.421   5.576  17.382  0.00  0.00    +0.000 A 
ENDROOT
BRANCH   1  18
ATOM     14  C   UNL     1      42.826   7.439  20.307  0.00  0.00    +0.000 A 
ATOM     15  C   UNL     1      43.569   6.795  19.341  0.00  0.00    +0.000 A 
ATOM     16  C   UNL     1      43.147   6.812  18.016  0.00  0.00    +0.000 A 
ATOM     17  C   UNL     1      41.984   7.475  17.674  0.00  0.00    +0.000 A 
ATOM     18  C   UNL     1      41.272   8.100  18.635  0.00  0.00    +0.000 A 
ATOM     19  C   UNL     1      41.676   8.086  19.919  0.00  0.00    +0.000 A 
BRANCH  14  21
ATOM     20  C   UNL     1      43.767   6.262  22.189  0.00  0.00    +0.000 C 
ATOM     21  O   UNL     1      43.235   7.435  21.656  0.00  0.00    +0.000 OA
ENDBRANCH  14  21
BRANCH  17  22
ATOM     22  O   UNL     1      41.615   7.459  16.362  0.00  0.00    +0.000 OA
ATOM     23  C   UNL     1      41.937   6.498  15.412  0.00  0.00    +0.000 C 
ENDBRANCH  17  22
ENDBRANCH   1  18
BRANCH  11  24
ATOM     24  O   UNL     1      36.962   2.284  16.654  0.00  0.00    +0.000 OA
BRANCH  24  25
ATOM     25  C   UNL     1      35.628   1.936  16.404  0.00  0.00    +0.000 C 
BRANCH  25  26
ATOM     26  C   UNL     1      35.526   0.468  16.298  0.00  0.00    +0.000 A 
ATOM     27  C   UNL     1      36.208  -0.297  15.391  0.00  0.00    +0.000 A 
ATOM     28  C   UNL     1      36.012  -1.658  15.410  0.00  0.00    +0.000 A 
ATOM     29  C   UNL     1      35.159  -2.266  16.302  0.00  0.00    +0.000 A 
ATOM     30  C   UNL     1      34.494  -1.484  17.191  0.00  0.00    +0.000 A 
ATOM     31  C   UNL     1      34.662  -0.141  17.202  0.00  0.00    +0.000 A 
ENDBRANCH  25  26
ENDBRANCH  24  25
ENDBRANCH  11  24
TORSDOF 6
ENDMDL
MODEL 8
REMARK VINA RESULT:      -7.4      1.583      2.975
REMARK  Name = 
REMARK  6 active torsions:
REMARK  status: ('A' for Active; 'I' for Inactive)
REMARK    1  A    between atoms: O_2  and  C_3
REMARK    2  A    between atoms: C_6  and  O_7
REMARK    3  A    between atoms: C_9  and  C_10
REMARK    4  A    between atoms: C_20  and  O_21
REMARK    5  A    between atoms: O_21  and  C_22
REMARK    6  A    between atoms: C_22  and  C_23
REMARK                            x       y       z     vdW  Elec       q    Type
REMARK                         _______ _______ _______ _____ _____    ______ ____
ROOT
ATOM      1  C   UNL     1      37.233  -0.341  13.310  0.00  0.00    +0.000 C 
ATOM      2  N   UNL     1      38.621  -0.244  12.554  0.00  0.00    +0.000 NA
ATOM      3  C   UNL     1      39.700  -0.062  13.362  0.00  0.00    +0.000 C 
ATOM      4  C   UNL     1      39.558   0.718  14.636  0.00  0.00    +0.000 C 
ATOM      5  C   UNL     1      38.402   1.595  14.471  0.00  0.00    +0.000 A 
ATOM      6  C   UNL     1      37.288   1.179  13.868  0.00  0.00    +0.000 A 
ATOM      7  N   UNL     1      36.346   2.094  13.804  0.00  0.00    +0.000 NA
ATOM      8  C   UNL     1      36.879   3.193  14.411  0.00  0.00    +0.000 A 
ATOM      9  C   UNL     1      36.403   4.463  14.664  0.00  0.00    +0.000 A 
ATOM     10  C   UNL     1      37.175   5.403  15.312  0.00  0.00    +0.000 A 
ATOM     11  C   UNL     1      38.447   5.134  15.738  0.00  0.00    +0.000 A 
ATOM     12  C   UNL     1      38.946   3.852  15.490  0.00  0.00    +0.000 A 
ATOM     13  C   UNL     1      38.163   2.921  14.842  0.00  0.00    +0.000 A 
ENDROOT
BRANCH   1  18
ATOM     14  C   UNL     1      39.278  -2.434  15.785  0.00  0.00    +0.000 A 
ATOM     15  C   UNL     1      38.537  -2.301  16.940  0.00  0.00    +0.000 A 
ATOM     16  C   UNL     1      37.376  -1.537  16.934  0.00  0.00    +0.000 A 
ATOM     17  C   UNL     1      36.970  -0.913  15.770  0.00  0.00    +0.000 A 
ATOM     18  C   UNL     1      37.709  -1.056  14.650  0.00  0.00    +0.000 A 
ATOM     19  C   UNL     1      38.834  -1.795  14.651  0.00  0.00    +0.000 A 
BRANCH  14  21
ATOM     20  C   UNL     1      41.330  -3.068  14.690  0.00  0.00    +0.000 C 
ATOM     21  O   UNL     1      40.459  -3.205  15.768  0.00  0.00    +0.000 OA
ENDBRANCH  14  21
BRANCH  17  22
ATOM     22  O   UNL     1      35.826  -0.174  15.819  0.00  0.00    +0.000 OA
ATOM     23  C   UNL     1      35.258   0.418  16.940  0.00  0.00    +0.000 C 
ENDBRANCH  17  22
ENDBRANCH   1  18
BRANCH  11  24
ATOM     24  O   UNL     1      39.194   6.093  16.383  0.00  0.00    +0.000 OA
BRANCH  24  25
ATOM     25  C   UNL     1      39.622   5.866  17.697  0.00  0.00    +0.000 C 
BRANCH  25  26
ATOM     26  C   UNL     1      38.995   6.864  18.586  0.00  0.00    +0.000 A 
ATOM     27  C   UNL     1      37.916   7.636  18.251  0.00  0.00    +0.000 A 
ATOM     28  C   UNL     1      37.438   8.526  19.185  0.00  0.00    +0.000 A 
ATOM     29  C   UNL     1      38.009   8.662  20.430  0.00  0.00    +0.000 A 
ATOM     30  C   UNL     1      39.078   7.884  20.736  0.00  0.00    +0.000 A 
ATOM     31  C   UNL     1      39.576   6.997  19.843  0.00  0.00    +0.000 A 
ENDBRANCH  25  26
ENDBRANCH  24  25
ENDBRANCH  11  24
TORSDOF 6
ENDMDL
MODEL 9
REMARK VINA RESULT:      -7.3      1.063      2.756
REMARK  Name = 
REMARK  6 active torsions:
REMARK  status: ('A' for Active; 'I' for Inactive)
REMARK    1  A    between atoms: O_2  and  C_3
REMARK    2  A    between atoms: C_6  and  O_7
REMARK    3  A    between atoms: C_9  and  C_10
REMARK    4  A    between atoms: C_20  and  O_21
REMARK    5  A    between atoms: O_21  and  C_22
REMARK    6  A    between atoms: C_22  and  C_23
REMARK                            x       y       z     vdW  Elec       q    Type
REMARK                         _______ _______ _______ _____ _____    ______ ____
ROOT
ATOM      1  C   UNL     1      37.388  -0.895  13.098  0.00  0.00    +0.000 C 
ATOM      2  N   UNL     1      38.270  -0.325  11.914  0.00  0.00    +0.000 NA
ATOM      3  C   UNL     1      39.534   0.032  12.263  0.00  0.00    +0.000 C 
ATOM      4  C   UNL     1      39.810   0.565  13.639  0.00  0.00    +0.000 C 
ATOM      5  C   UNL     1      38.552   1.109  14.142  0.00  0.00    +0.000 A 
ATOM      6  C   UNL     1      37.388   0.493  13.934  0.00  0.00    +0.000 A 
ATOM      7  N   UNL     1      36.355   1.119  14.455  0.00  0.00    +0.000 NA
ATOM      8  C   UNL     1      36.878   2.228  15.050  0.00  0.00    +0.000 A 
ATOM      9  C   UNL     1      36.325   3.275  15.758  0.00  0.00    +0.000 A 
ATOM     10  C   UNL     1      37.107   4.293  16.262  0.00  0.00    +0.000 A 
ATOM     11  C   UNL     1      38.463   4.324  16.091  0.00  0.00    +0.000 A 
ATOM     12  C   UNL     1      39.041   3.271  15.375  0.00  0.00    +0.000 A 
ATOM     13  C   UNL     1      38.248   2.259  14.878  0.00  0.00    +0.000 A 
ENDROOT
BRANCH   1  18
ATOM     14  C   UNL     1      40.643  -2.696  14.023  0.00  0.00    +0.000 A 
ATOM     15  C   UNL     1      40.473  -2.900  15.376  0.00  0.00    +0.000 A 
ATOM     16  C   UNL     1      39.312  -2.461  16.002  0.00  0.00    +0.000 A 
ATOM     17  C   UNL     1      38.334  -1.819  15.266  0.00  0.00    +0.000 A 
ATOM     18  C   UNL     1      38.521  -1.629  13.944  0.00  0.00    +0.000 A 
ATOM     19  C   UNL     1      39.643  -2.053  13.332  0.00  0.00    +0.000 A 
BRANCH  14  21
ATOM     20  C   UNL     1      42.783  -2.192  13.034  0.00  0.00    +0.000 C 
ATOM     21  O   UNL     1      41.812  -3.134  13.367  0.00  0.00    +0.000 OA
ENDBRANCH  14  21
BRANCH  17  22
ATOM     22  O   UNL     1      37.218  -1.406  15.930  0.00  0.00    +0.000 OA
ATOM     23  C   UNL     1      37.103  -1.129  17.286  0.00  0.00    +0.000 C 
ENDBRANCH  17  22
ENDBRANCH   1  18
BRANCH  11  24
ATOM     24  O   UNL     1      39.218   5.353  16.605  0.00  0.00    +0.000 OA
BRANCH  24  25
ATOM     25  C   UNL     1      39.030   5.748  17.936  0.00  0.00    +0.000 C 
BRANCH  25  26
ATOM     26  C   UNL     1      40.337   6.108  18.519  0.00  0.00    +0.000 A 
ATOM     27  C   UNL     1      40.582   6.239  19.859  0.00  0.00    +0.000 A 
ATOM     28  C   UNL     1      41.853   6.580  20.258  0.00  0.00    +0.000 A 
ATOM     29  C   UNL     1      42.874   6.792  19.360  0.00  0.00    +0.000 A 
ATOM     30  C   UNL     1      42.604   6.655  18.036  0.00  0.00    +0.000 A 
ATOM     31  C   UNL     1      41.365   6.320  17.606  0.00  0.00    +0.000 A 
ENDBRANCH  25  26
ENDBRANCH  24  25
ENDBRANCH  11  24
TORSDOF 6
ENDMDL
MODEL 10
REMARK VINA RESULT:      -7.1      4.155      7.486
REMARK  Name = 
REMARK  6 active torsions:
REMARK  status: ('A' for Active; 'I' for Inactive)
REMARK    1  A    between atoms: O_2  and  C_3
REMARK    2  A    between atoms: C_6  and  O_7
REMARK    3  A    between atoms: C_9  and  C_10
REMARK    4  A    between atoms: C_20  and  O_21
REMARK    5  A    between atoms: O_21  and  C_22
REMARK    6  A    between atoms: C_22  and  C_23
REMARK                            x       y       z     vdW  Elec       q    Type
REMARK                         _______ _______ _______ _____ _____    ______ ____
ROOT
ATOM      1  C   UNL     1      37.449  -0.428  16.093  0.00  0.00    +0.000 C 
ATOM      2  N   UNL     1      36.317  -1.398  15.561  0.00  0.00    +0.000 NA
ATOM      3  C   UNL     1      36.642  -2.095  14.440  0.00  0.00    +0.000 C 
ATOM      4  C   UNL     1      37.556  -1.485  13.418  0.00  0.00    +0.000 C 
ATOM      5  C   UNL     1      37.471  -0.036  13.582  0.00  0.00    +0.000 A 
ATOM      6  C   UNL     1      37.418   0.530  14.787  0.00  0.00    +0.000 A 
ATOM      7  N   UNL     1      37.343   1.843  14.753  0.00  0.00    +0.000 NA
ATOM      8  C   UNL     1      37.348   2.163  13.429  0.00  0.00    +0.000 A 
ATOM      9  C   UNL     1      37.292   3.358  12.740  0.00  0.00    +0.000 A 
ATOM     10  C   UNL     1      37.314   3.394  11.362  0.00  0.00    +0.000 A 
ATOM     11  C   UNL     1      37.392   2.258  10.604  0.00  0.00    +0.000 A 
ATOM     12  C   UNL     1      37.449   1.038  11.285  0.00  0.00    +0.000 A 
ATOM     13  C   UNL     1      37.427   1.016  12.663  0.00  0.00    +0.000 A 
ENDROOT
BRANCH   1  18
ATOM     14  C   UNL     1      40.751  -1.447  14.435  0.00  0.00    +0.000 A 
ATOM     15  C   UNL     1      40.948  -2.707  14.959  0.00  0.00    +0.000 A 
ATOM     16  C   UNL     1      40.023  -3.239  15.849  0.00  0.00    +0.000 A 
ATOM     17  C   UNL     1      38.910  -2.502  16.207  0.00  0.00    +0.000 A 
ATOM     18  C   UNL     1      38.736  -1.271  15.683  0.00  0.00    +0.000 A 
ATOM     19  C   UNL     1      39.629  -0.751  14.820  0.00  0.00    +0.000 A 
BRANCH  14  21
ATOM     20  C   UNL     1      41.205  -0.027  12.541  0.00  0.00    +0.000 C 
ATOM     21  O   UNL     1      41.677  -0.887  13.530  0.00  0.00    +0.000 OA
ENDBRANCH  14  21
BRANCH  17  22
ATOM     22  O   UNL     1      38.036  -3.070  17.085  0.00  0.00    +0.000 OA
ATOM     23  C   UNL     1      38.218  -3.250  18.450  0.00  0.00    +0.000 C 
ENDBRANCH  17  22
ENDBRANCH   1  18
BRANCH  11  24
ATOM     24  O   UNL     1      37.412   2.326   9.230  0.00  0.00    +0.000 OA
BRANCH  24  25
ATOM     25  C   UNL     1      36.518   3.177   8.568  0.00  0.00    +0.000 C 
BRANCH  25  26
ATOM     26  C   UNL     1      36.238   2.630   7.226  0.00  0.00    +0.000 A 
ATOM     27  C   UNL     1      35.662   3.334   6.203  0.00  0.00    +0.000 A 
ATOM     28  C   UNL     1      35.462   2.692   5.004  0.00  0.00    +0.000 A 
ATOM     29  C   UNL     1      35.819   1.378   4.804  0.00  0.00    +0.000 A 
ATOM     30  C   UNL     1      36.389   0.703   5.835  0.00  0.00    +0.000 A 
ATOM     31  C   UNL     1      36.602   1.302   7.031  0.00  0.00    +0.000 A 
ENDBRANCH  25  26
ENDBRANCH  24  25
ENDBRANCH  11  24
TORSDOF 6
ENDMDL
