MODEL 1
REMARK VINA RESULT:      -6.1      0.000      0.000
REMARK  Name = 
REMARK  3 active torsions:
REMARK  status: ('A' for Active; 'I' for Inactive)
REMARK    1  A    between atoms: C_5  and  C_7
REMARK    2  A    between atoms: N_9  and  N_10
REMARK    3  A    between atoms: N_10  and  C_11
REMARK                            x       y       z     vdW  Elec       q    Type
REMARK                         _______ _______ _______ _____ _____    ______ ____
ROOT
ATOM      1  C   UNL     1      32.865  -5.724  32.155  0.00  0.00    +0.000 C 
ATOM      2  O   UNL     1      32.156  -6.352  32.973  0.00  0.00    +0.000 OA
ATOM      3  N   UNL     1      33.453  -4.516  32.571  0.00  0.00    +0.000 NA
ENDROOT
BRANCH   1   8
ATOM      4  C   UNL     1      33.393  -8.323  28.977  0.00  0.00    +0.000 C 
ATOM      5  C   UNL     1      34.619  -7.246  29.215  0.00  0.00    +0.000 C 
ATOM      6  C   UNL     1      33.722  -5.968  28.695  0.00  0.00    +0.000 C 
ATOM      7  C   UNL     1      33.685  -5.109  29.904  0.00  0.00    +0.000 C 
ATOM      8  C   UNL     1      33.082  -6.216  30.810  0.00  0.00    +0.000 C 
ATOM      9  C   UNL     1      31.910  -6.857  30.161  0.00  0.00    +0.000 C 
ATOM     10  C   UNL     1      34.291  -7.076  30.807  0.00  0.00    +0.000 C 
ATOM     11  C   UNL     1      34.165  -8.423  31.380  0.00  0.00    +0.000 C 
ATOM     12  C   UNL     1      35.520  -6.366  31.300  0.00  0.00    +0.000 C 
ENDBRANCH   1   8
BRANCH   3  13
ATOM     13  N   UNL     1      33.365  -3.887  33.775  0.00  0.00    +0.000 NA
BRANCH  13  14
ATOM     14  C   UNL     1      33.197  -2.487  33.963  0.00  0.00    +0.000 A 
ATOM     15  C   UNL     1      33.936  -1.536  33.293  0.00  0.00    +0.000 A 
ATOM     16  C   UNL     1      33.791  -0.184  33.522  0.00  0.00    +0.000 A 
ATOM     17  C   UNL     1      32.867   0.276  34.461  0.00  0.00    +0.000 A 
ATOM     18  C   UNL     1      32.126  -0.680  35.132  0.00  0.00    +0.000 A 
ATOM     19  C   UNL     1      32.276  -2.024  34.902  0.00  0.00    +0.000 A 
ENDBRANCH  13  14
ENDBRANCH   3  13
TORSDOF 3
ENDMDL
MODEL 2
REMARK VINA RESULT:      -6.0     28.248     31.343
REMARK  Name = 
REMARK  3 active torsions:
REMARK  status: ('A' for Active; 'I' for Inactive)
REMARK    1  A    between atoms: C_5  and  C_7
REMARK    2  A    between atoms: N_9  and  N_10
REMARK    3  A    between atoms: N_10  and  C_11
REMARK                            x       y       z     vdW  Elec       q    Type
REMARK                         _______ _______ _______ _____ _____    ______ ____
ROOT
ATOM      1  C   UNL     1      29.358  23.518  23.286  0.00  0.00    +0.000 C 
ATOM      2  O   UNL     1      28.363  22.850  22.921  0.00  0.00    +0.000 OA
ATOM      3  N   UNL     1      29.923  24.424  22.371  0.00  0.00    +0.000 NA
ENDROOT
BRANCH   1   8
ATOM      4  C   UNL     1      29.915  22.231  27.180  0.00  0.00    +0.000 C 
ATOM      5  C   UNL     1      29.740  23.860  26.996  0.00  0.00    +0.000 C 
ATOM      6  C   UNL     1      31.217  24.033  26.293  0.00  0.00    +0.000 C 
ATOM      7  C   UNL     1      30.857  24.560  24.954  0.00  0.00    +0.000 C 
ATOM      8  C   UNL     1      29.922  23.369  24.611  0.00  0.00    +0.000 C 
ATOM      9  C   UNL     1      30.592  22.071  24.885  0.00  0.00    +0.000 C 
ATOM     10  C   UNL     1      28.883  23.711  25.613  0.00  0.00    +0.000 C 
ATOM     11  C   UNL     1      27.823  22.723  25.852  0.00  0.00    +0.000 C 
ATOM     12  C   UNL     1      28.333  25.099  25.441  0.00  0.00    +0.000 C 
ENDBRANCH   1   8
BRANCH   3  13
ATOM     13  N   UNL     1      29.550  24.701  21.093  0.00  0.00    +0.000 NA
BRANCH  13  14
ATOM     14  C   UNL     1      29.161  25.981  20.606  0.00  0.00    +0.000 A 
ATOM     15  C   UNL     1      29.890  26.694  19.679  0.00  0.00    +0.000 A 
ATOM     16  C   UNL     1      29.522  27.953  19.253  0.00  0.00    +0.000 A 
ATOM     17  C   UNL     1      28.369  28.557  19.757  0.00  0.00    +0.000 A 
ATOM     18  C   UNL     1      27.638  27.839  20.686  0.00  0.00    +0.000 A 
ATOM     19  C   UNL     1      28.012  26.588  21.108  0.00  0.00    +0.000 A 
ENDBRANCH  13  14
ENDBRANCH   3  13
TORSDOF 3
ENDMDL
MODEL 3
REMARK VINA RESULT:      -5.9      4.415      6.767
REMARK  Name = 
REMARK  3 active torsions:
REMARK  status: ('A' for Active; 'I' for Inactive)
REMARK    1  A    between atoms: C_5  and  C_7
REMARK    2  A    between atoms: N_9  and  N_10
REMARK    3  A    between atoms: N_10  and  C_11
REMARK                            x       y       z     vdW  Elec       q    Type
REMARK                         _______ _______ _______ _____ _____    ______ ____
ROOT
ATOM      1  C   UNL     1      34.112  -0.492  34.378  0.00  0.00    +0.000 C 
ATOM      2  O   UNL     1      34.350  -0.744  33.176  0.00  0.00    +0.000 OA
ATOM      3  N   UNL     1      33.691   0.808  34.715  0.00  0.00    +0.000 NA
ENDROOT
BRANCH   1   8
ATOM      4  C   UNL     1      34.838  -4.129  36.215  0.00  0.00    +0.000 C 
ATOM      5  C   UNL     1      33.347  -3.483  36.499  0.00  0.00    +0.000 C 
ATOM      6  C   UNL     1      33.944  -2.289  37.461  0.00  0.00    +0.000 C 
ATOM      7  C   UNL     1      33.548  -1.070  36.716  0.00  0.00    +0.000 C 
ATOM      8  C   UNL     1      34.263  -1.499  35.406  0.00  0.00    +0.000 C 
ATOM      9  C   UNL     1      35.656  -1.939  35.680  0.00  0.00    +0.000 C 
ATOM     10  C   UNL     1      33.345  -2.626  35.107  0.00  0.00    +0.000 C 
ATOM     11  C   UNL     1      33.728  -3.540  34.023  0.00  0.00    +0.000 C 
ATOM     12  C   UNL     1      31.907  -2.204  35.007  0.00  0.00    +0.000 C 
ENDBRANCH   1   8
BRANCH   3  13
ATOM     13  N   UNL     1      33.499   1.886  33.907  0.00  0.00    +0.000 NA
BRANCH  13  14
ATOM     14  C   UNL     1      33.550   3.246  34.322  0.00  0.00    +0.000 A 
ATOM     15  C   UNL     1      34.231   3.674  35.441  0.00  0.00    +0.000 A 
ATOM     16  C   UNL     1      34.232   4.990  35.853  0.00  0.00    +0.000 A 
ATOM     17  C   UNL     1      33.528   5.954  35.130  0.00  0.00    +0.000 A 
ATOM     18  C   UNL     1      32.846   5.523  34.007  0.00  0.00    +0.000 A 
ATOM     19  C   UNL     1      32.847   4.211  33.603  0.00  0.00    +0.000 A 
ENDBRANCH  13  14
ENDBRANCH   3  13
TORSDOF 3
ENDMDL
MODEL 4
REMARK VINA RESULT:      -5.9     31.188     33.935
REMARK  Name = 
REMARK  3 active torsions:
REMARK  status: ('A' for Active; 'I' for Inactive)
REMARK    1  A    between atoms: C_5  and  C_7
REMARK    2  A    between atoms: N_9  and  N_10
REMARK    3  A    between atoms: N_10  and  C_11
REMARK                            x       y       z     vdW  Elec       q    Type
REMARK                         _______ _______ _______ _____ _____    ______ ____
ROOT
ATOM      1  C   UNL     1      29.229  25.627  20.921  0.00  0.00    +0.000 C 
ATOM      2  O   UNL     1      29.752  24.550  20.556  0.00  0.00    +0.000 OA
ATOM      3  N   UNL     1      29.559  26.800  20.218  0.00  0.00    +0.000 NA
ENDROOT
BRANCH   1   8
ATOM      4  C   UNL     1      27.346  26.895  24.382  0.00  0.00    +0.000 C 
ATOM      5  C   UNL     1      27.958  25.364  24.434  0.00  0.00    +0.000 C 
ATOM      6  C   UNL     1      26.814  24.772  23.410  0.00  0.00    +0.000 C 
ATOM      7  C   UNL     1      27.639  24.300  22.272  0.00  0.00    +0.000 C 
ATOM      8  C   UNL     1      28.310  25.680  22.038  0.00  0.00    +0.000 C 
ATOM      9  C   UNL     1      27.295  26.764  21.988  0.00  0.00    +0.000 C 
ATOM     10  C   UNL     1      29.092  25.673  23.299  0.00  0.00    +0.000 C 
ATOM     11  C   UNL     1      29.774  26.917  23.680  0.00  0.00    +0.000 C 
ATOM     12  C   UNL     1      29.990  24.476  23.428  0.00  0.00    +0.000 C 
ENDBRANCH   1   8
BRANCH   3  13
ATOM     13  N   UNL     1      30.398  26.960  19.159  0.00  0.00    +0.000 NA
BRANCH  13  14
ATOM     14  C   UNL     1      30.039  27.516  17.899  0.00  0.00    +0.000 A 
ATOM     15  C   UNL     1      30.831  27.424  16.775  0.00  0.00    +0.000 A 
ATOM     16  C   UNL     1      30.488  28.008  15.574  0.00  0.00    +0.000 A 
ATOM     17  C   UNL     1      29.297  28.725  15.454  0.00  0.00    +0.000 A 
ATOM     18  C   UNL     1      28.502  28.815  16.583  0.00  0.00    +0.000 A 
ATOM     19  C   UNL     1      28.850  28.234  17.777  0.00  0.00    +0.000 A 
ENDBRANCH  13  14
ENDBRANCH   3  13
TORSDOF 3
ENDMDL
MODEL 5
REMARK VINA RESULT:      -5.9     28.438     30.049
REMARK  Name = 
REMARK  3 active torsions:
REMARK  status: ('A' for Active; 'I' for Inactive)
REMARK    1  A    between atoms: C_5  and  C_7
REMARK    2  A    between atoms: N_9  and  N_10
REMARK    3  A    between atoms: N_10  and  C_11
REMARK                            x       y       z     vdW  Elec       q    Type
REMARK                         _______ _______ _______ _____ _____    ______ ____
ROOT
ATOM      1  C   UNL     1      27.181  23.023  25.094  0.00  0.00    +0.000 C 
ATOM      2  O   UNL     1      25.990  22.685  25.277  0.00  0.00    +0.000 OA
ATOM      3  N   UNL     1      28.111  22.763  26.117  0.00  0.00    +0.000 NA
ENDROOT
BRANCH   1   8
ATOM      4  C   UNL     1      29.319  25.382  22.451  0.00  0.00    +0.000 C 
ATOM      5  C   UNL     1      27.708  25.719  22.548  0.00  0.00    +0.000 C 
ATOM      6  C   UNL     1      27.277  24.333  21.772  0.00  0.00    +0.000 C 
ATOM      7  C   UNL     1      26.471  23.642  22.808  0.00  0.00    +0.000 C 
ATOM      8  C   UNL     1      27.604  23.667  23.868  0.00  0.00    +0.000 C 
ATOM      9  C   UNL     1      28.884  23.179  23.292  0.00  0.00    +0.000 C 
ATOM     10  C   UNL     1      27.578  25.136  24.069  0.00  0.00    +0.000 C 
ATOM     11  C   UNL     1      28.661  25.729  24.865  0.00  0.00    +0.000 C 
ATOM     12  C   UNL     1      26.228  25.651  24.482  0.00  0.00    +0.000 C 
ENDBRANCH   1   8
BRANCH   3  13
ATOM     13  N   UNL     1      27.914  22.182  27.331  0.00  0.00    +0.000 NA
BRANCH  13  14
ATOM     14  C   UNL     1      27.587  22.872  28.532  0.00  0.00    +0.000 A 
ATOM     15  C   UNL     1      28.455  22.998  29.595  0.00  0.00    +0.000 A 
ATOM     16  C   UNL     1      28.105  23.631  30.769  0.00  0.00    +0.000 A 
ATOM     17  C   UNL     1      26.830  24.179  30.921  0.00  0.00    +0.000 A 
ATOM     18  C   UNL     1      25.961  24.051  29.852  0.00  0.00    +0.000 A 
ATOM     19  C   UNL     1      26.315  23.418  28.687  0.00  0.00    +0.000 A 
ENDBRANCH  13  14
ENDBRANCH   3  13
TORSDOF 3
ENDMDL
MODEL 6
REMARK VINA RESULT:      -5.9     22.207     24.129
REMARK  Name = 
REMARK  3 active torsions:
REMARK  status: ('A' for Active; 'I' for Inactive)
REMARK    1  A    between atoms: C_5  and  C_7
REMARK    2  A    between atoms: N_9  and  N_10
REMARK    3  A    between atoms: N_10  and  C_11
REMARK                            x       y       z     vdW  Elec       q    Type
REMARK                         _______ _______ _______ _____ _____    ______ ____
ROOT
ATOM      1  C   UNL     1      17.716   9.066  40.256  0.00  0.00    +0.000 C 
ATOM      2  O   UNL     1      18.693   8.642  39.598  0.00  0.00    +0.000 OA
ATOM      3  N   UNL     1      16.783   9.894  39.605  0.00  0.00    +0.000 NA
ENDROOT
BRANCH   1   8
ATOM      4  C   UNL     1      17.623   6.872  43.765  0.00  0.00    +0.000 C 
ATOM      5  C   UNL     1      16.194   7.577  43.338  0.00  0.00    +0.000 C 
ATOM      6  C   UNL     1      16.730   9.092  43.689  0.00  0.00    +0.000 C 
ATOM      7  C   UNL     1      16.638   9.763  42.370  0.00  0.00    +0.000 C 
ATOM      8  C   UNL     1      17.539   8.723  41.651  0.00  0.00    +0.000 C 
ATOM      9  C   UNL     1      18.788   8.480  42.419  0.00  0.00    +0.000 C 
ATOM     10  C   UNL     1      16.570   7.604  41.748  0.00  0.00    +0.000 C 
ATOM     11  C   UNL     1      17.046   6.263  41.381  0.00  0.00    +0.000 C 
ATOM     12  C   UNL     1      15.240   7.921  41.123  0.00  0.00    +0.000 C 
ENDBRANCH   1   8
BRANCH   3  13
ATOM     13  N   UNL     1      16.775  10.333  38.318  0.00  0.00    +0.000 NA
BRANCH  13  14
ATOM     14  C   UNL     1      15.729  11.081  37.708  0.00  0.00    +0.000 A 
ATOM     15  C   UNL     1      14.424  11.063  38.153  0.00  0.00    +0.000 A 
ATOM     16  C   UNL     1      13.414  11.758  37.522  0.00  0.00    +0.000 A 
ATOM     17  C   UNL     1      13.688  12.522  36.387  0.00  0.00    +0.000 A 
ATOM     18  C   UNL     1      14.998  12.539  35.942  0.00  0.00    +0.000 A 
ATOM     19  C   UNL     1      15.998  11.843  36.573  0.00  0.00    +0.000 A 
ENDBRANCH  13  14
ENDBRANCH   3  13
TORSDOF 3
ENDMDL
MODEL 7
REMARK VINA RESULT:      -5.8     29.665     32.511
REMARK  Name = 
REMARK  3 active torsions:
REMARK  status: ('A' for Active; 'I' for Inactive)
REMARK    1  A    between atoms: C_5  and  C_7
REMARK    2  A    between atoms: N_9  and  N_10
REMARK    3  A    between atoms: N_10  and  C_11
REMARK                            x       y       z     vdW  Elec       q    Type
REMARK                         _______ _______ _______ _____ _____    ______ ____
ROOT
ATOM      1  C   UNL     1      28.947  24.277  22.617  0.00  0.00    +0.000 C 
ATOM      2  O   UNL     1      30.123  23.900  22.823  0.00  0.00    +0.000 OA
ATOM      3  N   UNL     1      28.676  25.000  21.440  0.00  0.00    +0.000 NA
ENDROOT
BRANCH   1   8
ATOM      4  C   UNL     1      25.393  24.567  24.717  0.00  0.00    +0.000 C 
ATOM      5  C   UNL     1      26.758  24.574  25.641  0.00  0.00    +0.000 C 
ATOM      6  C   UNL     1      27.067  22.982  25.364  0.00  0.00    +0.000 C 
ATOM      7  C   UNL     1      28.383  23.040  24.682  0.00  0.00    +0.000 C 
ATOM      8  C   UNL     1      27.885  23.985  23.556  0.00  0.00    +0.000 C 
ATOM      9  C   UNL     1      26.618  23.485  22.962  0.00  0.00    +0.000 C 
ATOM     10  C   UNL     1      27.690  25.164  24.435  0.00  0.00    +0.000 C 
ATOM     11  C   UNL     1      26.994  26.325  23.865  0.00  0.00    +0.000 C 
ATOM     12  C   UNL     1      28.936  25.560  25.175  0.00  0.00    +0.000 C 
ENDBRANCH   1   8
BRANCH   3  13
ATOM     13  N   UNL     1      29.526  25.378  20.448  0.00  0.00    +0.000 NA
BRANCH  13  14
ATOM     14  C   UNL     1      29.751  26.717  20.021  0.00  0.00    +0.000 A 
ATOM     15  C   UNL     1      29.367  27.821  20.751  0.00  0.00    +0.000 A 
ATOM     16  C   UNL     1      29.552  29.111  20.299  0.00  0.00    +0.000 A 
ATOM     17  C   UNL     1      30.152  29.345  19.061  0.00  0.00    +0.000 A 
ATOM     18  C   UNL     1      30.538  28.235  18.331  0.00  0.00    +0.000 A 
ATOM     19  C   UNL     1      30.348  26.953  18.784  0.00  0.00    +0.000 A 
ENDBRANCH  13  14
ENDBRANCH   3  13
TORSDOF 3
ENDMDL
MODEL 8
REMARK VINA RESULT:      -5.7     21.282     22.793
REMARK  Name = 
REMARK  3 active torsions:
REMARK  status: ('A' for Active; 'I' for Inactive)
REMARK    1  A    between atoms: C_5  and  C_7
REMARK    2  A    between atoms: N_9  and  N_10
REMARK    3  A    between atoms: N_10  and  C_11
REMARK                            x       y       z     vdW  Elec       q    Type
REMARK                         _______ _______ _______ _____ _____    ______ ____
ROOT
ATOM      1  C   UNL     1      18.226   9.522  39.983  0.00  0.00    +0.000 C 
ATOM      2  O   UNL     1      19.091  10.426  40.009  0.00  0.00    +0.000 OA
ATOM      3  N   UNL     1      17.168   9.639  39.062  0.00  0.00    +0.000 NA
ENDROOT
BRANCH   1   8
ATOM      4  C   UNL     1      17.180   6.066  42.006  0.00  0.00    +0.000 C 
ATOM      5  C   UNL     1      17.570   7.351  42.963  0.00  0.00    +0.000 C 
ATOM      6  C   UNL     1      19.169   7.266  42.586  0.00  0.00    +0.000 C 
ATOM      7  C   UNL     1      19.402   8.582  41.945  0.00  0.00    +0.000 C 
ATOM      8  C   UNL     1      18.297   8.382  40.872  0.00  0.00    +0.000 C 
ATOM      9  C   UNL     1      18.428   7.057  40.214  0.00  0.00    +0.000 C 
ATOM     10  C   UNL     1      17.162   8.449  41.825  0.00  0.00    +0.000 C 
ATOM     11  C   UNL     1      15.831   8.089  41.317  0.00  0.00    +0.000 C 
ATOM     12  C   UNL     1      17.135   9.723  42.621  0.00  0.00    +0.000 C 
ENDBRANCH   1   8
BRANCH   3  13
ATOM     13  N   UNL     1      16.920  10.624  38.158  0.00  0.00    +0.000 NA
BRANCH  13  14
ATOM     14  C   UNL     1      17.130  10.527  36.754  0.00  0.00    +0.000 A 
ATOM     15  C   UNL     1      16.732  11.496  35.858  0.00  0.00    +0.000 A 
ATOM     16  C   UNL     1      16.903  11.363  34.496  0.00  0.00    +0.000 A 
ATOM     17  C   UNL     1      17.502  10.218  33.969  0.00  0.00    +0.000 A 
ATOM     18  C   UNL     1      17.901   9.248  34.870  0.00  0.00    +0.000 A 
ATOM     19  C   UNL     1      17.726   9.384  36.225  0.00  0.00    +0.000 A 
ENDBRANCH  13  14
ENDBRANCH   3  13
TORSDOF 3
ENDMDL
MODEL 9
REMARK VINA RESULT:      -5.7     18.038     20.608
REMARK  Name = 
REMARK  3 active torsions:
REMARK  status: ('A' for Active; 'I' for Inactive)
REMARK    1  A    between atoms: C_5  and  C_7
REMARK    2  A    between atoms: N_9  and  N_10
REMARK    3  A    between atoms: N_10  and  C_11
REMARK                            x       y       z     vdW  Elec       q    Type
REMARK                         _______ _______ _______ _____ _____    ______ ____
ROOT
ATOM      1  C   UNL     1      21.855   9.634  38.065  0.00  0.00    +0.000 C 
ATOM      2  O   UNL     1      21.587   9.188  39.204  0.00  0.00    +0.000 OA
ATOM      3  N   UNL     1      20.792   9.861  37.172  0.00  0.00    +0.000 NA
ENDROOT
BRANCH   1   8
ATOM      4  C   UNL     1      25.933  10.306  38.268  0.00  0.00    +0.000 C 
ATOM      5  C   UNL     1      25.054  11.517  37.575  0.00  0.00    +0.000 C 
ATOM      6  C   UNL     1      24.742  10.640  36.218  0.00  0.00    +0.000 C 
ATOM      7  C   UNL     1      23.262  10.548  36.249  0.00  0.00    +0.000 C 
ATOM      8  C   UNL     1      23.218   9.910  37.664  0.00  0.00    +0.000 C 
ATOM      9  C   UNL     1      24.164   8.769  37.763  0.00  0.00    +0.000 C 
ATOM     10  C   UNL     1      23.689  11.121  38.380  0.00  0.00    +0.000 C 
ATOM     11  C   UNL     1      24.037  10.974  39.799  0.00  0.00    +0.000 C 
ATOM     12  C   UNL     1      22.825  12.325  38.133  0.00  0.00    +0.000 C 
ENDBRANCH   1   8
BRANCH   3  13
ATOM     13  N   UNL     1      19.459   9.659  37.353  0.00  0.00    +0.000 NA
BRANCH  13  14
ATOM     14  C   UNL     1      18.428  10.144  36.499  0.00  0.00    +0.000 A 
ATOM     15  C   UNL     1      17.583  11.178  36.841  0.00  0.00    +0.000 A 
ATOM     16  C   UNL     1      16.561  11.604  36.020  0.00  0.00    +0.000 A 
ATOM     17  C   UNL     1      16.345  10.989  34.786  0.00  0.00    +0.000 A 
ATOM     18  C   UNL     1      17.195   9.952  34.445  0.00  0.00    +0.000 A 
ATOM     19  C   UNL     1      18.209   9.530  35.267  0.00  0.00    +0.000 A 
ENDBRANCH  13  14
ENDBRANCH   3  13
TORSDOF 3
ENDMDL
MODEL 10
REMARK VINA RESULT:      -5.6      6.165     11.222
REMARK  Name = 
REMARK  3 active torsions:
REMARK  status: ('A' for Active; 'I' for Inactive)
REMARK    1  A    between atoms: C_5  and  C_7
REMARK    2  A    between atoms: N_9  and  N_10
REMARK    3  A    between atoms: N_10  and  C_11
REMARK                            x       y       z     vdW  Elec       q    Type
REMARK                         _______ _______ _______ _____ _____    ______ ____
ROOT
ATOM      1  C   UNL     1      34.095   4.306  36.982  0.00  0.00    +0.000 C 
ATOM      2  O   UNL     1      33.573   4.234  38.117  0.00  0.00    +0.000 OA
ATOM      3  N   UNL     1      34.277   3.114  36.256  0.00  0.00    +0.000 NA
ENDROOT
BRANCH   1   8
ATOM      4  C   UNL     1      36.210   7.115  34.799  0.00  0.00    +0.000 C 
ATOM      5  C   UNL     1      36.126   7.402  36.421  0.00  0.00    +0.000 C 
ATOM      6  C   UNL     1      34.530   7.797  36.363  0.00  0.00    +0.000 C 
ATOM      7  C   UNL     1      33.927   6.760  37.235  0.00  0.00    +0.000 C 
ATOM      8  C   UNL     1      34.506   5.574  36.418  0.00  0.00    +0.000 C 
ATOM      9  C   UNL     1      34.245   5.750  34.966  0.00  0.00    +0.000 C 
ATOM     10  C   UNL     1      35.921   5.823  36.790  0.00  0.00    +0.000 C 
ATOM     11  C   UNL     1      36.953   5.062  36.072  0.00  0.00    +0.000 C 
ATOM     12  C   UNL     1      36.149   5.822  38.274  0.00  0.00    +0.000 C 
ENDBRANCH   1   8
BRANCH   3  13
ATOM     13  N   UNL     1      33.968   1.837  36.609  0.00  0.00    +0.000 NA
BRANCH  13  14
ATOM     14  C   UNL     1      33.890   0.731  35.717  0.00  0.00    +0.000 A 
ATOM     15  C   UNL     1      34.267  -0.550  36.060  0.00  0.00    +0.000 A 
ATOM     16  C   UNL     1      34.227  -1.600  35.168  0.00  0.00    +0.000 A 
ATOM     17  C   UNL     1      33.791  -1.396  33.858  0.00  0.00    +0.000 A 
ATOM     18  C   UNL     1      33.412  -0.110  33.516  0.00  0.00    +0.000 A 
ATOM     19  C   UNL     1      33.457   0.932  34.408  0.00  0.00    +0.000 A 
ENDBRANCH  13  14
ENDBRANCH   3  13
TORSDOF 3
ENDMDL
