MODEL 1
REMARK VINA RESULT:      -7.0      0.000      0.000
REMARK  Name = 
REMARK  2 active torsions:
REMARK  status: ('A' for Active; 'I' for Inactive)
REMARK    1  A    between atoms: N_11  and  C_12
REMARK    2  A    between atoms: C_12  and  C_13
REMARK                            x       y       z     vdW  Elec       q    Type
REMARK                         _______ _______ _______ _____ _____    ______ ____
ROOT
ATOM      1  O   UNL     1      25.653  23.172  23.096  0.00  0.00    +0.000 OA
ATOM      2  C   UNL     1      26.719  23.109  23.752  0.00  0.00    +0.000 A 
ATOM      3  N   UNL     1      26.674  22.793  25.061  0.00  0.00    +0.000 NA
ATOM      4  C   UNL     1      27.814  22.714  25.822  0.00  0.00    +0.000 A 
ATOM      5  S   UNL     1      28.152  22.354  27.460  0.00  0.00    +0.000 S 
ATOM      6  C   UNL     1      29.843  22.509  27.436  0.00  0.00    +0.000 A 
ATOM      7  C   UNL     1      30.105  22.842  26.131  0.00  0.00    +0.000 A 
ATOM      8  C   UNL     1      29.054  22.948  25.297  0.00  0.00    +0.000 A 
ATOM      9  C   UNL     1      29.065  23.275  23.926  0.00  0.00    +0.000 A 
ATOM     10  O   UNL     1      30.179  23.512  23.345  0.00  0.00    +0.000 OA
ATOM     11  N   UNL     1      27.928  23.341  23.228  0.00  0.00    +0.000 N 
ATOM     12  C   UNL     1      31.601  23.035  25.878  0.00  0.00    +0.000 C 
ATOM     13  C   UNL     1      32.024  24.062  26.928  0.00  0.00    +0.000 C 
ATOM     14  C   UNL     1      31.951  23.495  28.316  0.00  0.00    +0.000 C 
ATOM     15  C   UNL     1      30.965  22.369  28.440  0.00  0.00    +0.000 C 
ENDROOT
BRANCH  11  16
ATOM     16  C   UNL     1      27.998  23.682  21.823  0.00  0.00    +0.000 C 
BRANCH  16  17
ATOM     17  C   UNL     1      28.235  25.140  21.626  0.00  0.00    +0.000 A 
ATOM     18  C   UNL     1      29.262  25.524  20.820  0.00  0.00    +0.000 A 
ATOM     19  C   UNL     1      29.508  26.866  20.618  0.00  0.00    +0.000 A 
ATOM     20  C   UNL     1      28.726  27.818  21.222  0.00  0.00    +0.000 A 
ATOM     21  C   UNL     1      27.693  27.420  22.034  0.00  0.00    +0.000 A 
ATOM     22  C   UNL     1      27.448  26.088  22.236  0.00  0.00    +0.000 A 
ENDBRANCH  16  17
ENDBRANCH  11  16
TORSDOF 2
ENDMDL
MODEL 2
REMARK VINA RESULT:      -6.6      2.739      6.840
REMARK  Name = 
REMARK  2 active torsions:
REMARK  status: ('A' for Active; 'I' for Inactive)
REMARK    1  A    between atoms: N_11  and  C_12
REMARK    2  A    between atoms: C_12  and  C_13
REMARK                            x       y       z     vdW  Elec       q    Type
REMARK                         _______ _______ _______ _____ _____    ______ ____
ROOT
ATOM      1  O   UNL     1      26.903  25.180  24.248  0.00  0.00    +0.000 OA
ATOM      2  C   UNL     1      27.519  25.677  23.277  0.00  0.00    +0.000 A 
ATOM      3  N   UNL     1      27.385  26.991  23.009  0.00  0.00    +0.000 NA
ATOM      4  C   UNL     1      28.039  27.581  21.955  0.00  0.00    +0.000 A 
ATOM      5  S   UNL     1      28.119  29.166  21.317  0.00  0.00    +0.000 S 
ATOM      6  C   UNL     1      29.182  28.891  20.022  0.00  0.00    +0.000 A 
ATOM      7  C   UNL     1      29.452  27.549  20.122  0.00  0.00    +0.000 A 
ATOM      8  C   UNL     1      28.860  26.873  21.123  0.00  0.00    +0.000 A 
ATOM      9  C   UNL     1      28.977  25.503  21.432  0.00  0.00    +0.000 A 
ATOM     10  O   UNL     1      29.724  24.757  20.709  0.00  0.00    +0.000 OA
ATOM     11  N   UNL     1      28.320  24.974  22.468  0.00  0.00    +0.000 N 
ATOM     12  C   UNL     1      30.411  27.074  19.030  0.00  0.00    +0.000 C 
ATOM     13  C   UNL     1      29.745  27.526  17.731  0.00  0.00    +0.000 C 
ATOM     14  C   UNL     1      29.744  29.022  17.602  0.00  0.00    +0.000 C 
ATOM     15  C   UNL     1      29.806  29.727  18.927  0.00  0.00    +0.000 C 
ENDROOT
BRANCH  11  16
ATOM     16  C   UNL     1      28.477  23.561  22.739  0.00  0.00    +0.000 C 
BRANCH  16  17
ATOM     17  C   UNL     1      29.383  23.324  23.898  0.00  0.00    +0.000 A 
ATOM     18  C   UNL     1      28.890  22.664  24.980  0.00  0.00    +0.000 A 
ATOM     19  C   UNL     1      29.703  22.429  26.069  0.00  0.00    +0.000 A 
ATOM     20  C   UNL     1      31.007  22.856  26.071  0.00  0.00    +0.000 A 
ATOM     21  C   UNL     1      31.496  23.522  24.974  0.00  0.00    +0.000 A 
ATOM     22  C   UNL     1      30.689  23.755  23.893  0.00  0.00    +0.000 A 
ENDBRANCH  16  17
ENDBRANCH  11  16
TORSDOF 2
ENDMDL
MODEL 3
REMARK VINA RESULT:      -6.6     11.981     14.723
REMARK  Name = 
REMARK  2 active torsions:
REMARK  status: ('A' for Active; 'I' for Inactive)
REMARK    1  A    between atoms: N_11  and  C_12
REMARK    2  A    between atoms: C_12  and  C_13
REMARK                            x       y       z     vdW  Elec       q    Type
REMARK                         _______ _______ _______ _____ _____    ______ ____
ROOT
ATOM      1  O   UNL     1      30.930  20.015  12.859  0.00  0.00    +0.000 OA
ATOM      2  C   UNL     1      31.565  20.652  11.986  0.00  0.00    +0.000 A 
ATOM      3  N   UNL     1      32.912  20.675  12.031  0.00  0.00    +0.000 NA
ATOM      4  C   UNL     1      33.651  21.360  11.098  0.00  0.00    +0.000 A 
ATOM      5  S   UNL     1      35.322  21.615  10.830  0.00  0.00    +0.000 S 
ATOM      6  C   UNL     1      35.234  22.586   9.440  0.00  0.00    +0.000 A 
ATOM      7  C   UNL     1      33.884  22.688   9.216  0.00  0.00    +0.000 A 
ATOM      8  C   UNL     1      33.067  22.053  10.075  0.00  0.00    +0.000 A 
ATOM      9  C   UNL     1      31.658  22.007  10.059  0.00  0.00    +0.000 A 
ATOM     10  O   UNL     1      31.020  22.626   9.139  0.00  0.00    +0.000 OA
ATOM     11  N   UNL     1      30.982  21.327  10.989  0.00  0.00    +0.000 N 
ATOM     12  C   UNL     1      33.569  23.539   7.986  0.00  0.00    +0.000 C 
ATOM     13  C   UNL     1      34.304  24.853   8.247  0.00  0.00    +0.000 C 
ATOM     14  C   UNL     1      35.794  24.671   8.203  0.00  0.00    +0.000 C 
ATOM     15  C   UNL     1      36.225  23.269   8.523  0.00  0.00    +0.000 C 
ENDROOT
BRANCH  11  16
ATOM     16  C   UNL     1      29.537  21.315  10.924  0.00  0.00    +0.000 C 
BRANCH  16  17
ATOM     17  C   UNL     1      28.940  22.326  11.842  0.00  0.00    +0.000 A 
ATOM     18  C   UNL     1      27.610  22.591  11.735  0.00  0.00    +0.000 A 
ATOM     19  C   UNL     1      27.027  23.521  12.570  0.00  0.00    +0.000 A 
ATOM     20  C   UNL     1      27.778  24.182  13.510  0.00  0.00    +0.000 A 
ATOM     21  C   UNL     1      29.120  23.908  13.610  0.00  0.00    +0.000 A 
ATOM     22  C   UNL     1      29.698  22.984  12.781  0.00  0.00    +0.000 A 
ENDBRANCH  16  17
ENDBRANCH  11  16
TORSDOF 2
ENDMDL
MODEL 4
REMARK VINA RESULT:      -6.5     32.290     34.054
REMARK  Name = 
REMARK  2 active torsions:
REMARK  status: ('A' for Active; 'I' for Inactive)
REMARK    1  A    between atoms: N_11  and  C_12
REMARK    2  A    between atoms: C_12  and  C_13
REMARK                            x       y       z     vdW  Elec       q    Type
REMARK                         _______ _______ _______ _____ _____    ______ ____
ROOT
ATOM      1  O   UNL     1      18.082  -5.241  26.553  0.00  0.00    +0.000 OA
ATOM      2  C   UNL     1      18.976  -6.089  26.327  0.00  0.00    +0.000 A 
ATOM      3  N   UNL     1      20.029  -5.753  25.556  0.00  0.00    +0.000 NA
ATOM      4  C   UNL     1      21.033  -6.647  25.278  0.00  0.00    +0.000 A 
ATOM      5  S   UNL     1      22.483  -6.594  24.372  0.00  0.00    +0.000 S 
ATOM      6  C   UNL     1      23.033  -8.179  24.634  0.00  0.00    +0.000 A 
ATOM      7  C   UNL     1      22.057  -8.717  25.435  0.00  0.00    +0.000 A 
ATOM      8  C   UNL     1      21.024  -7.923  25.768  0.00  0.00    +0.000 A 
ATOM      9  C   UNL     1      19.909  -8.242  26.570  0.00  0.00    +0.000 A 
ATOM     10  O   UNL     1      19.811  -9.413  27.073  0.00  0.00    +0.000 OA
ATOM     11  N   UNL     1      18.957  -7.336  26.810  0.00  0.00    +0.000 N 
ATOM     12  C   UNL     1      22.355 -10.172  25.802  0.00  0.00    +0.000 C 
ATOM     13  C   UNL     1      22.566 -10.858  24.453  0.00  0.00    +0.000 C 
ATOM     14  C   UNL     1      23.820 -10.379  23.780  0.00  0.00    +0.000 C 
ATOM     15  C   UNL     1      24.231  -9.001  24.213  0.00  0.00    +0.000 C 
ENDROOT
BRANCH  11  16
ATOM     16  C   UNL     1      17.834  -7.718  27.641  0.00  0.00    +0.000 C 
BRANCH  16  17
ATOM     17  C   UNL     1      16.820  -8.489  26.867  0.00  0.00    +0.000 A 
ATOM     18  C   UNL     1      16.514  -9.749  27.279  0.00  0.00    +0.000 A 
ATOM     19  C   UNL     1      15.580 -10.489  26.585  0.00  0.00    +0.000 A 
ATOM     20  C   UNL     1      14.954  -9.964  25.481  0.00  0.00    +0.000 A 
ATOM     21  C   UNL     1      15.270  -8.692  25.074  0.00  0.00    +0.000 A 
ATOM     22  C   UNL     1      16.198  -7.957  25.763  0.00  0.00    +0.000 A 
ENDBRANCH  16  17
ENDBRANCH  11  16
TORSDOF 2
ENDMDL
MODEL 5
REMARK VINA RESULT:      -6.2      4.251      6.158
REMARK  Name = 
REMARK  2 active torsions:
REMARK  status: ('A' for Active; 'I' for Inactive)
REMARK    1  A    between atoms: N_11  and  C_12
REMARK    2  A    between atoms: C_12  and  C_13
REMARK                            x       y       z     vdW  Elec       q    Type
REMARK                         _______ _______ _______ _____ _____    ______ ____
ROOT
ATOM      1  O   UNL     1      28.346  22.344  28.091  0.00  0.00    +0.000 OA
ATOM      2  C   UNL     1      27.391  23.142  27.946  0.00  0.00    +0.000 A 
ATOM      3  N   UNL     1      26.911  23.803  29.018  0.00  0.00    +0.000 NA
ATOM      4  C   UNL     1      25.865  24.686  28.911  0.00  0.00    +0.000 A 
ATOM      5  S   UNL     1      25.006  25.682  30.005  0.00  0.00    +0.000 S 
ATOM      6  C   UNL     1      23.903  26.392  28.926  0.00  0.00    +0.000 A 
ATOM      7  C   UNL     1      24.238  25.826  27.722  0.00  0.00    +0.000 A 
ATOM      8  C   UNL     1      25.253  24.943  27.716  0.00  0.00    +0.000 A 
ATOM      9  C   UNL     1      25.779  24.235  26.616  0.00  0.00    +0.000 A 
ATOM     10  O   UNL     1      25.272  24.409  25.455  0.00  0.00    +0.000 OA
ATOM     11  N   UNL     1      26.799  23.386  26.772  0.00  0.00    +0.000 N 
ATOM     12  C   UNL     1      23.352  26.333  26.584  0.00  0.00    +0.000 C 
ATOM     13  C   UNL     1      21.930  26.067  27.075  0.00  0.00    +0.000 C 
ATOM     14  C   UNL     1      21.575  26.942  28.242  0.00  0.00    +0.000 C 
ATOM     15  C   UNL     1      22.775  27.395  29.024  0.00  0.00    +0.000 C 
ENDROOT
BRANCH  11  16
ATOM     16  C   UNL     1      27.298  22.685  25.608  0.00  0.00    +0.000 C 
BRANCH  16  17
ATOM     17  C   UNL     1      28.560  23.296  25.102  0.00  0.00    +0.000 A 
ATOM     18  C   UNL     1      29.657  22.502  24.974  0.00  0.00    +0.000 A 
ATOM     19  C   UNL     1      30.840  23.037  24.508  0.00  0.00    +0.000 A 
ATOM     20  C   UNL     1      30.920  24.365  24.172  0.00  0.00    +0.000 A 
ATOM     21  C   UNL     1      29.807  25.159  24.305  0.00  0.00    +0.000 A 
ATOM     22  C   UNL     1      28.632  24.627  24.768  0.00  0.00    +0.000 A 
ENDBRANCH  16  17
ENDBRANCH  11  16
TORSDOF 2
ENDMDL
MODEL 6
REMARK VINA RESULT:      -6.2      1.439      1.766
REMARK  Name = 
REMARK  2 active torsions:
REMARK  status: ('A' for Active; 'I' for Inactive)
REMARK    1  A    between atoms: N_11  and  C_12
REMARK    2  A    between atoms: C_12  and  C_13
REMARK                            x       y       z     vdW  Elec       q    Type
REMARK                         _______ _______ _______ _____ _____    ______ ____
ROOT
ATOM      1  O   UNL     1      24.927  24.785  24.822  0.00  0.00    +0.000 OA
ATOM      2  C   UNL     1      25.941  24.313  25.387  0.00  0.00    +0.000 A 
ATOM      3  N   UNL     1      26.065  24.420  26.725  0.00  0.00    +0.000 NA
ATOM      4  C   UNL     1      27.157  23.921  27.389  0.00  0.00    +0.000 A 
ATOM      5  S   UNL     1      27.657  23.865  29.025  0.00  0.00    +0.000 S 
ATOM      6  C   UNL     1      29.133  23.048  28.836  0.00  0.00    +0.000 A 
ATOM      7  C   UNL     1      29.200  22.835  27.482  0.00  0.00    +0.000 A 
ATOM      8  C   UNL     1      28.177  23.288  26.735  0.00  0.00    +0.000 A 
ATOM      9  C   UNL     1      28.016  23.193  25.338  0.00  0.00    +0.000 A 
ATOM     10  O   UNL     1      28.918  22.617  24.638  0.00  0.00    +0.000 OA
ATOM     11  N   UNL     1      26.934  23.695  24.737  0.00  0.00    +0.000 N 
ATOM     12  C   UNL     1      30.478  22.098  27.080  0.00  0.00    +0.000 C 
ATOM     13  C   UNL     1      31.599  22.946  27.679  0.00  0.00    +0.000 C 
ATOM     14  C   UNL     1      31.592  22.889  29.180  0.00  0.00    +0.000 C 
ATOM     15  C   UNL     1      30.240  22.571  29.751  0.00  0.00    +0.000 C 
ENDROOT
BRANCH  11  16
ATOM     16  C   UNL     1      26.820  23.570  23.299  0.00  0.00    +0.000 C 
BRANCH  16  17
ATOM     17  C   UNL     1      27.640  24.596  22.595  0.00  0.00    +0.000 A 
ATOM     18  C   UNL     1      28.599  24.174  21.728  0.00  0.00    +0.000 A 
ATOM     19  C   UNL     1      29.375  25.098  21.061  0.00  0.00    +0.000 A 
ATOM     20  C   UNL     1      29.188  26.443  21.264  0.00  0.00    +0.000 A 
ATOM     21  C   UNL     1      28.217  26.859  22.141  0.00  0.00    +0.000 A 
ATOM     22  C   UNL     1      27.447  25.941  22.804  0.00  0.00    +0.000 A 
ENDBRANCH  16  17
ENDBRANCH  11  16
TORSDOF 2
ENDMDL
MODEL 7
REMARK VINA RESULT:      -6.2      3.210      6.538
REMARK  Name = 
REMARK  2 active torsions:
REMARK  status: ('A' for Active; 'I' for Inactive)
REMARK    1  A    between atoms: N_11  and  C_12
REMARK    2  A    between atoms: C_12  and  C_13
REMARK                            x       y       z     vdW  Elec       q    Type
REMARK                         _______ _______ _______ _____ _____    ______ ____
ROOT
ATOM      1  O   UNL     1      30.305  22.545  28.888  0.00  0.00    +0.000 OA
ATOM      2  C   UNL     1      29.856  22.786  27.743  0.00  0.00    +0.000 A 
ATOM      3  N   UNL     1      30.681  23.280  26.799  0.00  0.00    +0.000 NA
ATOM      4  C   UNL     1      30.237  23.562  25.530  0.00  0.00    +0.000 A 
ATOM      5  S   UNL     1      30.957  24.177  24.106  0.00  0.00    +0.000 S 
ATOM      6  C   UNL     1      29.603  24.159  23.081  0.00  0.00    +0.000 A 
ATOM      7  C   UNL     1      28.609  23.666  23.888  0.00  0.00    +0.000 A 
ATOM      8  C   UNL     1      28.939  23.357  25.155  0.00  0.00    +0.000 A 
ATOM      9  C   UNL     1      28.104  22.840  26.166  0.00  0.00    +0.000 A 
ATOM     10  O   UNL     1      26.871  22.615  25.910  0.00  0.00    +0.000 OA
ATOM     11  N   UNL     1      28.583  22.583  27.386  0.00  0.00    +0.000 N 
ATOM     12  C   UNL     1      27.272  23.563  23.153  0.00  0.00    +0.000 C 
ATOM     13  C   UNL     1      27.046  24.969  22.598  0.00  0.00    +0.000 C 
ATOM     14  C   UNL     1      28.038  25.305  21.522  0.00  0.00    +0.000 C 
ATOM     15  C   UNL     1      29.320  24.531  21.642  0.00  0.00    +0.000 C 
ENDROOT
BRANCH  11  16
ATOM     16  C   UNL     1      27.681  22.054  28.387  0.00  0.00    +0.000 C 
BRANCH  16  17
ATOM     17  C   UNL     1      27.040  23.144  29.175  0.00  0.00    +0.000 A 
ATOM     18  C   UNL     1      26.010  23.830  28.611  0.00  0.00    +0.000 A 
ATOM     19  C   UNL     1      25.396  24.845  29.314  0.00  0.00    +0.000 A 
ATOM     20  C   UNL     1      25.814  25.168  30.581  0.00  0.00    +0.000 A 
ATOM     21  C   UNL     1      26.854  24.470  31.142  0.00  0.00    +0.000 A 
ATOM     22  C   UNL     1      27.465  23.462  30.443  0.00  0.00    +0.000 A 
ENDBRANCH  16  17
ENDBRANCH  11  16
TORSDOF 2
ENDMDL
MODEL 8
REMARK VINA RESULT:      -6.0     21.107     22.635
REMARK  Name = 
REMARK  2 active torsions:
REMARK  status: ('A' for Active; 'I' for Inactive)
REMARK    1  A    between atoms: N_11  and  C_12
REMARK    2  A    between atoms: C_12  and  C_13
REMARK                            x       y       z     vdW  Elec       q    Type
REMARK                         _______ _______ _______ _____ _____    ______ ____
ROOT
ATOM      1  O   UNL     1      24.522   0.159  17.454  0.00  0.00    +0.000 OA
ATOM      2  C   UNL     1      24.978   1.325  17.385  0.00  0.00    +0.000 A 
ATOM      3  N   UNL     1      26.191   1.530  16.836  0.00  0.00    +0.000 NA
ATOM      4  C   UNL     1      26.734   2.788  16.739  0.00  0.00    +0.000 A 
ATOM      5  S   UNL     1      28.197   3.429  16.127  0.00  0.00    +0.000 S 
ATOM      6  C   UNL     1      27.938   5.075  16.458  0.00  0.00    +0.000 A 
ATOM      7  C   UNL     1      26.698   5.082  17.045  0.00  0.00    +0.000 A 
ATOM      8  C   UNL     1      26.076   3.898  17.190  0.00  0.00    +0.000 A 
ATOM      9  C   UNL     1      24.811   3.647  17.758  0.00  0.00    +0.000 A 
ATOM     10  O   UNL     1      24.119   4.624  18.209  0.00  0.00    +0.000 OA
ATOM     11  N   UNL     1      24.326   2.405  17.830  0.00  0.00    +0.000 N 
ATOM     12  C   UNL     1      26.256   6.493  17.434  0.00  0.00    +0.000 C 
ATOM     13  C   UNL     1      27.406   7.018  18.293  0.00  0.00    +0.000 C 
ATOM     14  C   UNL     1      28.652   7.227  17.481  0.00  0.00    +0.000 C 
ATOM     15  C   UNL     1      28.708   6.361  16.255  0.00  0.00    +0.000 C 
ENDROOT
BRANCH  11  16
ATOM     16  C   UNL     1      23.021   2.205  18.424  0.00  0.00    +0.000 C 
BRANCH  16  17
ATOM     17  C   UNL     1      21.940   2.261  17.399  0.00  0.00    +0.000 A 
ATOM     18  C   UNL     1      20.659   2.042  17.799  0.00  0.00    +0.000 A 
ATOM     19  C   UNL     1      19.635   2.087  16.875  0.00  0.00    +0.000 A 
ATOM     20  C   UNL     1      19.899   2.353  15.554  0.00  0.00    +0.000 A 
ATOM     21  C   UNL     1      21.196   2.573  15.161  0.00  0.00    +0.000 A 
ATOM     22  C   UNL     1      22.212   2.528  16.078  0.00  0.00    +0.000 A 
ENDBRANCH  16  17
ENDBRANCH  11  16
TORSDOF 2
ENDMDL
MODEL 9
REMARK VINA RESULT:      -6.0      2.897      5.972
REMARK  Name = 
REMARK  2 active torsions:
REMARK  status: ('A' for Active; 'I' for Inactive)
REMARK    1  A    between atoms: N_11  and  C_12
REMARK    2  A    between atoms: C_12  and  C_13
REMARK                            x       y       z     vdW  Elec       q    Type
REMARK                         _______ _______ _______ _____ _____    ______ ____
ROOT
ATOM      1  O   UNL     1      30.180  24.047  23.025  0.00  0.00    +0.000 OA
ATOM      2  C   UNL     1      29.197  24.188  23.790  0.00  0.00    +0.000 A 
ATOM      3  N   UNL     1      28.309  25.173  23.553  0.00  0.00    +0.000 NA
ATOM      4  C   UNL     1      27.217  25.368  24.363  0.00  0.00    +0.000 A 
ATOM      5  S   UNL     1      25.911  26.473  24.386  0.00  0.00    +0.000 S 
ATOM      6  C   UNL     1      25.094  25.907  25.762  0.00  0.00    +0.000 A 
ATOM      7  C   UNL     1      25.872  24.855  26.175  0.00  0.00    +0.000 A 
ATOM      8  C   UNL     1      26.970  24.577  25.450  0.00  0.00    +0.000 A 
ATOM      9  C   UNL     1      27.918  23.558  25.668  0.00  0.00    +0.000 A 
ATOM     10  O   UNL     1      27.772  22.765  26.662  0.00  0.00    +0.000 OA
ATOM     11  N   UNL     1      28.965  23.408  24.852  0.00  0.00    +0.000 N 
ATOM     12  C   UNL     1      25.310  24.183  27.428  0.00  0.00    +0.000 C 
ATOM     13  C   UNL     1      25.155  25.331  28.426  0.00  0.00    +0.000 C 
ATOM     14  C   UNL     1      24.080  26.290  28.002  0.00  0.00    +0.000 C 
ATOM     15  C   UNL     1      23.841  26.288  26.520  0.00  0.00    +0.000 C 
ENDROOT
BRANCH  11  16
ATOM     16  C   UNL     1      29.908  22.344  25.124  0.00  0.00    +0.000 C 
BRANCH  16  17
ATOM     17  C   UNL     1      30.834  22.706  26.234  0.00  0.00    +0.000 A 
ATOM     18  C   UNL     1      30.833  21.934  27.354  0.00  0.00    +0.000 A 
ATOM     19  C   UNL     1      31.678  22.243  28.400  0.00  0.00    +0.000 A 
ATOM     20  C   UNL     1      32.522  23.322  28.320  0.00  0.00    +0.000 A 
ATOM     21  C   UNL     1      32.515  24.095  27.185  0.00  0.00    +0.000 A 
ATOM     22  C   UNL     1      31.676  23.789  26.147  0.00  0.00    +0.000 A 
ENDBRANCH  16  17
ENDBRANCH  11  16
TORSDOF 2
ENDMDL
MODEL 10
REMARK VINA RESULT:      -5.8      3.475      4.965
REMARK  Name = 
REMARK  2 active torsions:
REMARK  status: ('A' for Active; 'I' for Inactive)
REMARK    1  A    between atoms: N_11  and  C_12
REMARK    2  A    between atoms: C_12  and  C_13
REMARK                            x       y       z     vdW  Elec       q    Type
REMARK                         _______ _______ _______ _____ _____    ______ ____
ROOT
ATOM      1  O   UNL     1      27.297  25.938  22.333  0.00  0.00    +0.000 OA
ATOM      2  C   UNL     1      26.922  25.697  23.504  0.00  0.00    +0.000 A 
ATOM      3  N   UNL     1      26.138  26.586  24.145  0.00  0.00    +0.000 NA
ATOM      4  C   UNL     1      25.703  26.367  25.429  0.00  0.00    +0.000 A 
ATOM      5  S   UNL     1      24.728  27.231  26.539  0.00  0.00    +0.000 S 
ATOM      6  C   UNL     1      24.771  26.149  27.846  0.00  0.00    +0.000 A 
ATOM      7  C   UNL     1      25.555  25.125  27.377  0.00  0.00    +0.000 A 
ATOM      8  C   UNL     1      26.036  25.240  26.126  0.00  0.00    +0.000 A 
ATOM      9  C   UNL     1      26.856  24.332  25.426  0.00  0.00    +0.000 A 
ATOM     10  O   UNL     1      27.222  23.246  25.996  0.00  0.00    +0.000 OA
ATOM     11  N   UNL     1      27.255  24.590  24.177  0.00  0.00    +0.000 N 
ATOM     12  C   UNL     1      25.731  24.015  28.414  0.00  0.00    +0.000 C 
ATOM     13  C   UNL     1      26.255  24.745  29.651  0.00  0.00    +0.000 C 
ATOM     14  C   UNL     1      25.211  25.647  30.243  0.00  0.00    +0.000 C 
ATOM     15  C   UNL     1      24.188  26.101  29.242  0.00  0.00    +0.000 C 
ENDROOT
BRANCH  11  16
ATOM     16  C   UNL     1      28.096  23.622  23.506  0.00  0.00    +0.000 C 
BRANCH  16  17
ATOM     17  C   UNL     1      29.517  23.741  23.939  0.00  0.00    +0.000 A 
ATOM     18  C   UNL     1      30.153  22.624  24.383  0.00  0.00    +0.000 A 
ATOM     19  C   UNL     1      31.469  22.700  24.791  0.00  0.00    +0.000 A 
ATOM     20  C   UNL     1      32.143  23.895  24.752  0.00  0.00    +0.000 A 
ATOM     21  C   UNL     1      31.492  25.017  24.302  0.00  0.00    +0.000 A 
ATOM     22  C   UNL     1      30.186  24.942  23.897  0.00  0.00    +0.000 A 
ENDBRANCH  16  17
ENDBRANCH  11  16
TORSDOF 2
ENDMDL
