MODEL 1
REMARK VINA RESULT:      -7.2      0.000      0.000
REMARK  Name = 
REMARK  7 active torsions:
REMARK  status: ('A' for Active; 'I' for Inactive)
REMARK    1  A    between atoms: C_2  and  N_3
REMARK    2  A    between atoms: C_2  and  C_26
REMARK    3  A    between atoms: C_4  and  C_6
REMARK    4  A    between atoms: C_11  and  O_12
REMARK    5  A    between atoms: O_12  and  C_13
REMARK    6  A    between atoms: C_13  and  C_14
REMARK    7  A    between atoms: C_14  and  C_16
REMARK                            x       y       z     vdW  Elec       q    Type
REMARK                         _______ _______ _______ _____ _____    ______ ____
ROOT
ATOM      1  C   UNL     1      37.115   3.519  16.548  0.00  0.00    +0.000 A 
ATOM      2  C   UNL     1      37.839   3.945  17.658  0.00  0.00    +0.000 A 
ATOM      3  C   UNL     1      38.658   5.048  17.517  0.00  0.00    +0.000 A 
ATOM      4  C   UNL     1      38.780   5.732  16.328  0.00  0.00    +0.000 A 
ATOM      5  C   UNL     1      38.052   5.289  15.245  0.00  0.00    +0.000 A 
ATOM      6  C   UNL     1      37.214   4.180  15.347  0.00  0.00    +0.000 A 
ENDROOT
BRANCH   1   8
ATOM      7  N   UNL     1      36.721   1.036  16.813  0.00  0.00    +0.000 NA
ATOM      8  C   UNL     1      36.223   2.356  16.627  0.00  0.00    +0.000 C 
ATOM      9  O   UNL     1      34.973   2.518  16.529  0.00  0.00    +0.000 OA
BRANCH   7  11
ATOM     10  C   UNL     1      35.957  -0.488  18.445  0.00  0.00    +0.000 C 
ATOM     11  C   UNL     1      35.593  -0.084  16.873  0.00  0.00    +0.000 C 
BRANCH  11  12
ATOM     12  C   UNL     1      36.495  -1.235  16.238  0.00  0.00    +0.000 A 
ATOM     13  C   UNL     1      36.041  -1.956  15.200  0.00  0.00    +0.000 A 
ATOM     14  C   UNL     1      36.832  -2.949  14.664  0.00  0.00    +0.000 A 
ATOM     15  C   UNL     1      38.085  -3.219  15.171  0.00  0.00    +0.000 A 
ATOM     16  C   UNL     1      38.513  -2.457  16.235  0.00  0.00    +0.000 A 
ATOM     17  C   UNL     1      37.713  -1.466  16.764  0.00  0.00    +0.000 A 
ENDBRANCH  11  12
ENDBRANCH   7  11
ENDBRANCH   1   8
BRANCH   6  18
ATOM     18  O   UNL     1      36.462   3.696  14.289  0.00  0.00    +0.000 OA
BRANCH  18  19
ATOM     19  C   UNL     1      37.150   3.070  13.230  0.00  0.00    +0.000 C 
BRANCH  19  20
ATOM     20  C   UNL     1      37.109   1.604  13.302  0.00  0.00    +0.000 C 
ATOM     21  O   UNL     1      35.987   1.041  13.226  0.00  0.00    +0.000 OA
BRANCH  20  22
ATOM     22  C   UNL     1      38.304   0.782  13.456  0.00  0.00    +0.000 A 
ATOM     23  C   UNL     1      39.279   1.084  14.376  0.00  0.00    +0.000 A 
ATOM     24  C   UNL     1      40.405   0.296  14.513  0.00  0.00    +0.000 A 
ATOM     25  C   UNL     1      40.602  -0.829  13.734  0.00  0.00    +0.000 A 
ATOM     26  C   UNL     1      39.637  -1.149  12.807  0.00  0.00    +0.000 A 
ATOM     27  C   UNL     1      38.503  -0.335  12.687  0.00  0.00    +0.000 A 
ATOM     28  C   UNL     1      39.746  -2.337  11.918  0.00  0.00    +0.000 C 
ATOM     29  C   UNL     1      41.032  -3.078  12.096  0.00  0.00    +0.000 C 
ATOM     30  C   UNL     1      41.499  -3.100  13.540  0.00  0.00    +0.000 C 
ATOM     31  C   UNL     1      41.838  -1.672  13.903  0.00  0.00    +0.000 C 
ENDBRANCH  20  22
ENDBRANCH  19  20
ENDBRANCH  18  19
ENDBRANCH   6  18
TORSDOF 7
ENDMDL
MODEL 2
REMARK VINA RESULT:      -7.0      3.006      6.382
REMARK  Name = 
REMARK  7 active torsions:
REMARK  status: ('A' for Active; 'I' for Inactive)
REMARK    1  A    between atoms: C_2  and  N_3
REMARK    2  A    between atoms: C_2  and  C_26
REMARK    3  A    between atoms: C_4  and  C_6
REMARK    4  A    between atoms: C_11  and  O_12
REMARK    5  A    between atoms: O_12  and  C_13
REMARK    6  A    between atoms: C_13  and  C_14
REMARK    7  A    between atoms: C_14  and  C_16
REMARK                            x       y       z     vdW  Elec       q    Type
REMARK                         _______ _______ _______ _____ _____    ______ ____
ROOT
ATOM      1  C   UNL     1      38.748   4.279  14.811  0.00  0.00    +0.000 A 
ATOM      2  C   UNL     1      39.971   3.985  14.216  0.00  0.00    +0.000 A 
ATOM      3  C   UNL     1      40.002   3.798  12.849  0.00  0.00    +0.000 A 
ATOM      4  C   UNL     1      38.874   3.892  12.063  0.00  0.00    +0.000 A 
ATOM      5  C   UNL     1      37.677   4.184  12.678  0.00  0.00    +0.000 A 
ATOM      6  C   UNL     1      37.604   4.380  14.055  0.00  0.00    +0.000 A 
ENDROOT
BRANCH   1   8
ATOM      7  N   UNL     1      38.972   5.738  16.863  0.00  0.00    +0.000 NA
ATOM      8  C   UNL     1      38.642   4.493  16.260  0.00  0.00    +0.000 C 
ATOM      9  O   UNL     1      38.246   3.551  17.004  0.00  0.00    +0.000 OA
BRANCH   7  11
ATOM     10  C   UNL     1      38.261   7.343  18.441  0.00  0.00    +0.000 C 
ATOM     11  C   UNL     1      38.788   5.766  18.444  0.00  0.00    +0.000 C 
BRANCH  11  12
ATOM     12  C   UNL     1      40.304   6.142  18.762  0.00  0.00    +0.000 A 
ATOM     13  C   UNL     1      41.184   6.311  17.761  0.00  0.00    +0.000 A 
ATOM     14  C   UNL     1      42.492   6.633  18.054  0.00  0.00    +0.000 A 
ATOM     15  C   UNL     1      42.917   6.789  19.356  0.00  0.00    +0.000 A 
ATOM     16  C   UNL     1      41.984   6.609  20.351  0.00  0.00    +0.000 A 
ATOM     17  C   UNL     1      40.679   6.285  20.048  0.00  0.00    +0.000 A 
ENDBRANCH  11  12
ENDBRANCH   7  11
ENDBRANCH   1   8
BRANCH   6  18
ATOM     18  O   UNL     1      36.425   4.677  14.720  0.00  0.00    +0.000 OA
BRANCH  18  19
ATOM     19  C   UNL     1      35.249   4.035  14.282  0.00  0.00    +0.000 C 
BRANCH  19  20
ATOM     20  C   UNL     1      34.701   3.097  15.270  0.00  0.00    +0.000 C 
ATOM     21  O   UNL     1      33.573   3.353  15.763  0.00  0.00    +0.000 OA
BRANCH  20  22
ATOM     22  C   UNL     1      35.403   1.893  15.698  0.00  0.00    +0.000 A 
ATOM     23  C   UNL     1      36.134   1.128  14.820  0.00  0.00    +0.000 A 
ATOM     24  C   UNL     1      36.796  -0.009  15.239  0.00  0.00    +0.000 A 
ATOM     25  C   UNL     1      36.754  -0.430  16.555  0.00  0.00    +0.000 A 
ATOM     26  C   UNL     1      36.027   0.321  17.450  0.00  0.00    +0.000 A 
ATOM     27  C   UNL     1      35.365   1.472  17.002  0.00  0.00    +0.000 A 
ATOM     28  C   UNL     1      35.915  -0.038  18.890  0.00  0.00    +0.000 C 
ATOM     29  C   UNL     1      36.604  -1.322  19.222  0.00  0.00    +0.000 C 
ATOM     30  C   UNL     1      37.888  -1.515  18.435  0.00  0.00    +0.000 C 
ATOM     31  C   UNL     1      37.484  -1.674  16.987  0.00  0.00    +0.000 C 
ENDBRANCH  20  22
ENDBRANCH  19  20
ENDBRANCH  18  19
ENDBRANCH   6  18
TORSDOF 7
ENDMDL
MODEL 3
REMARK VINA RESULT:      -6.7      1.598      4.120
REMARK  Name = 
REMARK  7 active torsions:
REMARK  status: ('A' for Active; 'I' for Inactive)
REMARK    1  A    between atoms: C_2  and  N_3
REMARK    2  A    between atoms: C_2  and  C_26
REMARK    3  A    between atoms: C_4  and  C_6
REMARK    4  A    between atoms: C_11  and  O_12
REMARK    5  A    between atoms: O_12  and  C_13
REMARK    6  A    between atoms: C_13  and  C_14
REMARK    7  A    between atoms: C_14  and  C_16
REMARK                            x       y       z     vdW  Elec       q    Type
REMARK                         _______ _______ _______ _____ _____    ______ ____
ROOT
ATOM      1  C   UNL     1      39.147   4.332  15.764  0.00  0.00    +0.000 A 
ATOM      2  C   UNL     1      40.023   5.404  15.897  0.00  0.00    +0.000 A 
ATOM      3  C   UNL     1      40.047   6.080  17.101  0.00  0.00    +0.000 A 
ATOM      4  C   UNL     1      39.240   5.730  18.162  0.00  0.00    +0.000 A 
ATOM      5  C   UNL     1      38.382   4.664  18.002  0.00  0.00    +0.000 A 
ATOM      6  C   UNL     1      38.329   3.957  16.803  0.00  0.00    +0.000 A 
ENDROOT
BRANCH   1   8
ATOM      7  N   UNL     1      39.136   2.146  14.493  0.00  0.00    +0.000 NA
ATOM      8  C   UNL     1      39.071   3.567  14.512  0.00  0.00    +0.000 C 
ATOM      9  O   UNL     1      38.944   4.178  13.413  0.00  0.00    +0.000 OA
BRANCH   7  11
ATOM     10  C   UNL     1      37.388   1.295  13.153  0.00  0.00    +0.000 C 
ATOM     11  C   UNL     1      39.034   1.508  13.039  0.00  0.00    +0.000 C 
BRANCH  11  12
ATOM     12  C   UNL     1      39.384   0.025  13.504  0.00  0.00    +0.000 A 
ATOM     13  C   UNL     1      39.675  -0.231  14.790  0.00  0.00    +0.000 A 
ATOM     14  C   UNL     1      39.979  -1.519  15.176  0.00  0.00    +0.000 A 
ATOM     15  C   UNL     1      39.988  -2.555  14.267  0.00  0.00    +0.000 A 
ATOM     16  C   UNL     1      39.682  -2.252  12.959  0.00  0.00    +0.000 A 
ATOM     17  C   UNL     1      39.381  -0.960  12.584  0.00  0.00    +0.000 A 
ENDBRANCH  11  12
ENDBRANCH   7  11
ENDBRANCH   1   8
BRANCH   6  18
ATOM     18  O   UNL     1      37.485   2.878  16.593  0.00  0.00    +0.000 OA
BRANCH  18  19
ATOM     19  C   UNL     1      36.111   3.147  16.424  0.00  0.00    +0.000 C 
BRANCH  19  20
ATOM     20  C   UNL     1      35.268   1.955  16.575  0.00  0.00    +0.000 C 
ATOM     21  O   UNL     1      34.019   2.108  16.542  0.00  0.00    +0.000 OA
BRANCH  20  22
ATOM     22  C   UNL     1      35.811   0.614  16.759  0.00  0.00    +0.000 A 
ATOM     23  C   UNL     1      36.352   0.208  17.955  0.00  0.00    +0.000 A 
ATOM     24  C   UNL     1      36.861  -1.065  18.116  0.00  0.00    +0.000 A 
ATOM     25  C   UNL     1      36.851  -1.987  17.086  0.00  0.00    +0.000 A 
ATOM     26  C   UNL     1      36.314  -1.600  15.879  0.00  0.00    +0.000 A 
ATOM     27  C   UNL     1      35.803  -0.303  15.740  0.00  0.00    +0.000 A 
ATOM     28  C   UNL     1      36.250  -2.510  14.704  0.00  0.00    +0.000 C 
ATOM     29  C   UNL     1      36.894  -3.835  14.962  0.00  0.00    +0.000 C 
ATOM     30  C   UNL     1      36.671  -4.326  16.381  0.00  0.00    +0.000 C 
ATOM     31  C   UNL     1      37.413  -3.369  17.287  0.00  0.00    +0.000 C 
ENDBRANCH  20  22
ENDBRANCH  19  20
ENDBRANCH  18  19
ENDBRANCH   6  18
TORSDOF 7
ENDMDL
MODEL 4
REMARK VINA RESULT:      -6.6      1.975      5.507
REMARK  Name = 
REMARK  7 active torsions:
REMARK  status: ('A' for Active; 'I' for Inactive)
REMARK    1  A    between atoms: C_2  and  N_3
REMARK    2  A    between atoms: C_2  and  C_26
REMARK    3  A    between atoms: C_4  and  C_6
REMARK    4  A    between atoms: C_11  and  O_12
REMARK    5  A    between atoms: O_12  and  C_13
REMARK    6  A    between atoms: C_13  and  C_14
REMARK    7  A    between atoms: C_14  and  C_16
REMARK                            x       y       z     vdW  Elec       q    Type
REMARK                         _______ _______ _______ _____ _____    ______ ____
ROOT
ATOM      1  C   UNL     1      38.661   0.613  14.558  0.00  0.00    +0.000 A 
ATOM      2  C   UNL     1      39.921   0.036  14.440  0.00  0.00    +0.000 A 
ATOM      3  C   UNL     1      40.913   0.761  13.810  0.00  0.00    +0.000 A 
ATOM      4  C   UNL     1      40.698   2.023  13.300  0.00  0.00    +0.000 A 
ATOM      5  C   UNL     1      39.440   2.570  13.432  0.00  0.00    +0.000 A 
ATOM      6  C   UNL     1      38.413   1.871  14.061  0.00  0.00    +0.000 A 
ENDROOT
BRANCH   1   8
ATOM      7  N   UNL     1      37.496  -0.242  16.632  0.00  0.00    +0.000 NA
ATOM      8  C   UNL     1      37.560  -0.100  15.219  0.00  0.00    +0.000 C 
ATOM      9  O   UNL     1      36.635  -0.606  14.521  0.00  0.00    +0.000 OA
BRANCH   7  11
ATOM     10  C   UNL     1      36.491  -0.618  18.735  0.00  0.00    +0.000 C 
ATOM     11  C   UNL     1      36.224  -1.046  17.150  0.00  0.00    +0.000 C 
BRANCH  11  12
ATOM     12  C   UNL     1      36.975  -2.446  17.272  0.00  0.00    +0.000 A 
ATOM     13  C   UNL     1      38.032  -2.580  18.089  0.00  0.00    +0.000 A 
ATOM     14  C   UNL     1      38.672  -3.798  18.180  0.00  0.00    +0.000 A 
ATOM     15  C   UNL     1      38.248  -4.886  17.449  0.00  0.00    +0.000 A 
ATOM     16  C   UNL     1      37.160  -4.708  16.624  0.00  0.00    +0.000 A 
ATOM     17  C   UNL     1      36.528  -3.486  16.540  0.00  0.00    +0.000 A 
ENDBRANCH  11  12
ENDBRANCH   7  11
ENDBRANCH   1   8
BRANCH   6  18
ATOM     18  O   UNL     1      37.133   2.377  14.218  0.00  0.00    +0.000 OA
BRANCH  18  19
ATOM     19  C   UNL     1      37.005   3.671  14.763  0.00  0.00    +0.000 C 
BRANCH  19  20
ATOM     20  C   UNL     1      37.253   3.716  16.209  0.00  0.00    +0.000 C 
ATOM     21  O   UNL     1      36.495   3.048  16.959  0.00  0.00    +0.000 OA
BRANCH  20  22
ATOM     22  C   UNL     1      38.332   4.494  16.807  0.00  0.00    +0.000 A 
ATOM     23  C   UNL     1      38.405   4.713  18.162  0.00  0.00    +0.000 A 
ATOM     24  C   UNL     1      39.432   5.450  18.715  0.00  0.00    +0.000 A 
ATOM     25  C   UNL     1      40.432   6.001  17.936  0.00  0.00    +0.000 A 
ATOM     26  C   UNL     1      40.377   5.795  16.576  0.00  0.00    +0.000 A 
ATOM     27  C   UNL     1      39.325   5.042  16.037  0.00  0.00    +0.000 A 
ATOM     28  C   UNL     1      41.400   6.340  15.643  0.00  0.00    +0.000 C 
ATOM     29  C   UNL     1      42.424   7.182  16.334  0.00  0.00    +0.000 C 
ATOM     30  C   UNL     1      42.782   6.653  17.711  0.00  0.00    +0.000 C 
ATOM     31  C   UNL     1      41.542   6.802  18.563  0.00  0.00    +0.000 C 
ENDBRANCH  20  22
ENDBRANCH  19  20
ENDBRANCH  18  19
ENDBRANCH   6  18
TORSDOF 7
ENDMDL
MODEL 5
REMARK VINA RESULT:      -6.6      7.028      9.778
REMARK  Name = 
REMARK  7 active torsions:
REMARK  status: ('A' for Active; 'I' for Inactive)
REMARK    1  A    between atoms: C_2  and  N_3
REMARK    2  A    between atoms: C_2  and  C_26
REMARK    3  A    between atoms: C_4  and  C_6
REMARK    4  A    between atoms: C_11  and  O_12
REMARK    5  A    between atoms: O_12  and  C_13
REMARK    6  A    between atoms: C_13  and  C_14
REMARK    7  A    between atoms: C_14  and  C_16
REMARK                            x       y       z     vdW  Elec       q    Type
REMARK                         _______ _______ _______ _____ _____    ______ ____
ROOT
ATOM      1  C   UNL     1      36.253   9.442  17.650  0.00  0.00    +0.000 A 
ATOM      2  C   UNL     1      34.991  10.026  17.613  0.00  0.00    +0.000 A 
ATOM      3  C   UNL     1      34.327  10.067  16.403  0.00  0.00    +0.000 A 
ATOM      4  C   UNL     1      34.868   9.555  15.244  0.00  0.00    +0.000 A 
ATOM      5  C   UNL     1      36.120   8.982  15.310  0.00  0.00    +0.000 A 
ATOM      6  C   UNL     1      36.822   8.922  16.512  0.00  0.00    +0.000 A 
ENDROOT
BRANCH   1   8
ATOM      7  N   UNL     1      38.036  10.298  19.225  0.00  0.00    +0.000 NA
ATOM      8  C   UNL     1      37.014   9.362  18.903  0.00  0.00    +0.000 C 
ATOM      9  O   UNL     1      36.763   8.439  19.730  0.00  0.00    +0.000 OA
BRANCH   7  11
ATOM     10  C   UNL     1      38.641  11.639  21.070  0.00  0.00    +0.000 C 
ATOM     11  C   UNL     1      38.739  10.039  20.629  0.00  0.00    +0.000 C 
BRANCH  11  12
ATOM     12  C   UNL     1      40.228  10.155  20.071  0.00  0.00    +0.000 A 
ATOM     13  C   UNL     1      40.465  10.070  18.751  0.00  0.00    +0.000 A 
ATOM     14  C   UNL     1      41.759  10.169  18.285  0.00  0.00    +0.000 A 
ATOM     15  C   UNL     1      42.818  10.356  19.148  0.00  0.00    +0.000 A 
ATOM     16  C   UNL     1      42.532  10.439  20.492  0.00  0.00    +0.000 A 
ATOM     17  C   UNL     1      41.235  10.337  20.947  0.00  0.00    +0.000 A 
ENDBRANCH  11  12
ENDBRANCH   7  11
ENDBRANCH   1   8
BRANCH   6  18
ATOM     18  O   UNL     1      38.081   8.357  16.629  0.00  0.00    +0.000 OA
BRANCH  18  19
ATOM     19  C   UNL     1      38.264   7.055  16.119  0.00  0.00    +0.000 C 
BRANCH  19  20
ATOM     20  C   UNL     1      38.637   6.079  17.150  0.00  0.00    +0.000 C 
ATOM     21  O   UNL     1      37.974   5.011  17.218  0.00  0.00    +0.000 OA
BRANCH  20  22
ATOM     22  C   UNL     1      39.732   6.292  18.089  0.00  0.00    +0.000 A 
ATOM     23  C   UNL     1      39.525   6.346  19.446  0.00  0.00    +0.000 A 
ATOM     24  C   UNL     1      40.572   6.546  20.324  0.00  0.00    +0.000 A 
ATOM     25  C   UNL     1      41.871   6.702  19.881  0.00  0.00    +0.000 A 
ATOM     26  C   UNL     1      42.101   6.652  18.525  0.00  0.00    +0.000 A 
ATOM     27  C   UNL     1      41.023   6.447  17.653  0.00  0.00    +0.000 A 
ATOM     28  C   UNL     1      43.459   6.806  17.938  0.00  0.00    +0.000 C 
ATOM     29  C   UNL     1      44.506   7.092  18.966  0.00  0.00    +0.000 C 
ATOM     30  C   UNL     1      44.264   6.348  20.267  0.00  0.00    +0.000 C 
ATOM     31  C   UNL     1      42.995   6.920  20.858  0.00  0.00    +0.000 C 
ENDBRANCH  20  22
ENDBRANCH  19  20
ENDBRANCH  18  19
ENDBRANCH   6  18
TORSDOF 7
ENDMDL
MODEL 6
REMARK VINA RESULT:      -6.4      1.767      6.014
REMARK  Name = 
REMARK  7 active torsions:
REMARK  status: ('A' for Active; 'I' for Inactive)
REMARK    1  A    between atoms: C_2  and  N_3
REMARK    2  A    between atoms: C_2  and  C_26
REMARK    3  A    between atoms: C_4  and  C_6
REMARK    4  A    between atoms: C_11  and  O_12
REMARK    5  A    between atoms: O_12  and  C_13
REMARK    6  A    between atoms: C_13  and  C_14
REMARK    7  A    between atoms: C_14  and  C_16
REMARK                            x       y       z     vdW  Elec       q    Type
REMARK                         _______ _______ _______ _____ _____    ______ ____
ROOT
ATOM      1  C   UNL     1      37.057  -1.074  17.030  0.00  0.00    +0.000 A 
ATOM      2  C   UNL     1      37.300  -1.535  18.320  0.00  0.00    +0.000 A 
ATOM      3  C   UNL     1      36.580  -0.975  19.357  0.00  0.00    +0.000 A 
ATOM      4  C   UNL     1      35.642   0.014  19.159  0.00  0.00    +0.000 A 
ATOM      5  C   UNL     1      35.422   0.451  17.870  0.00  0.00    +0.000 A 
ATOM      6  C   UNL     1      36.127  -0.088  16.797  0.00  0.00    +0.000 A 
ENDROOT
BRANCH   1   8
ATOM      7  N   UNL     1      39.045  -1.112  15.468  0.00  0.00    +0.000 NA
ATOM      8  C   UNL     1      37.784  -1.626  15.879  0.00  0.00    +0.000 C 
ATOM      9  O   UNL     1      37.285  -2.587  15.227  0.00  0.00    +0.000 OA
BRANCH   7  11
ATOM     10  C   UNL     1      40.638  -2.823  15.138  0.00  0.00    +0.000 C 
ATOM     11  C   UNL     1      39.668  -1.848  14.202  0.00  0.00    +0.000 C 
BRANCH  11  12
ATOM     12  C   UNL     1      40.802  -0.759  13.942  0.00  0.00    +0.000 A 
ATOM     13  C   UNL     1      40.477   0.459  13.478  0.00  0.00    +0.000 A 
ATOM     14  C   UNL     1      41.470   1.389  13.255  0.00  0.00    +0.000 A 
ATOM     15  C   UNL     1      42.794   1.096  13.501  0.00  0.00    +0.000 A 
ATOM     16  C   UNL     1      43.085  -0.162  13.977  0.00  0.00    +0.000 A 
ATOM     17  C   UNL     1      42.084  -1.086  14.196  0.00  0.00    +0.000 A 
ENDBRANCH  11  12
ENDBRANCH   7  11
ENDBRANCH   1   8
BRANCH   6  18
ATOM     18  O   UNL     1      35.943   0.317  15.485  0.00  0.00    +0.000 OA
BRANCH  18  19
ATOM     19  C   UNL     1      35.861   1.702  15.234  0.00  0.00    +0.000 C 
BRANCH  19  20
ATOM     20  C   UNL     1      37.004   2.218  14.472  0.00  0.00    +0.000 C 
ATOM     21  O   UNL     1      37.187   1.774  13.309  0.00  0.00    +0.000 OA
BRANCH  20  22
ATOM     22  C   UNL     1      37.927   3.216  15.000  0.00  0.00    +0.000 A 
ATOM     23  C   UNL     1      38.866   3.829  14.206  0.00  0.00    +0.000 A 
ATOM     24  C   UNL     1      39.733   4.773  14.719  0.00  0.00    +0.000 A 
ATOM     25  C   UNL     1      39.698   5.144  16.051  0.00  0.00    +0.000 A 
ATOM     26  C   UNL     1      38.765   4.541  16.863  0.00  0.00    +0.000 A 
ATOM     27  C   UNL     1      37.895   3.586  16.320  0.00  0.00    +0.000 A 
ATOM     28  C   UNL     1      38.637   4.865  18.310  0.00  0.00    +0.000 C 
ATOM     29  C   UNL     1      39.668   5.841  18.779  0.00  0.00    +0.000 C 
ATOM     30  C   UNL     1      39.989   6.897  17.737  0.00  0.00    +0.000 C 
ATOM     31  C   UNL     1      40.654   6.176  16.586  0.00  0.00    +0.000 C 
ENDBRANCH  20  22
ENDBRANCH  19  20
ENDBRANCH  18  19
ENDBRANCH   6  18
TORSDOF 7
ENDMDL
MODEL 7
REMARK VINA RESULT:      -6.4      2.298      5.683
REMARK  Name = 
REMARK  7 active torsions:
REMARK  status: ('A' for Active; 'I' for Inactive)
REMARK    1  A    between atoms: C_2  and  N_3
REMARK    2  A    between atoms: C_2  and  C_26
REMARK    3  A    between atoms: C_4  and  C_6
REMARK    4  A    between atoms: C_11  and  O_12
REMARK    5  A    between atoms: O_12  and  C_13
REMARK    6  A    between atoms: C_13  and  C_14
REMARK    7  A    between atoms: C_14  and  C_16
REMARK                            x       y       z     vdW  Elec       q    Type
REMARK                         _______ _______ _______ _____ _____    ______ ____
ROOT
ATOM      1  C   UNL     1      37.744  -2.050  17.162  0.00  0.00    +0.000 A 
ATOM      2  C   UNL     1      38.386  -2.471  18.322  0.00  0.00    +0.000 A 
ATOM      3  C   UNL     1      37.834  -2.116  19.537  0.00  0.00    +0.000 A 
ATOM      4  C   UNL     1      36.682  -1.367  19.637  0.00  0.00    +0.000 A 
ATOM      5  C   UNL     1      36.068  -0.963  18.472  0.00  0.00    +0.000 A 
ATOM      6  C   UNL     1      36.593  -1.301  17.226  0.00  0.00    +0.000 A 
ENDROOT
BRANCH   1   8
ATOM      7  N   UNL     1      39.196  -1.554  15.153  0.00  0.00    +0.000 NA
ATOM      8  C   UNL     1      38.273  -2.393  15.836  0.00  0.00    +0.000 C 
ATOM      9  O   UNL     1      37.907  -3.465  15.274  0.00  0.00    +0.000 OA
BRANCH   7  11
ATOM     10  C   UNL     1      41.135  -2.595  14.299  0.00  0.00    +0.000 C 
ATOM     11  C   UNL     1      39.651  -2.104  13.731  0.00  0.00    +0.000 C 
BRANCH  11  12
ATOM     12  C   UNL     1      40.181  -0.701  13.193  0.00  0.00    +0.000 A 
ATOM     13  C   UNL     1      40.431  -0.527  11.885  0.00  0.00    +0.000 A 
ATOM     14  C   UNL     1      40.892   0.692  11.436  0.00  0.00    +0.000 A 
ATOM     15  C   UNL     1      41.102   1.741  12.305  0.00  0.00    +0.000 A 
ATOM     16  C   UNL     1      40.833   1.523  13.637  0.00  0.00    +0.000 A 
ATOM     17  C   UNL     1      40.373   0.299  14.075  0.00  0.00    +0.000 A 
ENDBRANCH  11  12
ENDBRANCH   7  11
ENDBRANCH   1   8
BRANCH   6  18
ATOM     18  O   UNL     1      36.012  -0.920  16.027  0.00  0.00    +0.000 OA
BRANCH  18  19
ATOM     19  C   UNL     1      35.614   0.426  15.893  0.00  0.00    +0.000 C 
BRANCH  19  20
ATOM     20  C   UNL     1      36.668   1.287  15.344  0.00  0.00    +0.000 C 
ATOM     21  O   UNL     1      37.374   1.943  16.153  0.00  0.00    +0.000 OA
BRANCH  20  22
ATOM     22  C   UNL     1      36.930   1.414  13.915  0.00  0.00    +0.000 A 
ATOM     23  C   UNL     1      36.713   0.374  13.043  0.00  0.00    +0.000 A 
ATOM     24  C   UNL     1      36.963   0.507  11.692  0.00  0.00    +0.000 A 
ATOM     25  C   UNL     1      37.441   1.688  11.155  0.00  0.00    +0.000 A 
ATOM     26  C   UNL     1      37.664   2.742  12.011  0.00  0.00    +0.000 A 
ATOM     27  C   UNL     1      37.403   2.583  13.379  0.00  0.00    +0.000 A 
ATOM     28  C   UNL     1      38.175   4.058  11.542  0.00  0.00    +0.000 C 
ATOM     29  C   UNL     1      38.482   4.073  10.079  0.00  0.00    +0.000 C 
ATOM     30  C   UNL     1      37.498   3.249   9.268  0.00  0.00    +0.000 C 
ATOM     31  C   UNL     1      37.705   1.808   9.678  0.00  0.00    +0.000 C 
ENDBRANCH  20  22
ENDBRANCH  19  20
ENDBRANCH  18  19
ENDBRANCH   6  18
TORSDOF 7
ENDMDL
MODEL 8
REMARK VINA RESULT:      -6.3      2.078      6.147
REMARK  Name = 
REMARK  7 active torsions:
REMARK  status: ('A' for Active; 'I' for Inactive)
REMARK    1  A    between atoms: C_2  and  N_3
REMARK    2  A    between atoms: C_2  and  C_26
REMARK    3  A    between atoms: C_4  and  C_6
REMARK    4  A    between atoms: C_11  and  O_12
REMARK    5  A    between atoms: O_12  and  C_13
REMARK    6  A    between atoms: C_13  and  C_14
REMARK    7  A    between atoms: C_14  and  C_16
REMARK                            x       y       z     vdW  Elec       q    Type
REMARK                         _______ _______ _______ _____ _____    ______ ____
ROOT
ATOM      1  C   UNL     1      40.779  -0.260  13.990  0.00  0.00    +0.000 A 
ATOM      2  C   UNL     1      41.849  -1.076  14.345  0.00  0.00    +0.000 A 
ATOM      3  C   UNL     1      43.127  -0.628  14.077  0.00  0.00    +0.000 A 
ATOM      4  C   UNL     1      43.375   0.587  13.476  0.00  0.00    +0.000 A 
ATOM      5  C   UNL     1      42.297   1.375  13.136  0.00  0.00    +0.000 A 
ATOM      6  C   UNL     1      40.992   0.958  13.389  0.00  0.00    +0.000 A 
ENDROOT
BRANCH   1   8
ATOM      7  N   UNL     1      38.718  -0.332  15.451  0.00  0.00    +0.000 NA
ATOM      8  C   UNL     1      39.394  -0.673  14.247  0.00  0.00    +0.000 C 
ATOM      9  O   UNL     1      38.772  -1.351  13.380  0.00  0.00    +0.000 OA
BRANCH   7  11
ATOM     10  C   UNL     1      36.600   0.645  15.816  0.00  0.00    +0.000 C 
ATOM     11  C   UNL     1      37.223  -0.872  15.535  0.00  0.00    +0.000 C 
BRANCH  11  12
ATOM     12  C   UNL     1      37.296  -1.264  17.078  0.00  0.00    +0.000 A 
ATOM     13  C   UNL     1      36.471  -0.683  17.965  0.00  0.00    +0.000 A 
ATOM     14  C   UNL     1      36.549  -1.032  19.296  0.00  0.00    +0.000 A 
ATOM     15  C   UNL     1      37.458  -1.969  19.739  0.00  0.00    +0.000 A 
ATOM     16  C   UNL     1      38.284  -2.541  18.799  0.00  0.00    +0.000 A 
ATOM     17  C   UNL     1      38.198  -2.185  17.469  0.00  0.00    +0.000 A 
ENDBRANCH  11  12
ENDBRANCH   7  11
ENDBRANCH   1   8
BRANCH   6  18
ATOM     18  O   UNL     1      39.876   1.713  13.066  0.00  0.00    +0.000 OA
BRANCH  18  19
ATOM     19  C   UNL     1      39.921   3.096  13.338  0.00  0.00    +0.000 C 
BRANCH  19  20
ATOM     20  C   UNL     1      38.782   3.565  14.136  0.00  0.00    +0.000 C 
ATOM     21  O   UNL     1      37.626   3.399  13.668  0.00  0.00    +0.000 OA
BRANCH  20  22
ATOM     22  C   UNL     1      38.933   4.208  15.436  0.00  0.00    +0.000 A 
ATOM     23  C   UNL     1      38.046   3.987  16.463  0.00  0.00    +0.000 A 
ATOM     24  C   UNL     1      38.201   4.601  17.690  0.00  0.00    +0.000 A 
ATOM     25  C   UNL     1      39.251   5.464  17.941  0.00  0.00    +0.000 A 
ATOM     26  C   UNL     1      40.150   5.700  16.927  0.00  0.00    +0.000 A 
ATOM     27  C   UNL     1      39.973   5.064  15.691  0.00  0.00    +0.000 A 
ATOM     28  C   UNL     1      41.318   6.608  17.088  0.00  0.00    +0.000 C 
ATOM     29  C   UNL     1      41.351   7.277  18.425  0.00  0.00    +0.000 C 
ATOM     30  C   UNL     1      40.868   6.371  19.543  0.00  0.00    +0.000 C 
ATOM     31  C   UNL     1      39.399   6.122  19.288  0.00  0.00    +0.000 C 
ENDBRANCH  20  22
ENDBRANCH  19  20
ENDBRANCH  18  19
ENDBRANCH   6  18
TORSDOF 7
ENDMDL
MODEL 9
REMARK VINA RESULT:      -6.3      2.488      5.190
REMARK  Name = 
REMARK  7 active torsions:
REMARK  status: ('A' for Active; 'I' for Inactive)
REMARK    1  A    between atoms: C_2  and  N_3
REMARK    2  A    between atoms: C_2  and  C_26
REMARK    3  A    between atoms: C_4  and  C_6
REMARK    4  A    between atoms: C_11  and  O_12
REMARK    5  A    between atoms: O_12  and  C_13
REMARK    6  A    between atoms: C_13  and  C_14
REMARK    7  A    between atoms: C_14  and  C_16
REMARK                            x       y       z     vdW  Elec       q    Type
REMARK                         _______ _______ _______ _____ _____    ______ ____
ROOT
ATOM      1  C   UNL     1      36.720   0.660  15.876  0.00  0.00    +0.000 A 
ATOM      2  C   UNL     1      35.445   1.121  16.189  0.00  0.00    +0.000 A 
ATOM      3  C   UNL     1      34.646   0.331  16.991  0.00  0.00    +0.000 A 
ATOM      4  C   UNL     1      35.065  -0.885  17.487  0.00  0.00    +0.000 A 
ATOM      5  C   UNL     1      36.333  -1.316  17.161  0.00  0.00    +0.000 A 
ATOM      6  C   UNL     1      37.170  -0.548  16.354  0.00  0.00    +0.000 A 
ENDROOT
BRANCH   1   8
ATOM      7  N   UNL     1      37.743   1.217  13.632  0.00  0.00    +0.000 NA
ATOM      8  C   UNL     1      37.624   1.450  15.030  0.00  0.00    +0.000 C 
ATOM      9  O   UNL     1      38.323   2.368  15.548  0.00  0.00    +0.000 OA
BRANCH   7  11
ATOM     10  C   UNL     1      37.635   2.702  11.801  0.00  0.00    +0.000 C 
ATOM     11  C   UNL     1      38.774   2.180  12.895  0.00  0.00    +0.000 C 
BRANCH  11  12
ATOM     12  C   UNL     1      39.364   1.054  11.933  0.00  0.00    +0.000 A 
ATOM     13  C   UNL     1      38.959  -0.221  12.054  0.00  0.00    +0.000 A 
ATOM     14  C   UNL     1      39.482  -1.182  11.216  0.00  0.00    +0.000 A 
ATOM     15  C   UNL     1      40.413  -0.862  10.252  0.00  0.00    +0.000 A 
ATOM     16  C   UNL     1      40.801   0.455  10.160  0.00  0.00    +0.000 A 
ATOM     17  C   UNL     1      40.272   1.409  11.004  0.00  0.00    +0.000 A 
ENDBRANCH  11  12
ENDBRANCH   7  11
ENDBRANCH   1   8
BRANCH   6  18
ATOM     18  O   UNL     1      38.451  -0.937  15.999  0.00  0.00    +0.000 OA
BRANCH  18  19
ATOM     19  C   UNL     1      38.591  -2.129  15.260  0.00  0.00    +0.000 C 
BRANCH  19  20
ATOM     20  C   UNL     1      39.944  -2.694  15.327  0.00  0.00    +0.000 C 
ATOM     21  O   UNL     1      40.187  -3.539  16.227  0.00  0.00    +0.000 OA
BRANCH  20  22
ATOM     22  C   UNL     1      41.009  -2.321  14.403  0.00  0.00    +0.000 A 
ATOM     23  C   UNL     1      41.540  -3.218  13.507  0.00  0.00    +0.000 A 
ATOM     24  C   UNL     1      42.546  -2.851  12.636  0.00  0.00    +0.000 A 
ATOM     25  C   UNL     1      43.065  -1.570  12.624  0.00  0.00    +0.000 A 
ATOM     26  C   UNL     1      42.547  -0.656  13.513  0.00  0.00    +0.000 A 
ATOM     27  C   UNL     1      41.525  -1.051  14.387  0.00  0.00    +0.000 A 
ATOM     28  C   UNL     1      43.028   0.750  13.585  0.00  0.00    +0.000 C 
ATOM     29  C   UNL     1      44.166   1.021  12.654  0.00  0.00    +0.000 C 
ATOM     30  C   UNL     1      44.033   0.276  11.338  0.00  0.00    +0.000 C 
ATOM     31  C   UNL     1      44.162  -1.195  11.664  0.00  0.00    +0.000 C 
ENDBRANCH  20  22
ENDBRANCH  19  20
ENDBRANCH  18  19
ENDBRANCH   6  18
TORSDOF 7
ENDMDL
MODEL 10
REMARK VINA RESULT:      -6.2      2.592      5.952
REMARK  Name = 
REMARK  7 active torsions:
REMARK  status: ('A' for Active; 'I' for Inactive)
REMARK    1  A    between atoms: C_2  and  N_3
REMARK    2  A    between atoms: C_2  and  C_26
REMARK    3  A    between atoms: C_4  and  C_6
REMARK    4  A    between atoms: C_11  and  O_12
REMARK    5  A    between atoms: O_12  and  C_13
REMARK    6  A    between atoms: C_13  and  C_14
REMARK    7  A    between atoms: C_14  and  C_16
REMARK                            x       y       z     vdW  Elec       q    Type
REMARK                         _______ _______ _______ _____ _____    ______ ____
ROOT
ATOM      1  C   UNL     1      39.800   0.483  14.165  0.00  0.00    +0.000 A 
ATOM      2  C   UNL     1      40.690   1.359  13.551  0.00  0.00    +0.000 A 
ATOM      3  C   UNL     1      42.011   0.974  13.440  0.00  0.00    +0.000 A 
ATOM      4  C   UNL     1      42.472  -0.235  13.913  0.00  0.00    +0.000 A 
ATOM      5  C   UNL     1      41.569  -1.083  14.516  0.00  0.00    +0.000 A 
ATOM      6  C   UNL     1      40.227  -0.731  14.647  0.00  0.00    +0.000 A 
ENDROOT
BRANCH   1   8
ATOM      7  N   UNL     1      37.877   1.457  15.485  0.00  0.00    +0.000 NA
ATOM      8  C   UNL     1      38.380   0.827  14.314  0.00  0.00    +0.000 C 
ATOM      9  O   UNL     1      37.571   0.561  13.380  0.00  0.00    +0.000 OA
BRANCH   7  11
ATOM     10  C   UNL     1      36.453   3.096  16.412  0.00  0.00    +0.000 C 
ATOM     11  C   UNL     1      36.312   1.747  15.449  0.00  0.00    +0.000 C 
BRANCH  11  12
ATOM     12  C   UNL     1      35.954   0.770  16.656  0.00  0.00    +0.000 A 
ATOM     13  C   UNL     1      36.346   1.065  17.906  0.00  0.00    +0.000 A 
ATOM     14  C   UNL     1      36.031   0.207  18.938  0.00  0.00    +0.000 A 
ATOM     15  C   UNL     1      35.318  -0.952  18.714  0.00  0.00    +0.000 A 
ATOM     16  C   UNL     1      34.934  -1.217  17.419  0.00  0.00    +0.000 A 
ATOM     17  C   UNL     1      35.256  -0.353  16.394  0.00  0.00    +0.000 A 
ENDBRANCH  11  12
ENDBRANCH   7  11
ENDBRANCH   1   8
BRANCH   6  18
ATOM     18  O   UNL     1      39.281  -1.548  15.244  0.00  0.00    +0.000 OA
BRANCH  18  19
ATOM     19  C   UNL     1      39.747  -2.649  15.992  0.00  0.00    +0.000 C 
BRANCH  19  20
ATOM     20  C   UNL     1      38.772  -3.132  16.977  0.00  0.00    +0.000 C 
ATOM     21  O   UNL     1      38.872  -2.715  18.160  0.00  0.00    +0.000 OA
BRANCH  20  22
ATOM     22  C   UNL     1      37.702  -4.066  16.645  0.00  0.00    +0.000 A 
ATOM     23  C   UNL     1      37.712  -5.368  17.084  0.00  0.00    +0.000 A 
ATOM     24  C   UNL     1      36.692  -6.241  16.764  0.00  0.00    +0.000 A 
ATOM     25  C   UNL     1      35.616  -5.848  15.991  0.00  0.00    +0.000 A 
ATOM     26  C   UNL     1      35.586  -4.548  15.540  0.00  0.00    +0.000 A 
ATOM     27  C   UNL     1      36.633  -3.680  15.878  0.00  0.00    +0.000 A 
ATOM     28  C   UNL     1      34.476  -4.017  14.703  0.00  0.00    +0.000 C 
ATOM     29  C   UNL     1      33.464  -5.061  14.354  0.00  0.00    +0.000 C 
ATOM     30  C   UNL     1      33.228  -6.045  15.484  0.00  0.00    +0.000 C 
ATOM     31  C   UNL     1      34.515  -6.819  15.655  0.00  0.00    +0.000 C 
ENDBRANCH  20  22
ENDBRANCH  19  20
ENDBRANCH  18  19
ENDBRANCH   6  18
TORSDOF 7
ENDMDL
