MODEL 1
REMARK VINA RESULT:      -7.7      0.000      0.000
REMARK  Name = 
REMARK  8 active torsions:
REMARK  status: ('A' for Active; 'I' for Inactive)
REMARK    1  A    between atoms: C_2  and  O_3
REMARK    2  A    between atoms: O_3  and  C_4
REMARK    3  A    between atoms: C_7  and  N_8
REMARK    4  A    between atoms: C_12  and  C_13
REMARK    5  A    between atoms: C_13  and  C_15
REMARK    6  A    between atoms: C_15  and  O_16
REMARK    7  A    between atoms: O_16  and  C_17
REMARK    8  A    between atoms: C_17  and  C_19
REMARK                            x       y       z     vdW  Elec       q    Type
REMARK                         _______ _______ _______ _____ _____    ______ ____
ROOT
ATOM      1  N   UNL     1      37.765  -0.980  14.847  0.00  0.00    +0.000 N 
ATOM      2  C   UNL     1      36.808  -1.533  15.609  0.00  0.00    +0.000 A 
ATOM      3  C   UNL     1      36.731  -2.968  16.022  0.00  0.00    +0.000 C 
ATOM      4  C   UNL     1      35.882  -0.586  15.974  0.00  0.00    +0.000 A 
ATOM      5  C   UNL     1      36.293   0.621  15.402  0.00  0.00    +0.000 A 
ATOM      6  C   UNL     1      37.453   0.306  14.726  0.00  0.00    +0.000 A 
ATOM      7  C   UNL     1      38.248   1.304  13.955  0.00  0.00    +0.000 C 
ENDROOT
BRANCH   1  11
ATOM      8  C   UNL     1      41.147  -2.919  13.156  0.00  0.00    +0.000 A 
ATOM      9  C   UNL     1      39.950  -2.834  12.473  0.00  0.00    +0.000 A 
ATOM     10  C   UNL     1      38.847  -2.206  13.013  0.00  0.00    +0.000 A 
ATOM     11  C   UNL     1      38.904  -1.637  14.270  0.00  0.00    +0.000 A 
ATOM     12  C   UNL     1      40.103  -1.726  14.949  0.00  0.00    +0.000 A 
ATOM     13  C   UNL     1      41.219  -2.353  14.418  0.00  0.00    +0.000 A 
BRANCH   8  14
ATOM     14  O   UNL     1      42.275  -3.544  12.641  0.00  0.00    +0.000 OA
BRANCH  14  16
ATOM     15  C   UNL     1      44.148  -2.469  11.634  0.00  0.00    +0.000 C 
ATOM     16  C   UNL     1      43.537  -2.939  12.957  0.00  0.00    +0.000 C 
ENDBRANCH  14  16
ENDBRANCH   8  14
ENDBRANCH   1  11
BRANCH   5  17
ATOM     17  C   UNL     1      35.620   1.917  15.514  0.00  0.00    +0.000 C 
ATOM     18  O   UNL     1      34.827   2.269  14.622  0.00  0.00    +0.000 OA
BRANCH  17  19
ATOM     19  C   UNL     1      35.932   2.743  16.703  0.00  0.00    +0.000 C 
BRANCH  19  20
ATOM     20  O   UNL     1      37.282   3.089  16.788  0.00  0.00    +0.000 OA
BRANCH  20  21
ATOM     21  C   UNL     1      37.815   4.292  16.363  0.00  0.00    +0.000 C 
ATOM     22  O   UNL     1      37.336   4.788  15.313  0.00  0.00    +0.000 OA
BRANCH  21  23
ATOM     23  C   UNL     1      38.883   4.985  17.069  0.00  0.00    +0.000 A 
ATOM     24  C   UNL     1      38.914   5.184  18.433  0.00  0.00    +0.000 A 
ATOM     25  C   UNL     1      40.054   5.867  18.769  0.00  0.00    +0.000 A 
ATOM     26  C   UNL     1      40.529   6.296  19.990  0.00  0.00    +0.000 A 
ATOM     27  C   UNL     1      41.722   6.970  20.030  0.00  0.00    +0.000 A 
ATOM     28  C   UNL     1      42.409   7.200  18.865  0.00  0.00    +0.000 A 
ATOM     29  C   UNL     1      41.923   6.765  17.641  0.00  0.00    +0.000 A 
ATOM     30  C   UNL     1      40.710   6.076  17.574  0.00  0.00    +0.000 A 
ATOM     31  N   UNL     1      39.999   5.543  16.564  0.00  0.00    +0.000 NA
ENDBRANCH  21  23
ENDBRANCH  20  21
ENDBRANCH  19  20
ENDBRANCH  17  19
ENDBRANCH   5  17
TORSDOF 8
ENDMDL
MODEL 2
REMARK VINA RESULT:      -7.6      3.133      5.250
REMARK  Name = 
REMARK  8 active torsions:
REMARK  status: ('A' for Active; 'I' for Inactive)
REMARK    1  A    between atoms: C_2  and  O_3
REMARK    2  A    between atoms: O_3  and  C_4
REMARK    3  A    between atoms: C_7  and  N_8
REMARK    4  A    between atoms: C_12  and  C_13
REMARK    5  A    between atoms: C_13  and  C_15
REMARK    6  A    between atoms: C_15  and  O_16
REMARK    7  A    between atoms: O_16  and  C_17
REMARK    8  A    between atoms: C_17  and  C_19
REMARK                            x       y       z     vdW  Elec       q    Type
REMARK                         _______ _______ _______ _____ _____    ______ ____
ROOT
ATOM      1  N   UNL     1      35.801  -2.287  15.583  0.00  0.00    +0.000 N 
ATOM      2  C   UNL     1      35.333  -1.317  16.385  0.00  0.00    +0.000 A 
ATOM      3  C   UNL     1      34.230  -1.458  17.386  0.00  0.00    +0.000 C 
ATOM      4  C   UNL     1      36.015  -0.146  16.166  0.00  0.00    +0.000 A 
ATOM      5  C   UNL     1      36.958  -0.408  15.169  0.00  0.00    +0.000 A 
ATOM      6  C   UNL     1      36.771  -1.739  14.859  0.00  0.00    +0.000 A 
ATOM      7  C   UNL     1      37.571  -2.461  13.828  0.00  0.00    +0.000 C 
ENDROOT
BRANCH   1  11
ATOM      8  C   UNL     1      34.449  -6.309  15.358  0.00  0.00    +0.000 A 
ATOM      9  C   UNL     1      35.516  -5.953  16.159  0.00  0.00    +0.000 A 
ATOM     10  C   UNL     1      35.962  -4.649  16.239  0.00  0.00    +0.000 A 
ATOM     11  C   UNL     1      35.350  -3.648  15.512  0.00  0.00    +0.000 A 
ATOM     12  C   UNL     1      34.284  -4.011  14.712  0.00  0.00    +0.000 A 
ATOM     13  C   UNL     1      33.825  -5.315  14.622  0.00  0.00    +0.000 A 
BRANCH   8  14
ATOM     14  O   UNL     1      33.976  -7.610  15.255  0.00  0.00    +0.000 OA
BRANCH  14  16
ATOM     15  C   UNL     1      32.267  -9.207  15.709  0.00  0.00    +0.000 C 
ATOM     16  C   UNL     1      33.079  -8.045  16.286  0.00  0.00    +0.000 C 
ENDBRANCH  14  16
ENDBRANCH   8  14
ENDBRANCH   1  11
BRANCH   5  17
ATOM     17  C   UNL     1      37.920   0.539  14.601  0.00  0.00    +0.000 C 
ATOM     18  O   UNL     1      39.066   0.600  15.078  0.00  0.00    +0.000 OA
BRANCH  17  19
ATOM     19  C   UNL     1      37.457   1.380  13.473  0.00  0.00    +0.000 C 
BRANCH  19  20
ATOM     20  O   UNL     1      37.565   2.748  13.732  0.00  0.00    +0.000 OA
BRANCH  20  21
ATOM     21  C   UNL     1      37.093   3.373  14.870  0.00  0.00    +0.000 C 
ATOM     22  O   UNL     1      35.857   3.305  15.088  0.00  0.00    +0.000 OA
BRANCH  21  23
ATOM     23  C   UNL     1      37.953   4.089  15.802  0.00  0.00    +0.000 A 
ATOM     24  C   UNL     1      39.079   4.796  15.436  0.00  0.00    +0.000 A 
ATOM     25  C   UNL     1      39.655   5.347  16.552  0.00  0.00    +0.000 A 
ATOM     26  C   UNL     1      40.780   6.129  16.701  0.00  0.00    +0.000 A 
ATOM     27  C   UNL     1      41.127   6.546  17.960  0.00  0.00    +0.000 A 
ATOM     28  C   UNL     1      40.353   6.180  19.031  0.00  0.00    +0.000 A 
ATOM     29  C   UNL     1      39.222   5.393  18.872  0.00  0.00    +0.000 A 
ATOM     30  C   UNL     1      38.847   4.955  17.600  0.00  0.00    +0.000 A 
ATOM     31  N   UNL     1      37.833   4.203  17.138  0.00  0.00    +0.000 NA
ENDBRANCH  21  23
ENDBRANCH  20  21
ENDBRANCH  19  20
ENDBRANCH  17  19
ENDBRANCH   5  17
TORSDOF 8
ENDMDL
MODEL 3
REMARK VINA RESULT:      -7.6      4.157      6.457
REMARK  Name = 
REMARK  8 active torsions:
REMARK  status: ('A' for Active; 'I' for Inactive)
REMARK    1  A    between atoms: C_2  and  O_3
REMARK    2  A    between atoms: O_3  and  C_4
REMARK    3  A    between atoms: C_7  and  N_8
REMARK    4  A    between atoms: C_12  and  C_13
REMARK    5  A    between atoms: C_13  and  C_15
REMARK    6  A    between atoms: C_15  and  O_16
REMARK    7  A    between atoms: O_16  and  C_17
REMARK    8  A    between atoms: C_17  and  C_19
REMARK                            x       y       z     vdW  Elec       q    Type
REMARK                         _______ _______ _______ _____ _____    ______ ____
ROOT
ATOM      1  N   UNL     1      38.990  -0.213  13.057  0.00  0.00    +0.000 N 
ATOM      2  C   UNL     1      39.383   0.491  14.130  0.00  0.00    +0.000 A 
ATOM      3  C   UNL     1      39.536   1.978  14.200  0.00  0.00    +0.000 C 
ATOM      4  C   UNL     1      39.632  -0.349  15.187  0.00  0.00    +0.000 A 
ATOM      5  C   UNL     1      39.379  -1.648  14.739  0.00  0.00    +0.000 A 
ATOM      6  C   UNL     1      38.990  -1.490  13.426  0.00  0.00    +0.000 A 
ATOM      7  C   UNL     1      38.617  -2.629  12.538  0.00  0.00    +0.000 C 
ENDROOT
BRANCH   1  11
ATOM      8  C   UNL     1      37.974   1.302   9.219  0.00  0.00    +0.000 A 
ATOM      9  C   UNL     1      37.036   1.215  10.230  0.00  0.00    +0.000 A 
ATOM     10  C   UNL     1      37.357   0.725  11.479  0.00  0.00    +0.000 A 
ATOM     11  C   UNL     1      38.639   0.299  11.762  0.00  0.00    +0.000 A 
ATOM     12  C   UNL     1      39.572   0.388  10.748  0.00  0.00    +0.000 A 
ATOM     13  C   UNL     1      39.265   0.878   9.489  0.00  0.00    +0.000 A 
BRANCH   8  14
ATOM     14  O   UNL     1      37.684   1.789   7.952  0.00  0.00    +0.000 OA
BRANCH  14  16
ATOM     15  C   UNL     1      36.537   0.427   6.368  0.00  0.00    +0.000 C 
ATOM     16  C   UNL     1      37.912   0.890   6.857  0.00  0.00    +0.000 C 
ENDBRANCH  14  16
ENDBRANCH   8  14
ENDBRANCH   1  11
BRANCH   5  17
ATOM     17  C   UNL     1      39.507  -2.883  15.515  0.00  0.00    +0.000 C 
ATOM     18  O   UNL     1      40.638  -3.365  15.708  0.00  0.00    +0.000 OA
BRANCH  17  19
ATOM     19  C   UNL     1      38.259  -3.493  16.030  0.00  0.00    +0.000 C 
BRANCH  19  20
ATOM     20  O   UNL     1      37.721  -2.800  17.116  0.00  0.00    +0.000 OA
BRANCH  20  21
ATOM     21  C   UNL     1      36.521  -2.114  17.095  0.00  0.00    +0.000 C 
ATOM     22  O   UNL     1      35.502  -2.733  17.490  0.00  0.00    +0.000 OA
BRANCH  21  23
ATOM     23  C   UNL     1      36.400  -0.735  16.642  0.00  0.00    +0.000 A 
ATOM     24  C   UNL     1      35.914  -0.361  15.407  0.00  0.00    +0.000 A 
ATOM     25  C   UNL     1      35.934   1.006  15.304  0.00  0.00    +0.000 A 
ATOM     26  C   UNL     1      35.555   1.845  14.278  0.00  0.00    +0.000 A 
ATOM     27  C   UNL     1      35.688   3.198  14.453  0.00  0.00    +0.000 A 
ATOM     28  C   UNL     1      36.190   3.681  15.634  0.00  0.00    +0.000 A 
ATOM     29  C   UNL     1      36.570   2.830  16.661  0.00  0.00    +0.000 A 
ATOM     30  C   UNL     1      36.445   1.447  16.507  0.00  0.00    +0.000 A 
ATOM     31  N   UNL     1      36.719   0.396  17.299  0.00  0.00    +0.000 NA
ENDBRANCH  21  23
ENDBRANCH  20  21
ENDBRANCH  19  20
ENDBRANCH  17  19
ENDBRANCH   5  17
TORSDOF 8
ENDMDL
MODEL 4
REMARK VINA RESULT:      -7.4      2.866      7.488
REMARK  Name = 
REMARK  8 active torsions:
REMARK  status: ('A' for Active; 'I' for Inactive)
REMARK    1  A    between atoms: C_2  and  O_3
REMARK    2  A    between atoms: O_3  and  C_4
REMARK    3  A    between atoms: C_7  and  N_8
REMARK    4  A    between atoms: C_12  and  C_13
REMARK    5  A    between atoms: C_13  and  C_15
REMARK    6  A    between atoms: C_15  and  O_16
REMARK    7  A    between atoms: O_16  and  C_17
REMARK    8  A    between atoms: C_17  and  C_19
REMARK                            x       y       z     vdW  Elec       q    Type
REMARK                         _______ _______ _______ _____ _____    ______ ____
ROOT
ATOM      1  N   UNL     1      36.620   0.927  15.149  0.00  0.00    +0.000 N 
ATOM      2  C   UNL     1      36.701   0.038  14.146  0.00  0.00    +0.000 A 
ATOM      3  C   UNL     1      37.226   0.307  12.772  0.00  0.00    +0.000 C 
ATOM      4  C   UNL     1      36.229  -1.185  14.554  0.00  0.00    +0.000 A 
ATOM      5  C   UNL     1      35.832  -1.042  15.886  0.00  0.00    +0.000 A 
ATOM      6  C   UNL     1      36.100   0.278  16.185  0.00  0.00    +0.000 A 
ATOM      7  C   UNL     1      35.830   0.887  17.519  0.00  0.00    +0.000 C 
ENDROOT
BRANCH   1  11
ATOM      8  C   UNL     1      37.757   5.020  15.052  0.00  0.00    +0.000 A 
ATOM      9  C   UNL     1      38.657   4.032  15.400  0.00  0.00    +0.000 A 
ATOM     10  C   UNL     1      38.296   2.700  15.434  0.00  0.00    +0.000 A 
ATOM     11  C   UNL     1      37.011   2.308  15.119  0.00  0.00    +0.000 A 
ATOM     12  C   UNL     1      36.116   3.301  14.771  0.00  0.00    +0.000 A 
ATOM     13  C   UNL     1      36.464   4.642  14.732  0.00  0.00    +0.000 A 
BRANCH   8  14
ATOM     14  O   UNL     1      38.087   6.368  15.009  0.00  0.00    +0.000 OA
BRANCH  14  16
ATOM     15  C   UNL     1      38.351   7.402  17.139  0.00  0.00    +0.000 C 
ATOM     16  C   UNL     1      39.089   6.808  15.937  0.00  0.00    +0.000 C 
ENDBRANCH  14  16
ENDBRANCH   8  14
ENDBRANCH   1  11
BRANCH   5  17
ATOM     17  C   UNL     1      35.262  -2.080  16.748  0.00  0.00    +0.000 C 
ATOM     18  O   UNL     1      34.098  -1.950  17.166  0.00  0.00    +0.000 OA
BRANCH  17  19
ATOM     19  C   UNL     1      36.125  -3.238  17.074  0.00  0.00    +0.000 C 
BRANCH  19  20
ATOM     20  O   UNL     1      37.350  -2.868  17.633  0.00  0.00    +0.000 OA
BRANCH  20  21
ATOM     21  C   UNL     1      38.574  -3.393  17.263  0.00  0.00    +0.000 C 
ATOM     22  O   UNL     1      38.930  -4.459  17.822  0.00  0.00    +0.000 OA
BRANCH  21  23
ATOM     23  C   UNL     1      39.442  -2.769  16.275  0.00  0.00    +0.000 A 
ATOM     24  C   UNL     1      39.349  -1.452  15.876  0.00  0.00    +0.000 A 
ATOM     25  C   UNL     1      40.313  -1.190  14.937  0.00  0.00    +0.000 A 
ATOM     26  C   UNL     1      40.620  -0.037  14.247  0.00  0.00    +0.000 A 
ATOM     27  C   UNL     1      41.656  -0.065  13.350  0.00  0.00    +0.000 A 
ATOM     28  C   UNL     1      42.357  -1.228  13.161  0.00  0.00    +0.000 A 
ATOM     29  C   UNL     1      42.041  -2.384  13.859  0.00  0.00    +0.000 A 
ATOM     30  C   UNL     1      40.990  -2.383  14.778  0.00  0.00    +0.000 A 
ATOM     31  N   UNL     1      40.460  -3.319  15.584  0.00  0.00    +0.000 NA
ENDBRANCH  21  23
ENDBRANCH  20  21
ENDBRANCH  19  20
ENDBRANCH  17  19
ENDBRANCH   5  17
TORSDOF 8
ENDMDL
MODEL 5
REMARK VINA RESULT:      -7.3      2.714      8.446
REMARK  Name = 
REMARK  8 active torsions:
REMARK  status: ('A' for Active; 'I' for Inactive)
REMARK    1  A    between atoms: C_2  and  O_3
REMARK    2  A    between atoms: O_3  and  C_4
REMARK    3  A    between atoms: C_7  and  N_8
REMARK    4  A    between atoms: C_12  and  C_13
REMARK    5  A    between atoms: C_13  and  C_15
REMARK    6  A    between atoms: C_15  and  O_16
REMARK    7  A    between atoms: O_16  and  C_17
REMARK    8  A    between atoms: C_17  and  C_19
REMARK                            x       y       z     vdW  Elec       q    Type
REMARK                         _______ _______ _______ _____ _____    ______ ____
ROOT
ATOM      1  N   UNL     1      38.437   6.355  16.423  0.00  0.00    +0.000 N 
ATOM      2  C   UNL     1      37.802   7.406  15.881  0.00  0.00    +0.000 A 
ATOM      3  C   UNL     1      38.006   8.842  16.246  0.00  0.00    +0.000 C 
ATOM      4  C   UNL     1      36.916   6.984  14.920  0.00  0.00    +0.000 A 
ATOM      5  C   UNL     1      37.010   5.591  14.867  0.00  0.00    +0.000 A 
ATOM      6  C   UNL     1      37.960   5.273  15.815  0.00  0.00    +0.000 A 
ATOM      7  C   UNL     1      38.389   3.876  16.109  0.00  0.00    +0.000 C 
ENDROOT
BRANCH   1  11
ATOM      8  C   UNL     1      41.402   6.430  19.467  0.00  0.00    +0.000 A 
ATOM      9  C   UNL     1      40.057   6.354  19.774  0.00  0.00    +0.000 A 
ATOM     10  C   UNL     1      39.087   6.329  18.792  0.00  0.00    +0.000 A 
ATOM     11  C   UNL     1      39.433   6.380  17.457  0.00  0.00    +0.000 A 
ATOM     12  C   UNL     1      40.779   6.457  17.156  0.00  0.00    +0.000 A 
ATOM     13  C   UNL     1      41.764   6.482  18.131  0.00  0.00    +0.000 A 
BRANCH   8  14
ATOM     14  O   UNL     1      42.402   6.458  20.429  0.00  0.00    +0.000 OA
BRANCH  14  16
ATOM     15  C   UNL     1      44.228   7.445  21.599  0.00  0.00    +0.000 C 
ATOM     16  C   UNL     1      43.188   7.656  20.495  0.00  0.00    +0.000 C 
ENDBRANCH  14  16
ENDBRANCH   8  14
ENDBRANCH   1  11
BRANCH   5  17
ATOM     17  C   UNL     1      36.255   4.694  13.990  0.00  0.00    +0.000 C 
ATOM     18  O   UNL     1      36.609   4.564  12.805  0.00  0.00    +0.000 OA
BRANCH  17  19
ATOM     19  C   UNL     1      35.096   3.986  14.579  0.00  0.00    +0.000 C 
BRANCH  19  20
ATOM     20  O   UNL     1      35.208   2.597  14.504  0.00  0.00    +0.000 OA
BRANCH  20  21
ATOM     21  C   UNL     1      35.295   1.754  15.596  0.00  0.00    +0.000 C 
ATOM     22  O   UNL     1      34.447   1.913  16.509  0.00  0.00    +0.000 OA
BRANCH  21  23
ATOM     23  C   UNL     1      36.310   0.717  15.724  0.00  0.00    +0.000 A 
ATOM     24  C   UNL     1      36.308  -0.259  16.697  0.00  0.00    +0.000 A 
ATOM     25  C   UNL     1      37.400  -1.071  16.532  0.00  0.00    +0.000 A 
ATOM     26  C   UNL     1      37.830  -2.171  17.243  0.00  0.00    +0.000 A 
ATOM     27  C   UNL     1      38.980  -2.801  16.844  0.00  0.00    +0.000 A 
ATOM     28  C   UNL     1      39.670  -2.328  15.758  0.00  0.00    +0.000 A 
ATOM     29  C   UNL     1      39.230  -1.221  15.048  0.00  0.00    +0.000 A 
ATOM     30  C   UNL     1      38.061  -0.560  15.434  0.00  0.00    +0.000 A 
ATOM     31  N   UNL     1      37.399   0.509  14.959  0.00  0.00    +0.000 NA
ENDBRANCH  21  23
ENDBRANCH  20  21
ENDBRANCH  19  20
ENDBRANCH  17  19
ENDBRANCH   5  17
TORSDOF 8
ENDMDL
MODEL 6
REMARK VINA RESULT:      -7.3      3.911      5.048
REMARK  Name = 
REMARK  8 active torsions:
REMARK  status: ('A' for Active; 'I' for Inactive)
REMARK    1  A    between atoms: C_2  and  O_3
REMARK    2  A    between atoms: O_3  and  C_4
REMARK    3  A    between atoms: C_7  and  N_8
REMARK    4  A    between atoms: C_12  and  C_13
REMARK    5  A    between atoms: C_13  and  C_15
REMARK    6  A    between atoms: C_15  and  O_16
REMARK    7  A    between atoms: O_16  and  C_17
REMARK    8  A    between atoms: C_17  and  C_19
REMARK                            x       y       z     vdW  Elec       q    Type
REMARK                         _______ _______ _______ _____ _____    ______ ____
ROOT
ATOM      1  N   UNL     1      38.902  -1.617  14.232  0.00  0.00    +0.000 N 
ATOM      2  C   UNL     1      37.725  -1.159  13.775  0.00  0.00    +0.000 A 
ATOM      3  C   UNL     1      37.533  -0.195  12.648  0.00  0.00    +0.000 C 
ATOM      4  C   UNL     1      36.690  -1.704  14.494  0.00  0.00    +0.000 A 
ATOM      5  C   UNL     1      37.262  -2.547  15.450  0.00  0.00    +0.000 A 
ATOM      6  C   UNL     1      38.620  -2.445  15.232  0.00  0.00    +0.000 A 
ATOM      7  C   UNL     1      39.637  -3.183  16.034  0.00  0.00    +0.000 C 
ENDROOT
BRANCH   1  11
ATOM      8  C   UNL     1      42.777  -0.649  12.781  0.00  0.00    +0.000 A 
ATOM      9  C   UNL     1      42.163   0.113  13.755  0.00  0.00    +0.000 A 
ATOM     10  C   UNL     1      40.904  -0.193  14.233  0.00  0.00    +0.000 A 
ATOM     11  C   UNL     1      40.211  -1.283  13.746  0.00  0.00    +0.000 A 
ATOM     12  C   UNL     1      40.831  -2.042  12.772  0.00  0.00    +0.000 A 
ATOM     13  C   UNL     1      42.093  -1.746  12.283  0.00  0.00    +0.000 A 
BRANCH   8  14
ATOM     14  O   UNL     1      44.040  -0.367  12.279  0.00  0.00    +0.000 OA
BRANCH  14  16
ATOM     15  C   UNL     1      45.770  -1.921  11.756  0.00  0.00    +0.000 C 
ATOM     16  C   UNL     1      45.134  -1.085  12.869  0.00  0.00    +0.000 C 
ENDBRANCH  14  16
ENDBRANCH   8  14
ENDBRANCH   1  11
BRANCH   5  17
ATOM     17  C   UNL     1      36.552  -3.350  16.449  0.00  0.00    +0.000 C 
ATOM     18  O   UNL     1      36.110  -4.467  16.127  0.00  0.00    +0.000 OA
BRANCH  17  19
ATOM     19  C   UNL     1      36.402  -2.770  17.803  0.00  0.00    +0.000 C 
BRANCH  19  20
ATOM     20  O   UNL     1      35.390  -1.810  17.877  0.00  0.00    +0.000 OA
BRANCH  20  21
ATOM     21  C   UNL     1      35.585  -0.487  18.225  0.00  0.00    +0.000 C 
ATOM     22  O   UNL     1      35.578  -0.212  19.451  0.00  0.00    +0.000 OA
BRANCH  21  23
ATOM     23  C   UNL     1      35.792   0.572  17.247  0.00  0.00    +0.000 A 
ATOM     24  C   UNL     1      34.784   1.341  16.706  0.00  0.00    +0.000 A 
ATOM     25  C   UNL     1      35.320   2.241  15.822  0.00  0.00    +0.000 A 
ATOM     26  C   UNL     1      34.728   3.211  15.041  0.00  0.00    +0.000 A 
ATOM     27  C   UNL     1      35.525   3.981  14.235  0.00  0.00    +0.000 A 
ATOM     28  C   UNL     1      36.880   3.772  14.224  0.00  0.00    +0.000 A 
ATOM     29  C   UNL     1      37.467   2.794  15.012  0.00  0.00    +0.000 A 
ATOM     30  C   UNL     1      36.678   1.996  15.843  0.00  0.00    +0.000 A 
ATOM     31  N   UNL     1      36.948   0.995  16.699  0.00  0.00    +0.000 NA
ENDBRANCH  21  23
ENDBRANCH  20  21
ENDBRANCH  19  20
ENDBRANCH  17  19
ENDBRANCH   5  17
TORSDOF 8
ENDMDL
MODEL 7
REMARK VINA RESULT:      -7.2      1.347      1.958
REMARK  Name = 
REMARK  8 active torsions:
REMARK  status: ('A' for Active; 'I' for Inactive)
REMARK    1  A    between atoms: C_2  and  O_3
REMARK    2  A    between atoms: O_3  and  C_4
REMARK    3  A    between atoms: C_7  and  N_8
REMARK    4  A    between atoms: C_12  and  C_13
REMARK    5  A    between atoms: C_13  and  C_15
REMARK    6  A    between atoms: C_15  and  O_16
REMARK    7  A    between atoms: O_16  and  C_17
REMARK    8  A    between atoms: C_17  and  C_19
REMARK                            x       y       z     vdW  Elec       q    Type
REMARK                         _______ _______ _______ _____ _____    ______ ____
ROOT
ATOM      1  N   UNL     1      38.471  -1.340  14.197  0.00  0.00    +0.000 N 
ATOM      2  C   UNL     1      37.403  -2.112  14.456  0.00  0.00    +0.000 A 
ATOM      3  C   UNL     1      37.226  -3.537  14.040  0.00  0.00    +0.000 C 
ATOM      4  C   UNL     1      36.468  -1.407  15.174  0.00  0.00    +0.000 A 
ATOM      5  C   UNL     1      36.989  -0.126  15.367  0.00  0.00    +0.000 A 
ATOM      6  C   UNL     1      38.218  -0.154  14.743  0.00  0.00    +0.000 A 
ATOM      7  C   UNL     1      39.141   1.016  14.695  0.00  0.00    +0.000 C 
ENDROOT
BRANCH   1  11
ATOM      8  C   UNL     1      41.986  -2.434  12.074  0.00  0.00    +0.000 A 
ATOM      9  C   UNL     1      40.838  -2.045  11.413  0.00  0.00    +0.000 A 
ATOM     10  C   UNL     1      39.691  -1.688  12.093  0.00  0.00    +0.000 A 
ATOM     11  C   UNL     1      39.655  -1.709  13.473  0.00  0.00    +0.000 A 
ATOM     12  C   UNL     1      40.806  -2.099  14.129  0.00  0.00    +0.000 A 
ATOM     13  C   UNL     1      41.964  -2.460  13.459  0.00  0.00    +0.000 A 
BRANCH   8  14
ATOM     14  O   UNL     1      43.154  -2.800  11.420  0.00  0.00    +0.000 OA
BRANCH  14  16
ATOM     15  C   UNL     1      44.719  -4.560  11.058  0.00  0.00    +0.000 C 
ATOM     16  C   UNL     1      44.017  -3.709  12.119  0.00  0.00    +0.000 C 
ENDBRANCH  14  16
ENDBRANCH   8  14
ENDBRANCH   1  11
BRANCH   5  17
ATOM     17  C   UNL     1      36.349   0.983  16.080  0.00  0.00    +0.000 C 
ATOM     18  O   UNL     1      36.629   1.177  17.277  0.00  0.00    +0.000 OA
BRANCH  17  19
ATOM     19  C   UNL     1      35.392   1.816  15.318  0.00  0.00    +0.000 C 
BRANCH  19  20
ATOM     20  O   UNL     1      35.696   3.178  15.364  0.00  0.00    +0.000 OA
BRANCH  20  21
ATOM     21  C   UNL     1      36.889   3.732  14.938  0.00  0.00    +0.000 C 
ATOM     22  O   UNL     1      37.138   3.675  13.708  0.00  0.00    +0.000 OA
BRANCH  21  23
ATOM     23  C   UNL     1      37.842   4.362  15.841  0.00  0.00    +0.000 A 
ATOM     24  C   UNL     1      39.017   4.962  15.438  0.00  0.00    +0.000 A 
ATOM     25  C   UNL     1      39.677   5.453  16.534  0.00  0.00    +0.000 A 
ATOM     26  C   UNL     1      40.875   6.126  16.647  0.00  0.00    +0.000 A 
ATOM     27  C   UNL     1      41.300   6.505  17.894  0.00  0.00    +0.000 A 
ATOM     28  C   UNL     1      40.532   6.209  18.990  0.00  0.00    +0.000 A 
ATOM     29  C   UNL     1      39.328   5.531  18.868  0.00  0.00    +0.000 A 
ATOM     30  C   UNL     1      38.872   5.134  17.609  0.00  0.00    +0.000 A 
ATOM     31  N   UNL     1      37.778   4.481  17.181  0.00  0.00    +0.000 NA
ENDBRANCH  21  23
ENDBRANCH  20  21
ENDBRANCH  19  20
ENDBRANCH  17  19
ENDBRANCH   5  17
TORSDOF 8
ENDMDL
MODEL 8
REMARK VINA RESULT:      -7.1      3.594     10.121
REMARK  Name = 
REMARK  8 active torsions:
REMARK  status: ('A' for Active; 'I' for Inactive)
REMARK    1  A    between atoms: C_2  and  O_3
REMARK    2  A    between atoms: O_3  and  C_4
REMARK    3  A    between atoms: C_7  and  N_8
REMARK    4  A    between atoms: C_12  and  C_13
REMARK    5  A    between atoms: C_13  and  C_15
REMARK    6  A    between atoms: C_15  and  O_16
REMARK    7  A    between atoms: O_16  and  C_17
REMARK    8  A    between atoms: C_17  and  C_19
REMARK                            x       y       z     vdW  Elec       q    Type
REMARK                         _______ _______ _______ _____ _____    ______ ____
ROOT
ATOM      1  N   UNL     1      42.046   6.752  18.948  0.00  0.00    +0.000 N 
ATOM      2  C   UNL     1      42.593   6.645  17.726  0.00  0.00    +0.000 A 
ATOM      3  C   UNL     1      44.040   6.818  17.392  0.00  0.00    +0.000 C 
ATOM      4  C   UNL     1      41.628   6.346  16.796  0.00  0.00    +0.000 A 
ATOM      5  C   UNL     1      40.415   6.265  17.485  0.00  0.00    +0.000 A 
ATOM      6  C   UNL     1      40.745   6.525  18.799  0.00  0.00    +0.000 A 
ATOM      7  C   UNL     1      39.748   6.545  19.907  0.00  0.00    +0.000 C 
ENDROOT
BRANCH   1  11
ATOM      8  C   UNL     1      44.046   7.622  22.595  0.00  0.00    +0.000 A 
ATOM      9  C   UNL     1      43.608   8.629  21.757  0.00  0.00    +0.000 A 
ATOM     10  C   UNL     1      42.958   8.356  20.571  0.00  0.00    +0.000 A 
ATOM     11  C   UNL     1      42.722   7.054  20.179  0.00  0.00    +0.000 A 
ATOM     12  C   UNL     1      43.162   6.051  21.021  0.00  0.00    +0.000 A 
ATOM     13  C   UNL     1      43.816   6.310  22.215  0.00  0.00    +0.000 A 
BRANCH   8  14
ATOM     14  O   UNL     1      44.703   7.863  23.794  0.00  0.00    +0.000 OA
BRANCH  14  16
ATOM     15  C   UNL     1      43.919   7.048  25.892  0.00  0.00    +0.000 C 
ATOM     16  C   UNL     1      44.819   6.749  24.691  0.00  0.00    +0.000 C 
ENDBRANCH  14  16
ENDBRANCH   8  14
ENDBRANCH   1  11
BRANCH   5  17
ATOM     17  C   UNL     1      39.099   5.968  16.913  0.00  0.00    +0.000 C 
ATOM     18  O   UNL     1      38.229   6.857  16.900  0.00  0.00    +0.000 OA
BRANCH  17  19
ATOM     19  C   UNL     1      38.886   4.605  16.376  0.00  0.00    +0.000 C 
BRANCH  19  20
ATOM     20  O   UNL     1      37.684   4.034  16.800  0.00  0.00    +0.000 OA
BRANCH  20  21
ATOM     21  C   UNL     1      36.741   3.472  15.959  0.00  0.00    +0.000 C 
ATOM     22  O   UNL     1      36.206   4.231  15.113  0.00  0.00    +0.000 OA
BRANCH  21  23
ATOM     23  C   UNL     1      36.355   2.069  16.019  0.00  0.00    +0.000 A 
ATOM     24  C   UNL     1      35.413   1.557  16.886  0.00  0.00    +0.000 A 
ATOM     25  C   UNL     1      35.290   0.207  16.681  0.00  0.00    +0.000 A 
ATOM     26  C   UNL     1      34.490  -0.736  17.291  0.00  0.00    +0.000 A 
ATOM     27  C   UNL     1      34.579  -2.039  16.876  0.00  0.00    +0.000 A 
ATOM     28  C   UNL     1      35.452  -2.372  15.872  0.00  0.00    +0.000 A 
ATOM     29  C   UNL     1      36.253  -1.417  15.264  0.00  0.00    +0.000 A 
ATOM     30  C   UNL     1      36.182  -0.083  15.669  0.00  0.00    +0.000 A 
ATOM     31  N   UNL     1      36.813   1.040  15.281  0.00  0.00    +0.000 NA
ENDBRANCH  21  23
ENDBRANCH  20  21
ENDBRANCH  19  20
ENDBRANCH  17  19
ENDBRANCH   5  17
TORSDOF 8
ENDMDL
MODEL 9
REMARK VINA RESULT:      -7.1      4.563      5.938
REMARK  Name = 
REMARK  8 active torsions:
REMARK  status: ('A' for Active; 'I' for Inactive)
REMARK    1  A    between atoms: C_2  and  O_3
REMARK    2  A    between atoms: O_3  and  C_4
REMARK    3  A    between atoms: C_7  and  N_8
REMARK    4  A    between atoms: C_12  and  C_13
REMARK    5  A    between atoms: C_13  and  C_15
REMARK    6  A    between atoms: C_15  and  O_16
REMARK    7  A    between atoms: O_16  and  C_17
REMARK    8  A    between atoms: C_17  and  C_19
REMARK                            x       y       z     vdW  Elec       q    Type
REMARK                         _______ _______ _______ _____ _____    ______ ____
ROOT
ATOM      1  N   UNL     1      39.507  -1.898  13.920  0.00  0.00    +0.000 N 
ATOM      2  C   UNL     1      40.537  -2.265  14.700  0.00  0.00    +0.000 A 
ATOM      3  C   UNL     1      41.981  -1.967  14.448  0.00  0.00    +0.000 C 
ATOM      4  C   UNL     1      40.084  -2.966  15.790  0.00  0.00    +0.000 A 
ATOM      5  C   UNL     1      38.694  -3.037  15.675  0.00  0.00    +0.000 A 
ATOM      6  C   UNL     1      38.409  -2.363  14.507  0.00  0.00    +0.000 A 
ATOM      7  C   UNL     1      37.026  -2.185  13.979  0.00  0.00    +0.000 C 
ENDROOT
BRANCH   1  11
ATOM      8  C   UNL     1      39.680   0.322  10.301  0.00  0.00    +0.000 A 
ATOM      9  C   UNL     1      39.905  -1.041  10.321  0.00  0.00    +0.000 A 
ATOM     10  C   UNL     1      39.851  -1.770  11.491  0.00  0.00    +0.000 A 
ATOM     11  C   UNL     1      39.568  -1.155  12.694  0.00  0.00    +0.000 A 
ATOM     12  C   UNL     1      39.344   0.208  12.668  0.00  0.00    +0.000 A 
ATOM     13  C   UNL     1      39.395   0.953  11.500  0.00  0.00    +0.000 A 
BRANCH   8  14
ATOM     14  O   UNL     1      39.728   1.084   9.142  0.00  0.00    +0.000 OA
BRANCH  14  16
ATOM     15  C   UNL     1      38.084   0.916   7.424  0.00  0.00    +0.000 C 
ATOM     16  C   UNL     1      39.437   0.397   7.916  0.00  0.00    +0.000 C 
ENDBRANCH  14  16
ENDBRANCH   8  14
ENDBRANCH   1  11
BRANCH   5  17
ATOM     17  C   UNL     1      37.769  -3.691  16.605  0.00  0.00    +0.000 C 
ATOM     18  O   UNL     1      37.339  -4.826  16.336  0.00  0.00    +0.000 OA
BRANCH  17  19
ATOM     19  C   UNL     1      37.398  -2.944  17.829  0.00  0.00    +0.000 C 
BRANCH  19  20
ATOM     20  O   UNL     1      36.182  -2.268  17.708  0.00  0.00    +0.000 OA
BRANCH  20  21
ATOM     21  C   UNL     1      35.958  -0.971  18.132  0.00  0.00    +0.000 C 
ATOM     22  O   UNL     1      35.870  -0.783  19.371  0.00  0.00    +0.000 OA
BRANCH  21  23
ATOM     23  C   UNL     1      35.822   0.154  17.218  0.00  0.00    +0.000 A 
ATOM     24  C   UNL     1      36.711   0.447  16.206  0.00  0.00    +0.000 A 
ATOM     25  C   UNL     1      36.289   1.566  15.537  0.00  0.00    +0.000 A 
ATOM     26  C   UNL     1      36.831   2.243  14.465  0.00  0.00    +0.000 A 
ATOM     27  C   UNL     1      36.181   3.354  13.994  0.00  0.00    +0.000 A 
ATOM     28  C   UNL     1      35.018   3.764  14.593  0.00  0.00    +0.000 A 
ATOM     29  C   UNL     1      34.480   3.077  15.671  0.00  0.00    +0.000 A 
ATOM     30  C   UNL     1      35.122   1.942  16.171  0.00  0.00    +0.000 A 
ATOM     31  N   UNL     1      34.853   1.089  17.175  0.00  0.00    +0.000 NA
ENDBRANCH  21  23
ENDBRANCH  20  21
ENDBRANCH  19  20
ENDBRANCH  17  19
ENDBRANCH   5  17
TORSDOF 8
ENDMDL
MODEL 10
REMARK VINA RESULT:      -7.1      4.056      5.681
REMARK  Name = 
REMARK  8 active torsions:
REMARK  status: ('A' for Active; 'I' for Inactive)
REMARK    1  A    between atoms: C_2  and  O_3
REMARK    2  A    between atoms: O_3  and  C_4
REMARK    3  A    between atoms: C_7  and  N_8
REMARK    4  A    between atoms: C_12  and  C_13
REMARK    5  A    between atoms: C_13  and  C_15
REMARK    6  A    between atoms: C_15  and  O_16
REMARK    7  A    between atoms: O_16  and  C_17
REMARK    8  A    between atoms: C_17  and  C_19
REMARK                            x       y       z     vdW  Elec       q    Type
REMARK                         _______ _______ _______ _____ _____    ______ ____
ROOT
ATOM      1  N   UNL     1      39.745  -2.362  13.643  0.00  0.00    +0.000 N 
ATOM      2  C   UNL     1      40.632  -2.234  14.642  0.00  0.00    +0.000 A 
ATOM      3  C   UNL     1      42.023  -1.697  14.521  0.00  0.00    +0.000 C 
ATOM      4  C   UNL     1      40.086  -2.669  15.825  0.00  0.00    +0.000 A 
ATOM      5  C   UNL     1      38.786  -3.092  15.537  0.00  0.00    +0.000 A 
ATOM      6  C   UNL     1      38.644  -2.875  14.182  0.00  0.00    +0.000 A 
ATOM      7  C   UNL     1      37.396  -3.187  13.428  0.00  0.00    +0.000 C 
ENDROOT
BRANCH   1  11
ATOM      8  C   UNL     1      40.301  -1.326   9.559  0.00  0.00    +0.000 A 
ATOM      9  C   UNL     1      40.633  -2.579  10.035  0.00  0.00    +0.000 A 
ATOM     10  C   UNL     1      40.456  -2.925  11.360  0.00  0.00    +0.000 A 
ATOM     11  C   UNL     1      39.936  -2.019  12.262  0.00  0.00    +0.000 A 
ATOM     12  C   UNL     1      39.606  -0.767  11.781  0.00  0.00    +0.000 A 
ATOM     13  C   UNL     1      39.778  -0.406  10.454  0.00  0.00    +0.000 A 
BRANCH   8  14
ATOM     14  O   UNL     1      40.467  -0.947   8.235  0.00  0.00    +0.000 OA
BRANCH  14  16
ATOM     15  C   UNL     1      39.709  -1.501   6.045  0.00  0.00    +0.000 C 
ATOM     16  C   UNL     1      40.481  -2.005   7.267  0.00  0.00    +0.000 C 
ENDBRANCH  14  16
ENDBRANCH   8  14
ENDBRANCH   1  11
BRANCH   5  17
ATOM     17  C   UNL     1      37.812  -3.638  16.485  0.00  0.00    +0.000 C 
ATOM     18  O   UNL     1      37.751  -4.870  16.650  0.00  0.00    +0.000 OA
BRANCH  17  19
ATOM     19  C   UNL     1      36.945  -2.673  17.198  0.00  0.00    +0.000 C 
BRANCH  19  20
ATOM     20  O   UNL     1      35.964  -2.110  16.379  0.00  0.00    +0.000 OA
BRANCH  20  21
ATOM     21  C   UNL     1      35.783  -0.753  16.188  0.00  0.00    +0.000 C 
ATOM     22  O   UNL     1      34.768  -0.233  16.714  0.00  0.00    +0.000 OA
BRANCH  21  23
ATOM     23  C   UNL     1      36.703   0.073  15.418  0.00  0.00    +0.000 A 
ATOM     24  C   UNL     1      36.366   0.746  14.263  0.00  0.00    +0.000 A 
ATOM     25  C   UNL     1      37.460   1.425  13.794  0.00  0.00    +0.000 A 
ATOM     26  C   UNL     1      37.624   2.231  12.687  0.00  0.00    +0.000 A 
ATOM     27  C   UNL     1      38.854   2.791  12.459  0.00  0.00    +0.000 A 
ATOM     28  C   UNL     1      39.884   2.540  13.329  0.00  0.00    +0.000 A 
ATOM     29  C   UNL     1      39.710   1.728  14.440  0.00  0.00    +0.000 A 
ATOM     30  C   UNL     1      38.467   1.145  14.695  0.00  0.00    +0.000 A 
ATOM     31  N   UNL     1      38.001   0.335  15.662  0.00  0.00    +0.000 NA
ENDBRANCH  21  23
ENDBRANCH  20  21
ENDBRANCH  19  20
ENDBRANCH  17  19
ENDBRANCH   5  17
TORSDOF 8
ENDMDL
