MODEL 1
REMARK VINA RESULT:      -7.7      0.000      0.000
REMARK  Name = 
REMARK  9 active torsions:
REMARK  status: ('A' for Active; 'I' for Inactive)
REMARK    1  A    between atoms: C_2  and  C_3
REMARK    2  A    between atoms: C_3  and  C_4
REMARK    3  A    between atoms: C_4  and  C_5
REMARK    4  A    between atoms: C_5  and  C_6
REMARK    5  A    between atoms: C_6  and  O_7
REMARK    6  A    between atoms: O_7  and  C_8
REMARK    7  A    between atoms: C_8  and  C_10
REMARK    8  A    between atoms: N_13  and  C_14
REMARK    9  A    between atoms: C_14  and  C_15
REMARK                            x       y       z     vdW  Elec       q    Type
REMARK                         _______ _______ _______ _____ _____    ______ ____
ROOT
ATOM      1  C   UNL     1      36.726   0.863  15.874  0.00  0.00    +0.000 A 
ATOM      2  C   UNL     1      35.985   0.014  16.668  0.00  0.00    +0.000 A 
ATOM      3  N   UNL     1      34.715   0.349  17.220  0.00  0.00    +0.000 NA
ATOM      4  N   UNL     1      36.623  -1.157  16.844  0.00  0.00    +0.000 N 
ATOM      5  C   UNL     1      37.783  -1.084  16.169  0.00  0.00    +0.000 A 
ATOM      6  N   UNL     1      38.803  -1.939  15.991  0.00  0.00    +0.000 NA
ATOM      7  C   UNL     1      39.875  -1.596  15.243  0.00  0.00    +0.000 A 
ATOM      8  C   UNL     1      40.944  -2.444  15.034  0.00  0.00    +0.000 A 
ATOM      9  C   UNL     1      42.022  -2.060  14.264  0.00  0.00    +0.000 A 
ATOM     10  C   UNL     1      42.059  -0.811  13.680  0.00  0.00    +0.000 A 
ATOM     11  C   UNL     1      40.995   0.046  13.880  0.00  0.00    +0.000 A 
ATOM     12  C   UNL     1      39.926  -0.344  14.649  0.00  0.00    +0.000 A 
ATOM     13  N   UNL     1      38.926   0.521  14.811  0.00  0.00    +0.000 NA
ATOM     14  C   UNL     1      37.867   0.161  15.559  0.00  0.00    +0.000 A 
ENDROOT
BRANCH   1  15
ATOM     15  C   UNL     1      36.400   2.224  15.438  0.00  0.00    +0.000 C 
ATOM     16  O   UNL     1      35.764   2.401  14.392  0.00  0.00    +0.000 OA
BRANCH  15  17
ATOM     17  O   UNL     1      36.789   3.336  16.171  0.00  0.00    +0.000 OA
BRANCH  17  18
ATOM     18  C   UNL     1      38.094   3.818  16.112  0.00  0.00    +0.000 C 
BRANCH  18  19
ATOM     19  C   UNL     1      38.234   5.130  16.849  0.00  0.00    +0.000 C 
BRANCH  19  20
ATOM     20  C   UNL     1      38.911   4.988  18.170  0.00  0.00    +0.000 C 
BRANCH  20  21
ATOM     21  C   UNL     1      40.085   5.930  18.335  0.00  0.00    +0.000 C 
BRANCH  21  23
ATOM     22  C   UNL     1      39.346   7.337  20.231  0.00  0.00    +0.000 C 
ATOM     23  C   UNL     1      40.280   6.257  19.796  0.00  0.00    +0.000 C 
ENDBRANCH  21  23
ENDBRANCH  20  21
ENDBRANCH  19  20
ENDBRANCH  18  19
ENDBRANCH  17  18
ENDBRANCH  15  17
ENDBRANCH   1  15
BRANCH   4  24
ATOM     24  C   UNL     1      36.125  -2.292  17.633  0.00  0.00    +0.000 C 
BRANCH  24  25
ATOM     25  C   UNL     1      35.603  -3.281  16.628  0.00  0.00    +0.000 A 
ATOM     26  C   UNL     1      36.295  -4.446  16.353  0.00  0.00    +0.000 A 
ATOM     27  C   UNL     1      35.843  -5.364  15.443  0.00  0.00    +0.000 A 
ATOM     28  C   UNL     1      34.664  -5.157  14.757  0.00  0.00    +0.000 A 
ATOM     29  C   UNL     1      33.971  -3.995  15.029  0.00  0.00    +0.000 A 
ATOM     30  C   UNL     1      34.424  -3.069  15.945  0.00  0.00    +0.000 A 
ENDBRANCH  24  25
ENDBRANCH   4  24
TORSDOF 9
ENDMDL
MODEL 2
REMARK VINA RESULT:      -7.4      1.738      6.808
REMARK  Name = 
REMARK  9 active torsions:
REMARK  status: ('A' for Active; 'I' for Inactive)
REMARK    1  A    between atoms: C_2  and  C_3
REMARK    2  A    between atoms: C_3  and  C_4
REMARK    3  A    between atoms: C_4  and  C_5
REMARK    4  A    between atoms: C_5  and  C_6
REMARK    5  A    between atoms: C_6  and  O_7
REMARK    6  A    between atoms: O_7  and  C_8
REMARK    7  A    between atoms: C_8  and  C_10
REMARK    8  A    between atoms: N_13  and  C_14
REMARK    9  A    between atoms: C_14  and  C_15
REMARK                            x       y       z     vdW  Elec       q    Type
REMARK                         _______ _______ _______ _____ _____    ______ ____
ROOT
ATOM      1  C   UNL     1      36.447   0.479  16.019  0.00  0.00    +0.000 A 
ATOM      2  C   UNL     1      36.142   1.816  15.873  0.00  0.00    +0.000 A 
ATOM      3  N   UNL     1      34.899   2.393  16.263  0.00  0.00    +0.000 NA
ATOM      4  N   UNL     1      37.168   2.485  15.317  0.00  0.00    +0.000 N 
ATOM      5  C   UNL     1      38.151   1.595  15.096  0.00  0.00    +0.000 A 
ATOM      6  N   UNL     1      39.383   1.692  14.572  0.00  0.00    +0.000 NA
ATOM      7  C   UNL     1      40.181   0.606  14.467  0.00  0.00    +0.000 A 
ATOM      8  C   UNL     1      41.453   0.662  13.935  0.00  0.00    +0.000 A 
ATOM      9  C   UNL     1      42.240  -0.468  13.843  0.00  0.00    +0.000 A 
ATOM     10  C   UNL     1      41.771  -1.688  14.281  0.00  0.00    +0.000 A 
ATOM     11  C   UNL     1      40.501  -1.757  14.816  0.00  0.00    +0.000 A 
ATOM     12  C   UNL     1      39.723  -0.627  14.904  0.00  0.00    +0.000 A 
ATOM     13  N   UNL     1      38.504  -0.749  15.427  0.00  0.00    +0.000 NA
ATOM     14  C   UNL     1      37.725   0.344  15.524  0.00  0.00    +0.000 A 
ENDROOT
BRANCH   1  15
ATOM     15  C   UNL     1      35.618  -0.593  16.576  0.00  0.00    +0.000 C 
ATOM     16  O   UNL     1      35.154  -0.484  17.718  0.00  0.00    +0.000 OA
BRANCH  15  17
ATOM     17  O   UNL     1      35.334  -1.743  15.855  0.00  0.00    +0.000 OA
BRANCH  17  18
ATOM     18  C   UNL     1      35.047  -2.945  16.497  0.00  0.00    +0.000 C 
BRANCH  18  19
ATOM     19  C   UNL     1      35.740  -4.110  15.828  0.00  0.00    +0.000 C 
BRANCH  19  20
ATOM     20  C   UNL     1      37.226  -3.983  15.829  0.00  0.00    +0.000 C 
BRANCH  20  21
ATOM     21  C   UNL     1      37.861  -4.502  17.101  0.00  0.00    +0.000 C 
BRANCH  21  23
ATOM     22  C   UNL     1      38.168  -2.532  18.566  0.00  0.00    +0.000 C 
ATOM     23  C   UNL     1      38.842  -3.487  17.638  0.00  0.00    +0.000 C 
ENDBRANCH  21  23
ENDBRANCH  20  21
ENDBRANCH  19  20
ENDBRANCH  18  19
ENDBRANCH  17  18
ENDBRANCH  15  17
ENDBRANCH   1  15
BRANCH   4  24
ATOM     24  C   UNL     1      37.188   3.923  15.017  0.00  0.00    +0.000 C 
BRANCH  24  25
ATOM     25  C   UNL     1      38.142   4.527  16.009  0.00  0.00    +0.000 A 
ATOM     26  C   UNL     1      39.238   5.257  15.587  0.00  0.00    +0.000 A 
ATOM     27  C   UNL     1      40.124   5.817  16.468  0.00  0.00    +0.000 A 
ATOM     28  C   UNL     1      39.953   5.672  17.829  0.00  0.00    +0.000 A 
ATOM     29  C   UNL     1      38.861   4.944  18.254  0.00  0.00    +0.000 A 
ATOM     30  C   UNL     1      37.968   4.378  17.369  0.00  0.00    +0.000 A 
ENDBRANCH  24  25
ENDBRANCH   4  24
TORSDOF 9
ENDMDL
MODEL 3
REMARK VINA RESULT:      -7.4      2.077      6.285
REMARK  Name = 
REMARK  9 active torsions:
REMARK  status: ('A' for Active; 'I' for Inactive)
REMARK    1  A    between atoms: C_2  and  C_3
REMARK    2  A    between atoms: C_3  and  C_4
REMARK    3  A    between atoms: C_4  and  C_5
REMARK    4  A    between atoms: C_5  and  C_6
REMARK    5  A    between atoms: C_6  and  O_7
REMARK    6  A    between atoms: O_7  and  C_8
REMARK    7  A    between atoms: C_8  and  C_10
REMARK    8  A    between atoms: N_13  and  C_14
REMARK    9  A    between atoms: C_14  and  C_15
REMARK                            x       y       z     vdW  Elec       q    Type
REMARK                         _______ _______ _______ _____ _____    ______ ____
ROOT
ATOM      1  C   UNL     1      36.480   1.216  15.873  0.00  0.00    +0.000 A 
ATOM      2  C   UNL     1      36.869   0.521  14.748  0.00  0.00    +0.000 A 
ATOM      3  N   UNL     1      36.263  -0.694  14.317  0.00  0.00    +0.000 NA
ATOM      4  N   UNL     1      37.887   1.143  14.127  0.00  0.00    +0.000 N 
ATOM      5  C   UNL     1      38.172   2.248  14.838  0.00  0.00    +0.000 A 
ATOM      6  N   UNL     1      39.076   3.230  14.695  0.00  0.00    +0.000 NA
ATOM      7  C   UNL     1      39.143   4.248  15.582  0.00  0.00    +0.000 A 
ATOM      8  C   UNL     1      40.056   5.277  15.472  0.00  0.00    +0.000 A 
ATOM      9  C   UNL     1      40.095   6.300  16.397  0.00  0.00    +0.000 A 
ATOM     10  C   UNL     1      39.218   6.320  17.461  0.00  0.00    +0.000 A 
ATOM     11  C   UNL     1      38.299   5.297  17.581  0.00  0.00    +0.000 A 
ATOM     12  C   UNL     1      38.267   4.281  16.656  0.00  0.00    +0.000 A 
ATOM     13  N   UNL     1      37.361   3.318  16.819  0.00  0.00    +0.000 NA
ATOM     14  C   UNL     1      37.310   2.313  15.926  0.00  0.00    +0.000 A 
ENDROOT
BRANCH   1  15
ATOM     15  C   UNL     1      35.417   0.890  16.828  0.00  0.00    +0.000 C 
ATOM     16  O   UNL     1      34.422   1.621  16.917  0.00  0.00    +0.000 OA
BRANCH  15  17
ATOM     17  O   UNL     1      35.491  -0.226  17.647  0.00  0.00    +0.000 OA
BRANCH  17  18
ATOM     18  C   UNL     1      36.417  -0.299  18.685  0.00  0.00    +0.000 C 
BRANCH  18  19
ATOM     19  C   UNL     1      36.883  -1.718  18.914  0.00  0.00    +0.000 C 
BRANCH  19  20
ATOM     20  C   UNL     1      38.302  -1.939  18.509  0.00  0.00    +0.000 C 
BRANCH  20  21
ATOM     21  C   UNL     1      38.481  -2.007  17.008  0.00  0.00    +0.000 C 
BRANCH  21  23
ATOM     22  C   UNL     1      37.481  -3.829  15.666  0.00  0.00    +0.000 C 
ATOM     23  C   UNL     1      38.606  -3.446  16.569  0.00  0.00    +0.000 C 
ENDBRANCH  21  23
ENDBRANCH  20  21
ENDBRANCH  19  20
ENDBRANCH  18  19
ENDBRANCH  17  18
ENDBRANCH  15  17
ENDBRANCH   1  15
BRANCH   4  24
ATOM     24  C   UNL     1      38.550   0.681  12.900  0.00  0.00    +0.000 C 
BRANCH  24  25
ATOM     25  C   UNL     1      39.461  -0.434  13.331  0.00  0.00    +0.000 A 
ATOM     26  C   UNL     1      39.308  -1.712  12.824  0.00  0.00    +0.000 A 
ATOM     27  C   UNL     1      40.123  -2.746  13.199  0.00  0.00    +0.000 A 
ATOM     28  C   UNL     1      41.141  -2.550  14.108  0.00  0.00    +0.000 A 
ATOM     29  C   UNL     1      41.297  -1.276  14.616  0.00  0.00    +0.000 A 
ATOM     30  C   UNL     1      40.477  -0.232  14.241  0.00  0.00    +0.000 A 
ENDBRANCH  24  25
ENDBRANCH   4  24
TORSDOF 9
ENDMDL
MODEL 4
REMARK VINA RESULT:      -7.4      2.493      5.995
REMARK  Name = 
REMARK  9 active torsions:
REMARK  status: ('A' for Active; 'I' for Inactive)
REMARK    1  A    between atoms: C_2  and  C_3
REMARK    2  A    between atoms: C_3  and  C_4
REMARK    3  A    between atoms: C_4  and  C_5
REMARK    4  A    between atoms: C_5  and  C_6
REMARK    5  A    between atoms: C_6  and  O_7
REMARK    6  A    between atoms: O_7  and  C_8
REMARK    7  A    between atoms: C_8  and  C_10
REMARK    8  A    between atoms: N_13  and  C_14
REMARK    9  A    between atoms: C_14  and  C_15
REMARK                            x       y       z     vdW  Elec       q    Type
REMARK                         _______ _______ _______ _____ _____    ______ ____
ROOT
ATOM      1  C   UNL     1      37.800   2.670  14.110  0.00  0.00    +0.000 A 
ATOM      2  C   UNL     1      36.632   2.075  14.536  0.00  0.00    +0.000 A 
ATOM      3  N   UNL     1      35.859   1.182  13.739  0.00  0.00    +0.000 NA
ATOM      4  N   UNL     1      36.331   2.454  15.791  0.00  0.00    +0.000 N 
ATOM      5  C   UNL     1      37.297   3.296  16.196  0.00  0.00    +0.000 A 
ATOM      6  N   UNL     1      37.514   3.973  17.335  0.00  0.00    +0.000 NA
ATOM      7  C   UNL     1      38.597   4.771  17.474  0.00  0.00    +0.000 A 
ATOM      8  C   UNL     1      38.858   5.483  18.627  0.00  0.00    +0.000 A 
ATOM      9  C   UNL     1      39.973   6.288  18.733  0.00  0.00    +0.000 A 
ATOM     10  C   UNL     1      40.860   6.402  17.684  0.00  0.00    +0.000 A 
ATOM     11  C   UNL     1      40.610   5.695  16.525  0.00  0.00    +0.000 A 
ATOM     12  C   UNL     1      39.497   4.895  16.427  0.00  0.00    +0.000 A 
ATOM     13  N   UNL     1      39.302   4.234  15.287  0.00  0.00    +0.000 NA
ATOM     14  C   UNL     1      38.220   3.444  15.168  0.00  0.00    +0.000 A 
ENDROOT
BRANCH   1  15
ATOM     15  C   UNL     1      38.479   2.530  12.818  0.00  0.00    +0.000 C 
ATOM     16  O   UNL     1      38.482   3.473  12.017  0.00  0.00    +0.000 OA
BRANCH  15  17
ATOM     17  O   UNL     1      39.128   1.358  12.460  0.00  0.00    +0.000 OA
BRANCH  17  18
ATOM     18  C   UNL     1      40.369   1.026  12.997  0.00  0.00    +0.000 C 
BRANCH  18  19
ATOM     19  C   UNL     1      40.363  -0.363  13.591  0.00  0.00    +0.000 C 
BRANCH  19  20
ATOM     20  C   UNL     1      39.675  -0.430  14.913  0.00  0.00    +0.000 C 
BRANCH  20  21
ATOM     21  C   UNL     1      38.369  -1.192  14.860  0.00  0.00    +0.000 C 
BRANCH  21  23
ATOM     22  C   UNL     1      39.321  -2.823  16.459  0.00  0.00    +0.000 C 
ATOM     23  C   UNL     1      38.613  -2.652  15.156  0.00  0.00    +0.000 C 
ENDBRANCH  21  23
ENDBRANCH  20  21
ENDBRANCH  19  20
ENDBRANCH  18  19
ENDBRANCH  17  18
ENDBRANCH  15  17
ENDBRANCH   1  15
BRANCH   4  24
ATOM     24  C   UNL     1      35.158   2.014  16.558  0.00  0.00    +0.000 C 
BRANCH  24  25
ATOM     25  C   UNL     1      35.532   0.678  17.134  0.00  0.00    +0.000 A 
ATOM     26  C   UNL     1      36.316   0.588  18.270  0.00  0.00    +0.000 A 
ATOM     27  C   UNL     1      36.673  -0.616  18.816  0.00  0.00    +0.000 A 
ATOM     28  C   UNL     1      36.258  -1.801  18.245  0.00  0.00    +0.000 A 
ATOM     29  C   UNL     1      35.476  -1.715  17.112  0.00  0.00    +0.000 A 
ATOM     30  C   UNL     1      35.115  -0.504  16.560  0.00  0.00    +0.000 A 
ENDBRANCH  24  25
ENDBRANCH   4  24
TORSDOF 9
ENDMDL
MODEL 5
REMARK VINA RESULT:      -7.4      2.210      4.596
REMARK  Name = 
REMARK  9 active torsions:
REMARK  status: ('A' for Active; 'I' for Inactive)
REMARK    1  A    between atoms: C_2  and  C_3
REMARK    2  A    between atoms: C_3  and  C_4
REMARK    3  A    between atoms: C_4  and  C_5
REMARK    4  A    between atoms: C_5  and  C_6
REMARK    5  A    between atoms: C_6  and  O_7
REMARK    6  A    between atoms: O_7  and  C_8
REMARK    7  A    between atoms: C_8  and  C_10
REMARK    8  A    between atoms: N_13  and  C_14
REMARK    9  A    between atoms: C_14  and  C_15
REMARK                            x       y       z     vdW  Elec       q    Type
REMARK                         _______ _______ _______ _____ _____    ______ ____
ROOT
ATOM      1  C   UNL     1      36.561   0.838  15.975  0.00  0.00    +0.000 A 
ATOM      2  C   UNL     1      36.988   0.591  14.688  0.00  0.00    +0.000 A 
ATOM      3  N   UNL     1      36.706   1.441  13.581  0.00  0.00    +0.000 NA
ATOM      4  N   UNL     1      37.698  -0.551  14.629  0.00  0.00    +0.000 N 
ATOM      5  C   UNL     1      37.742  -1.059  15.872  0.00  0.00    +0.000 A 
ATOM      6  N   UNL     1      38.300  -2.159  16.401  0.00  0.00    +0.000 NA
ATOM      7  C   UNL     1      38.184  -2.432  17.720  0.00  0.00    +0.000 A 
ATOM      8  C   UNL     1      38.742  -3.551  18.304  0.00  0.00    +0.000 A 
ATOM      9  C   UNL     1      38.604  -3.797  19.654  0.00  0.00    +0.000 A 
ATOM     10  C   UNL     1      37.899  -2.927  20.459  0.00  0.00    +0.000 A 
ATOM     11  C   UNL     1      37.336  -1.804  19.887  0.00  0.00    +0.000 A 
ATOM     12  C   UNL     1      37.479  -1.566  18.541  0.00  0.00    +0.000 A 
ATOM     13  N   UNL     1      36.916  -0.467  18.040  0.00  0.00    +0.000 NA
ATOM     14  C   UNL     1      37.042  -0.212  16.725  0.00  0.00    +0.000 A 
ENDROOT
BRANCH   1  15
ATOM     15  C   UNL     1      35.767   1.963  16.476  0.00  0.00    +0.000 C 
ATOM     16  O   UNL     1      34.532   1.888  16.492  0.00  0.00    +0.000 OA
BRANCH  15  17
ATOM     17  O   UNL     1      36.364   3.127  16.937  0.00  0.00    +0.000 OA
BRANCH  17  18
ATOM     18  C   UNL     1      37.049   3.978  16.072  0.00  0.00    +0.000 C 
BRANCH  18  19
ATOM     19  C   UNL     1      38.393   4.377  16.636  0.00  0.00    +0.000 C 
BRANCH  19  20
ATOM     20  C   UNL     1      38.428   4.359  18.128  0.00  0.00    +0.000 C 
BRANCH  20  21
ATOM     21  C   UNL     1      39.094   5.584  18.716  0.00  0.00    +0.000 C 
BRANCH  21  23
ATOM     22  C   UNL     1      37.996   7.791  18.923  0.00  0.00    +0.000 C 
ATOM     23  C   UNL     1      38.633   6.821  17.984  0.00  0.00    +0.000 C 
ENDBRANCH  21  23
ENDBRANCH  20  21
ENDBRANCH  19  20
ENDBRANCH  18  19
ENDBRANCH  17  18
ENDBRANCH  15  17
ENDBRANCH   1  15
BRANCH   4  24
ATOM     24  C   UNL     1      38.304  -1.118  13.417  0.00  0.00    +0.000 C 
BRANCH  24  25
ATOM     25  C   UNL     1      39.789  -1.016  13.625  0.00  0.00    +0.000 A 
ATOM     26  C   UNL     1      40.573  -2.152  13.723  0.00  0.00    +0.000 A 
ATOM     27  C   UNL     1      41.927  -2.089  13.913  0.00  0.00    +0.000 A 
ATOM     28  C   UNL     1      42.570  -0.873  14.017  0.00  0.00    +0.000 A 
ATOM     29  C   UNL     1      41.792   0.262  13.921  0.00  0.00    +0.000 A 
ATOM     30  C   UNL     1      40.427   0.202  13.729  0.00  0.00    +0.000 A 
ENDBRANCH  24  25
ENDBRANCH   4  24
TORSDOF 9
ENDMDL
MODEL 6
REMARK VINA RESULT:      -7.3      2.449      6.741
REMARK  Name = 
REMARK  9 active torsions:
REMARK  status: ('A' for Active; 'I' for Inactive)
REMARK    1  A    between atoms: C_2  and  C_3
REMARK    2  A    between atoms: C_3  and  C_4
REMARK    3  A    between atoms: C_4  and  C_5
REMARK    4  A    between atoms: C_5  and  C_6
REMARK    5  A    between atoms: C_6  and  O_7
REMARK    6  A    between atoms: O_7  and  C_8
REMARK    7  A    between atoms: C_8  and  C_10
REMARK    8  A    between atoms: N_13  and  C_14
REMARK    9  A    between atoms: C_14  and  C_15
REMARK                            x       y       z     vdW  Elec       q    Type
REMARK                         _______ _______ _______ _____ _____    ______ ____
ROOT
ATOM      1  C   UNL     1      36.633   2.554  15.755  0.00  0.00    +0.000 A 
ATOM      2  C   UNL     1      36.909   2.302  14.429  0.00  0.00    +0.000 A 
ATOM      3  N   UNL     1      36.140   1.425  13.611  0.00  0.00    +0.000 NA
ATOM      4  N   UNL     1      37.991   2.990  14.024  0.00  0.00    +0.000 N 
ATOM      5  C   UNL     1      38.431   3.697  15.079  0.00  0.00    +0.000 A 
ATOM      6  N   UNL     1      39.456   4.546  15.259  0.00  0.00    +0.000 NA
ATOM      7  C   UNL     1      39.671   5.132  16.459  0.00  0.00    +0.000 A 
ATOM      8  C   UNL     1      40.711   6.010  16.687  0.00  0.00    +0.000 A 
ATOM      9  C   UNL     1      40.900   6.588  17.924  0.00  0.00    +0.000 A 
ATOM     10  C   UNL     1      40.050   6.302  18.971  0.00  0.00    +0.000 A 
ATOM     11  C   UNL     1      39.005   5.426  18.756  0.00  0.00    +0.000 A 
ATOM     12  C   UNL     1      38.824   4.853  17.520  0.00  0.00    +0.000 A 
ATOM     13  N   UNL     1      37.800   4.014  17.366  0.00  0.00    +0.000 NA
ATOM     14  C   UNL     1      37.602   3.442  16.164  0.00  0.00    +0.000 A 
ENDROOT
BRANCH   1  15
ATOM     15  C   UNL     1      35.550   2.014  16.583  0.00  0.00    +0.000 C 
ATOM     16  O   UNL     1      34.381   2.358  16.370  0.00  0.00    +0.000 OA
BRANCH  15  17
ATOM     17  O   UNL     1      35.799   1.120  17.613  0.00  0.00    +0.000 OA
BRANCH  17  18
ATOM     18  C   UNL     1      36.546  -0.037  17.400  0.00  0.00    +0.000 C 
BRANCH  18  19
ATOM     19  C   UNL     1      35.943  -0.893  16.311  0.00  0.00    +0.000 C 
BRANCH  19  20
ATOM     20  C   UNL     1      36.969  -1.553  15.453  0.00  0.00    +0.000 C 
BRANCH  20  21
ATOM     21  C   UNL     1      38.318  -0.871  15.516  0.00  0.00    +0.000 C 
BRANCH  21  23
ATOM     22  C   UNL     1      38.888  -3.155  16.279  0.00  0.00    +0.000 C 
ATOM     23  C   UNL     1      39.411  -1.903  15.655  0.00  0.00    +0.000 C 
ENDBRANCH  21  23
ENDBRANCH  20  21
ENDBRANCH  19  20
ENDBRANCH  18  19
ENDBRANCH  17  18
ENDBRANCH  15  17
ENDBRANCH   1  15
BRANCH   4  24
ATOM     24  C   UNL     1      38.568   2.960  12.673  0.00  0.00    +0.000 C 
BRANCH  24  25
ATOM     25  C   UNL     1      39.415   1.719  12.626  0.00  0.00    +0.000 A 
ATOM     26  C   UNL     1      40.514   1.578  13.454  0.00  0.00    +0.000 A 
ATOM     27  C   UNL     1      41.304   0.459  13.432  0.00  0.00    +0.000 A 
ATOM     28  C   UNL     1      41.028  -0.583  12.572  0.00  0.00    +0.000 A 
ATOM     29  C   UNL     1      39.932  -0.446  11.745  0.00  0.00    +0.000 A 
ATOM     30  C   UNL     1      39.136   0.680  11.764  0.00  0.00    +0.000 A 
ENDBRANCH  24  25
ENDBRANCH   4  24
TORSDOF 9
ENDMDL
MODEL 7
REMARK VINA RESULT:      -7.2      2.545      7.923
REMARK  Name = 
REMARK  9 active torsions:
REMARK  status: ('A' for Active; 'I' for Inactive)
REMARK    1  A    between atoms: C_2  and  C_3
REMARK    2  A    between atoms: C_3  and  C_4
REMARK    3  A    between atoms: C_4  and  C_5
REMARK    4  A    between atoms: C_5  and  C_6
REMARK    5  A    between atoms: C_6  and  O_7
REMARK    6  A    between atoms: O_7  and  C_8
REMARK    7  A    between atoms: C_8  and  C_10
REMARK    8  A    between atoms: N_13  and  C_14
REMARK    9  A    between atoms: C_14  and  C_15
REMARK                            x       y       z     vdW  Elec       q    Type
REMARK                         _______ _______ _______ _____ _____    ______ ____
ROOT
ATOM      1  C   UNL     1      39.726   2.106  14.087  0.00  0.00    +0.000 A 
ATOM      2  C   UNL     1      39.799   3.479  14.183  0.00  0.00    +0.000 A 
ATOM      3  N   UNL     1      40.840   4.261  13.606  0.00  0.00    +0.000 NA
ATOM      4  N   UNL     1      38.763   3.966  14.889  0.00  0.00    +0.000 N 
ATOM      5  C   UNL     1      38.006   2.919  15.260  0.00  0.00    +0.000 A 
ATOM      6  N   UNL     1      36.870   2.806  15.967  0.00  0.00    +0.000 NA
ATOM      7  C   UNL     1      36.311   1.596  16.195  0.00  0.00    +0.000 A 
ATOM      8  C   UNL     1      35.145   1.435  16.916  0.00  0.00    +0.000 A 
ATOM      9  C   UNL     1      34.604   0.184  17.129  0.00  0.00    +0.000 A 
ATOM     10  C   UNL     1      35.217  -0.943  16.624  0.00  0.00    +0.000 A 
ATOM     11  C   UNL     1      36.383  -0.795  15.900  0.00  0.00    +0.000 A 
ATOM     12  C   UNL     1      36.917   0.455  15.693  0.00  0.00    +0.000 A 
ATOM     13  N   UNL     1      38.044   0.542  14.989  0.00  0.00    +0.000 NA
ATOM     14  C   UNL     1      38.585   1.755  14.772  0.00  0.00    +0.000 A 
ENDROOT
BRANCH   1  15
ATOM     15  C   UNL     1      40.645   1.187  13.409  0.00  0.00    +0.000 C 
ATOM     16  O   UNL     1      40.732   1.200  12.175  0.00  0.00    +0.000 OA
BRANCH  15  17
ATOM     17  O   UNL     1      41.430   0.289  14.117  0.00  0.00    +0.000 OA
BRANCH  17  18
ATOM     18  C   UNL     1      41.921  -0.869  13.518  0.00  0.00    +0.000 C 
BRANCH  18  19
ATOM     19  C   UNL     1      40.919  -1.998  13.593  0.00  0.00    +0.000 C 
BRANCH  19  20
ATOM     20  C   UNL     1      40.888  -2.663  14.928  0.00  0.00    +0.000 C 
BRANCH  20  21
ATOM     21  C   UNL     1      39.615  -2.382  15.696  0.00  0.00    +0.000 C 
BRANCH  21  23
ATOM     22  C   UNL     1      38.649  -3.104  17.857  0.00  0.00    +0.000 C 
ATOM     23  C   UNL     1      39.279  -3.558  16.582  0.00  0.00    +0.000 C 
ENDBRANCH  21  23
ENDBRANCH  20  21
ENDBRANCH  19  20
ENDBRANCH  18  19
ENDBRANCH  17  18
ENDBRANCH  15  17
ENDBRANCH   1  15
BRANCH   4  24
ATOM     24  C   UNL     1      38.524   5.385  15.188  0.00  0.00    +0.000 C 
BRANCH  24  25
ATOM     25  C   UNL     1      39.226   5.645  16.491  0.00  0.00    +0.000 A 
ATOM     26  C   UNL     1      38.589   5.421  17.699  0.00  0.00    +0.000 A 
ATOM     27  C   UNL     1      39.204   5.649  18.900  0.00  0.00    +0.000 A 
ATOM     28  C   UNL     1      40.501   6.118  18.952  0.00  0.00    +0.000 A 
ATOM     29  C   UNL     1      41.139   6.342  17.750  0.00  0.00    +0.000 A 
ATOM     30  C   UNL     1      40.522   6.114  16.538  0.00  0.00    +0.000 A 
ENDBRANCH  24  25
ENDBRANCH   4  24
TORSDOF 9
ENDMDL
MODEL 8
REMARK VINA RESULT:      -7.2      1.843      5.217
REMARK  Name = 
REMARK  9 active torsions:
REMARK  status: ('A' for Active; 'I' for Inactive)
REMARK    1  A    between atoms: C_2  and  C_3
REMARK    2  A    between atoms: C_3  and  C_4
REMARK    3  A    between atoms: C_4  and  C_5
REMARK    4  A    between atoms: C_5  and  C_6
REMARK    5  A    between atoms: C_6  and  O_7
REMARK    6  A    between atoms: O_7  and  C_8
REMARK    7  A    between atoms: C_8  and  C_10
REMARK    8  A    between atoms: N_13  and  C_14
REMARK    9  A    between atoms: C_14  and  C_15
REMARK                            x       y       z     vdW  Elec       q    Type
REMARK                         _______ _______ _______ _____ _____    ______ ____
ROOT
ATOM      1  C   UNL     1      38.251   2.747  15.141  0.00  0.00    +0.000 A 
ATOM      2  C   UNL     1      39.027   2.429  14.047  0.00  0.00    +0.000 A 
ATOM      3  N   UNL     1      39.945   3.330  13.436  0.00  0.00    +0.000 NA
ATOM      4  N   UNL     1      38.796   1.166  13.645  0.00  0.00    +0.000 N 
ATOM      5  C   UNL     1      37.870   0.648  14.471  0.00  0.00    +0.000 A 
ATOM      6  N   UNL     1      37.267  -0.549  14.547  0.00  0.00    +0.000 NA
ATOM      7  C   UNL     1      36.348  -0.805  15.505  0.00  0.00    +0.000 A 
ATOM      8  C   UNL     1      35.706  -2.021  15.620  0.00  0.00    +0.000 A 
ATOM      9  C   UNL     1      34.773  -2.247  16.610  0.00  0.00    +0.000 A 
ATOM     10  C   UNL     1      34.456  -1.256  17.516  0.00  0.00    +0.000 A 
ATOM     11  C   UNL     1      35.093  -0.036  17.413  0.00  0.00    +0.000 A 
ATOM     12  C   UNL     1      36.021   0.181  16.423  0.00  0.00    +0.000 A 
ATOM     13  N   UNL     1      36.605   1.377  16.368  0.00  0.00    +0.000 NA
ATOM     14  C   UNL     1      37.518   1.612  15.407  0.00  0.00    +0.000 A 
ENDROOT
BRANCH   1  15
ATOM     15  C   UNL     1      38.193   4.008  15.886  0.00  0.00    +0.000 C 
ATOM     16  O   UNL     1      37.378   4.880  15.560  0.00  0.00    +0.000 OA
BRANCH  15  17
ATOM     17  O   UNL     1      39.035   4.258  16.959  0.00  0.00    +0.000 OA
BRANCH  17  18
ATOM     18  C   UNL     1      38.535   4.711  18.178  0.00  0.00    +0.000 C 
BRANCH  18  19
ATOM     19  C   UNL     1      39.439   5.752  18.795  0.00  0.00    +0.000 C 
BRANCH  19  20
ATOM     20  C   UNL     1      40.613   6.088  17.938  0.00  0.00    +0.000 C 
BRANCH  20  21
ATOM     21  C   UNL     1      41.795   6.598  18.733  0.00  0.00    +0.000 C 
BRANCH  21  23
ATOM     22  C   UNL     1      42.811   6.147  20.943  0.00  0.00    +0.000 C 
ATOM     23  C   UNL     1      41.540   6.416  20.210  0.00  0.00    +0.000 C 
ENDBRANCH  21  23
ENDBRANCH  20  21
ENDBRANCH  19  20
ENDBRANCH  18  19
ENDBRANCH  17  18
ENDBRANCH  15  17
ENDBRANCH   1  15
BRANCH   4  24
ATOM     24  C   UNL     1      39.447   0.497  12.511  0.00  0.00    +0.000 C 
BRANCH  24  25
ATOM     25  C   UNL     1      40.547  -0.333  13.112  0.00  0.00    +0.000 A 
ATOM     26  C   UNL     1      40.462  -1.713  13.139  0.00  0.00    +0.000 A 
ATOM     27  C   UNL     1      41.448  -2.493  13.681  0.00  0.00    +0.000 A 
ATOM     28  C   UNL     1      42.579  -1.924  14.227  0.00  0.00    +0.000 A 
ATOM     29  C   UNL     1      42.668  -0.547  14.202  0.00  0.00    +0.000 A 
ATOM     30  C   UNL     1      41.676   0.241  13.658  0.00  0.00    +0.000 A 
ENDBRANCH  24  25
ENDBRANCH   4  24
TORSDOF 9
ENDMDL
MODEL 9
REMARK VINA RESULT:      -7.1      1.792      2.570
REMARK  Name = 
REMARK  9 active torsions:
REMARK  status: ('A' for Active; 'I' for Inactive)
REMARK    1  A    between atoms: C_2  and  C_3
REMARK    2  A    between atoms: C_3  and  C_4
REMARK    3  A    between atoms: C_4  and  C_5
REMARK    4  A    between atoms: C_5  and  C_6
REMARK    5  A    between atoms: C_6  and  O_7
REMARK    6  A    between atoms: O_7  and  C_8
REMARK    7  A    between atoms: C_8  and  C_10
REMARK    8  A    between atoms: N_13  and  C_14
REMARK    9  A    between atoms: C_14  and  C_15
REMARK                            x       y       z     vdW  Elec       q    Type
REMARK                         _______ _______ _______ _____ _____    ______ ____
ROOT
ATOM      1  C   UNL     1      37.917   1.364  14.955  0.00  0.00    +0.000 A 
ATOM      2  C   UNL     1      36.985   0.441  15.380  0.00  0.00    +0.000 A 
ATOM      3  N   UNL     1      35.647   0.771  15.738  0.00  0.00    +0.000 NA
ATOM      4  N   UNL     1      37.513  -0.796  15.409  0.00  0.00    +0.000 N 
ATOM      5  C   UNL     1      38.791  -0.694  15.003  0.00  0.00    +0.000 A 
ATOM      6  N   UNL     1      39.781  -1.585  14.838  0.00  0.00    +0.000 NA
ATOM      7  C   UNL     1      41.001  -1.196  14.405  0.00  0.00    +0.000 A 
ATOM      8  C   UNL     1      42.046  -2.079  14.222  0.00  0.00    +0.000 A 
ATOM      9  C   UNL     1      43.279  -1.646  13.779  0.00  0.00    +0.000 A 
ATOM     10  C   UNL     1      43.499  -0.312  13.509  0.00  0.00    +0.000 A 
ATOM     11  C   UNL     1      42.462   0.581  13.687  0.00  0.00    +0.000 A 
ATOM     12  C   UNL     1      41.237   0.142  14.129  0.00  0.00    +0.000 A 
ATOM     13  N   UNL     1      40.270   1.045  14.286  0.00  0.00    +0.000 NA
ATOM     14  C   UNL     1      39.062   0.638  14.716  0.00  0.00    +0.000 A 
ENDROOT
BRANCH   1  15
ATOM     15  C   UNL     1      37.758   2.810  14.781  0.00  0.00    +0.000 C 
ATOM     16  O   UNL     1      37.802   3.304  13.647  0.00  0.00    +0.000 OA
BRANCH  15  17
ATOM     17  O   UNL     1      37.558   3.656  15.862  0.00  0.00    +0.000 OA
BRANCH  17  18
ATOM     18  C   UNL     1      38.609   4.390  16.408  0.00  0.00    +0.000 C 
BRANCH  18  19
ATOM     19  C   UNL     1      38.389   4.665  17.877  0.00  0.00    +0.000 C 
BRANCH  19  20
ATOM     20  C   UNL     1      39.505   5.433  18.501  0.00  0.00    +0.000 C 
BRANCH  20  21
ATOM     21  C   UNL     1      39.157   6.885  18.744  0.00  0.00    +0.000 C 
BRANCH  21  23
ATOM     22  C   UNL     1      38.576   8.415  20.600  0.00  0.00    +0.000 C 
ATOM     23  C   UNL     1      39.394   7.235  20.194  0.00  0.00    +0.000 C 
ENDBRANCH  21  23
ENDBRANCH  20  21
ENDBRANCH  19  20
ENDBRANCH  18  19
ENDBRANCH  17  18
ENDBRANCH  15  17
ENDBRANCH   1  15
BRANCH   4  24
ATOM     24  C   UNL     1      36.805  -2.019  15.812  0.00  0.00    +0.000 C 
BRANCH  24  25
ATOM     25  C   UNL     1      37.319  -2.345  17.187  0.00  0.00    +0.000 A 
ATOM     26  C   UNL     1      36.914  -1.613  18.288  0.00  0.00    +0.000 A 
ATOM     27  C   UNL     1      37.366  -1.888  19.551  0.00  0.00    +0.000 A 
ATOM     28  C   UNL     1      38.254  -2.920  19.775  0.00  0.00    +0.000 A 
ATOM     29  C   UNL     1      38.660  -3.652  18.678  0.00  0.00    +0.000 A 
ATOM     30  C   UNL     1      38.207  -3.377  17.405  0.00  0.00    +0.000 A 
ENDBRANCH  24  25
ENDBRANCH   4  24
TORSDOF 9
ENDMDL
MODEL 10
REMARK VINA RESULT:      -6.9     25.343     28.365
REMARK  Name = 
REMARK  9 active torsions:
REMARK  status: ('A' for Active; 'I' for Inactive)
REMARK    1  A    between atoms: C_2  and  C_3
REMARK    2  A    between atoms: C_3  and  C_4
REMARK    3  A    between atoms: C_4  and  C_5
REMARK    4  A    between atoms: C_5  and  C_6
REMARK    5  A    between atoms: C_6  and  O_7
REMARK    6  A    between atoms: O_7  and  C_8
REMARK    7  A    between atoms: C_8  and  C_10
REMARK    8  A    between atoms: N_13  and  C_14
REMARK    9  A    between atoms: C_14  and  C_15
REMARK                            x       y       z     vdW  Elec       q    Type
REMARK                         _______ _______ _______ _____ _____    ______ ____
ROOT
ATOM      1  C   UNL     1      27.376  15.285  35.182  0.00  0.00    +0.000 A 
ATOM      2  C   UNL     1      28.732  15.484  35.336  0.00  0.00    +0.000 A 
ATOM      3  N   UNL     1      29.661  15.485  34.257  0.00  0.00    +0.000 NA
ATOM      4  N   UNL     1      29.046  15.672  36.630  0.00  0.00    +0.000 N 
ATOM      5  C   UNL     1      27.902  15.599  37.333  0.00  0.00    +0.000 A 
ATOM      6  N   UNL     1      27.612  15.708  38.639  0.00  0.00    +0.000 NA
ATOM      7  C   UNL     1      26.340  15.589  39.082  0.00  0.00    +0.000 A 
ATOM      8  C   UNL     1      25.999  15.695  40.415  0.00  0.00    +0.000 A 
ATOM      9  C   UNL     1      24.690  15.567  40.830  0.00  0.00    +0.000 A 
ATOM     10  C   UNL     1      23.684  15.329  39.918  0.00  0.00    +0.000 A 
ATOM     11  C   UNL     1      24.012  15.222  38.582  0.00  0.00    +0.000 A 
ATOM     12  C   UNL     1      25.318  15.350  38.176  0.00  0.00    +0.000 A 
ATOM     13  N   UNL     1      25.581  15.237  36.875  0.00  0.00    +0.000 NA
ATOM     14  C   UNL     1      26.853  15.360  36.454  0.00  0.00    +0.000 A 
ENDROOT
BRANCH   1  15
ATOM     15  C   UNL     1      26.621  15.045  33.950  0.00  0.00    +0.000 C 
ATOM     16  O   UNL     1      26.276  13.895  33.651  0.00  0.00    +0.000 OA
BRANCH  15  17
ATOM     17  O   UNL     1      26.276  16.080  33.094  0.00  0.00    +0.000 OA
BRANCH  17  18
ATOM     18  C   UNL     1      24.952  16.487  32.950  0.00  0.00    +0.000 C 
BRANCH  18  19
ATOM     19  C   UNL     1      24.672  17.751  33.728  0.00  0.00    +0.000 C 
BRANCH  19  20
ATOM     20  C   UNL     1      24.693  18.977  32.877  0.00  0.00    +0.000 C 
BRANCH  20  21
ATOM     21  C   UNL     1      23.674  18.937  31.761  0.00  0.00    +0.000 C 
BRANCH  21  23
ATOM     22  C   UNL     1      23.588  21.393  32.051  0.00  0.00    +0.000 C 
ATOM     23  C   UNL     1      22.783  20.154  31.834  0.00  0.00    +0.000 C 
ENDBRANCH  21  23
ENDBRANCH  20  21
ENDBRANCH  19  20
ENDBRANCH  18  19
ENDBRANCH  17  18
ENDBRANCH  15  17
ENDBRANCH   1  15
BRANCH   4  24
ATOM     24  C   UNL     1      30.397  15.912  37.156  0.00  0.00    +0.000 C 
BRANCH  24  25
ATOM     25  C   UNL     1      30.923  14.558  37.543  0.00  0.00    +0.000 A 
ATOM     26  C   UNL     1      30.806  14.095  38.841  0.00  0.00    +0.000 A 
ATOM     27  C   UNL     1      31.277  12.867  39.221  0.00  0.00    +0.000 A 
ATOM     28  C   UNL     1      31.894  12.034  38.311  0.00  0.00    +0.000 A 
ATOM     29  C   UNL     1      32.013  12.493  37.015  0.00  0.00    +0.000 A 
ATOM     30  C   UNL     1      31.540  13.730  36.629  0.00  0.00    +0.000 A 
ENDBRANCH  24  25
ENDBRANCH   4  24
TORSDOF 9
ENDMDL
