MODEL 1
REMARK VINA RESULT:      -6.3      0.000      0.000
REMARK  Name = 
REMARK  5 active torsions:
REMARK  status: ('A' for Active; 'I' for Inactive)
REMARK    1  A    between atoms: O_2  and  C_3
REMARK    2  A    between atoms: C_7  and  C_8
REMARK    3  A    between atoms: C_8  and  N_9
REMARK    4  A    between atoms: N_9  and  C_10
REMARK    5  A    between atoms: C_15  and  N_16
REMARK                            x       y       z     vdW  Elec       q    Type
REMARK                         _______ _______ _______ _____ _____    ______ ____
ROOT
ATOM      1  N   UNL     1      18.204  10.459  37.888  0.00  0.00    +0.000 NA
ENDROOT
BRANCH   1   2
ATOM      2  C   UNL     1      19.516  10.948  37.978  0.00  0.00    +0.000 A 
ATOM      3  C   UNL     1      19.827  12.102  38.656  0.00  0.00    +0.000 A 
ATOM      4  C   UNL     1      21.135  12.518  38.701  0.00  0.00    +0.000 A 
ATOM      5  C   UNL     1      22.149  11.817  38.088  0.00  0.00    +0.000 A 
ATOM      6  C   UNL     1      23.571  12.268  38.137  0.00  0.00    +0.000 C 
ATOM      7  C   UNL     1      21.851  10.652  37.402  0.00  0.00    +0.000 A 
ATOM      8  C   UNL     1      20.532  10.252  37.368  0.00  0.00    +0.000 A 
BRANCH   7   9
ATOM      9  N   UNL     1      22.899   9.948  36.782  0.00  0.00    +0.000 N 
ATOM     10  O   UNL     1      23.260  10.205  35.622  0.00  0.00    +0.000 OA
ATOM     11  O   UNL     1      23.549   8.953  37.459  0.00  0.00    +0.000 OA
ENDBRANCH   7   9
ENDBRANCH   1   2
BRANCH   1  12
ATOM     12  C   UNL     1      17.700   9.761  36.701  0.00  0.00    +0.000 C 
BRANCH  12  17
ATOM     13  C   UNL     1      16.002  11.485  33.848  0.00  0.00    +0.000 A 
ATOM     14  C   UNL     1      15.006  12.196  34.468  0.00  0.00    +0.000 A 
ATOM     15  C   UNL     1      14.890  12.110  35.829  0.00  0.00    +0.000 A 
ATOM     16  C   UNL     1      15.744  11.333  36.577  0.00  0.00    +0.000 A 
ATOM     17  C   UNL     1      16.741  10.621  35.960  0.00  0.00    +0.000 A 
ATOM     18  C   UNL     1      16.856  10.708  34.595  0.00  0.00    +0.000 A 
ATOM     19  O   UNL     1      17.872   9.984  33.960  0.00  0.00    +0.000 OA
BRANCH  13  21
ATOM     20  C   UNL     1      15.325  10.794  31.593  0.00  0.00    +0.000 C 
ATOM     21  O   UNL     1      16.188  11.517  32.467  0.00  0.00    +0.000 OA
ENDBRANCH  13  21
ENDBRANCH  12  17
ENDBRANCH   1  12
TORSDOF 5
ENDMDL
MODEL 2
REMARK VINA RESULT:      -6.2      1.622      2.150
REMARK  Name = 
REMARK  5 active torsions:
REMARK  status: ('A' for Active; 'I' for Inactive)
REMARK    1  A    between atoms: O_2  and  C_3
REMARK    2  A    between atoms: C_7  and  C_8
REMARK    3  A    between atoms: C_8  and  N_9
REMARK    4  A    between atoms: N_9  and  C_10
REMARK    5  A    between atoms: C_15  and  N_16
REMARK                            x       y       z     vdW  Elec       q    Type
REMARK                         _______ _______ _______ _____ _____    ______ ____
ROOT
ATOM      1  N   UNL     1      19.380   9.451  36.427  0.00  0.00    +0.000 NA
ENDROOT
BRANCH   1   2
ATOM      2  C   UNL     1      20.456  10.170  36.969  0.00  0.00    +0.000 A 
ATOM      3  C   UNL     1      20.278  11.235  37.819  0.00  0.00    +0.000 A 
ATOM      4  C   UNL     1      21.382  11.889  38.310  0.00  0.00    +0.000 A 
ATOM      5  C   UNL     1      22.664  11.515  37.979  0.00  0.00    +0.000 A 
ATOM      6  C   UNL     1      23.863  12.225  38.513  0.00  0.00    +0.000 C 
ATOM      7  C   UNL     1      22.859  10.443  37.124  0.00  0.00    +0.000 A 
ATOM      8  C   UNL     1      21.739   9.800  36.642  0.00  0.00    +0.000 A 
BRANCH   7   9
ATOM      9  N   UNL     1      24.176  10.074  36.797  0.00  0.00    +0.000 N 
ATOM     10  O   UNL     1      24.759  10.547  35.808  0.00  0.00    +0.000 OA
ATOM     11  O   UNL     1      24.847   9.173  37.577  0.00  0.00    +0.000 OA
ENDBRANCH   7   9
ENDBRANCH   1   2
BRANCH   1  12
ATOM     12  C   UNL     1      17.991   9.684  36.829  0.00  0.00    +0.000 C 
BRANCH  12  17
ATOM     13  C   UNL     1      15.407  11.730  35.058  0.00  0.00    +0.000 A 
ATOM     14  C   UNL     1      15.724  11.547  33.737  0.00  0.00    +0.000 A 
ATOM     15  C   UNL     1      16.790  10.749  33.422  0.00  0.00    +0.000 A 
ATOM     16  C   UNL     1      17.541  10.134  34.399  0.00  0.00    +0.000 A 
ATOM     17  C   UNL     1      17.227  10.314  35.721  0.00  0.00    +0.000 A 
ATOM     18  C   UNL     1      16.157  11.116  36.034  0.00  0.00    +0.000 A 
ATOM     19  O   UNL     1      15.831  11.304  37.382  0.00  0.00    +0.000 OA
BRANCH  13  21
ATOM     20  C   UNL     1      13.934  13.658  34.693  0.00  0.00    +0.000 C 
ATOM     21  O   UNL     1      14.337  12.527  35.462  0.00  0.00    +0.000 OA
ENDBRANCH  13  21
ENDBRANCH  12  17
ENDBRANCH   1  12
TORSDOF 5
ENDMDL
MODEL 3
REMARK VINA RESULT:      -6.2      1.766      2.146
REMARK  Name = 
REMARK  5 active torsions:
REMARK  status: ('A' for Active; 'I' for Inactive)
REMARK    1  A    between atoms: O_2  and  C_3
REMARK    2  A    between atoms: C_7  and  C_8
REMARK    3  A    between atoms: C_8  and  N_9
REMARK    4  A    between atoms: N_9  and  C_10
REMARK    5  A    between atoms: C_15  and  N_16
REMARK                            x       y       z     vdW  Elec       q    Type
REMARK                         _______ _______ _______ _____ _____    ______ ____
ROOT
ATOM      1  N   UNL     1      19.264  10.569  38.067  0.00  0.00    +0.000 NA
ENDROOT
BRANCH   1   2
ATOM      2  C   UNL     1      20.599  10.594  37.637  0.00  0.00    +0.000 A 
ATOM      3  C   UNL     1      21.070   9.770  36.644  0.00  0.00    +0.000 A 
ATOM      4  C   UNL     1      22.391   9.852  36.278  0.00  0.00    +0.000 A 
ATOM      5  C   UNL     1      23.263  10.735  36.873  0.00  0.00    +0.000 A 
ATOM      6  C   UNL     1      24.699  10.826  36.475  0.00  0.00    +0.000 C 
ATOM      7  C   UNL     1      22.803  11.573  37.875  0.00  0.00    +0.000 A 
ATOM      8  C   UNL     1      21.475  11.474  38.228  0.00  0.00    +0.000 A 
BRANCH   7   9
ATOM      9  N   UNL     1      23.708  12.469  38.472  0.00  0.00    +0.000 N 
ATOM     10  O   UNL     1      23.856  13.626  38.045  0.00  0.00    +0.000 OA
ATOM     11  O   UNL     1      24.452  12.074  39.549  0.00  0.00    +0.000 OA
ENDBRANCH   7   9
ENDBRANCH   1   2
BRANCH   1  12
ATOM     12  C   UNL     1      18.249   9.713  37.446  0.00  0.00    +0.000 C 
BRANCH  12  17
ATOM     13  C   UNL     1      16.238  11.434  34.802  0.00  0.00    +0.000 A 
ATOM     14  C   UNL     1      15.252  12.057  35.523  0.00  0.00    +0.000 A 
ATOM     15  C   UNL     1      15.245  11.913  36.884  0.00  0.00    +0.000 A 
ATOM     16  C   UNL     1      16.199  11.163  37.533  0.00  0.00    +0.000 A 
ATOM     17  C   UNL     1      17.187  10.539  36.815  0.00  0.00    +0.000 A 
ATOM     18  C   UNL     1      17.191  10.684  35.450  0.00  0.00    +0.000 A 
ATOM     19  O   UNL     1      18.197  10.049  34.711  0.00  0.00    +0.000 OA
BRANCH  13  21
ATOM     20  C   UNL     1      15.140  11.676  32.621  0.00  0.00    +0.000 C 
ATOM     21  O   UNL     1      16.316  11.530  33.413  0.00  0.00    +0.000 OA
ENDBRANCH  13  21
ENDBRANCH  12  17
ENDBRANCH   1  12
TORSDOF 5
ENDMDL
MODEL 4
REMARK VINA RESULT:      -6.0     17.440     18.707
REMARK  Name = 
REMARK  5 active torsions:
REMARK  status: ('A' for Active; 'I' for Inactive)
REMARK    1  A    between atoms: O_2  and  C_3
REMARK    2  A    between atoms: C_7  and  C_8
REMARK    3  A    between atoms: C_8  and  N_9
REMARK    4  A    between atoms: N_9  and  C_10
REMARK    5  A    between atoms: C_15  and  N_16
REMARK                            x       y       z     vdW  Elec       q    Type
REMARK                         _______ _______ _______ _____ _____    ______ ____
ROOT
ATOM      1  N   UNL     1      27.931  22.534  25.817  0.00  0.00    +0.000 NA
ENDROOT
BRANCH   1   2
ATOM      2  C   UNL     1      28.248  22.608  27.182  0.00  0.00    +0.000 A 
ATOM      3  C   UNL     1      29.543  22.674  27.635  0.00  0.00    +0.000 A 
ATOM      4  C   UNL     1      29.775  22.743  28.987  0.00  0.00    +0.000 A 
ATOM      5  C   UNL     1      28.750  22.749  29.907  0.00  0.00    +0.000 A 
ATOM      6  C   UNL     1      29.002  22.826  31.376  0.00  0.00    +0.000 C 
ATOM      7  C   UNL     1      27.440  22.684  29.465  0.00  0.00    +0.000 A 
ATOM      8  C   UNL     1      27.229  22.614  28.105  0.00  0.00    +0.000 A 
BRANCH   7   9
ATOM      9  N   UNL     1      26.407  22.693  30.418  0.00  0.00    +0.000 N 
ATOM     10  O   UNL     1      25.937  23.754  30.861  0.00  0.00    +0.000 OA
ATOM     11  O   UNL     1      25.894  21.513  30.882  0.00  0.00    +0.000 OA
ENDBRANCH   7   9
ENDBRANCH   1   2
BRANCH   1  12
ATOM     12  C   UNL     1      26.642  22.979  25.279  0.00  0.00    +0.000 C 
BRANCH  12  17
ATOM     13  C   UNL     1      27.391  25.455  22.576  0.00  0.00    +0.000 A 
ATOM     14  C   UNL     1      27.108  26.656  23.174  0.00  0.00    +0.000 A 
ATOM     15  C   UNL     1      26.668  26.656  24.470  0.00  0.00    +0.000 A 
ATOM     16  C   UNL     1      26.508  25.485  25.175  0.00  0.00    +0.000 A 
ATOM     17  C   UNL     1      26.791  24.282  24.581  0.00  0.00    +0.000 A 
ATOM     18  C   UNL     1      27.231  24.285  23.281  0.00  0.00    +0.000 A 
ATOM     19  O   UNL     1      27.522  23.059  22.669  0.00  0.00    +0.000 OA
BRANCH  13  21
ATOM     20  C   UNL     1      29.148  25.815  20.902  0.00  0.00    +0.000 C 
ATOM     21  O   UNL     1      27.843  25.367  21.260  0.00  0.00    +0.000 OA
ENDBRANCH  13  21
ENDBRANCH  12  17
ENDBRANCH   1  12
TORSDOF 5
ENDMDL
MODEL 5
REMARK VINA RESULT:      -5.9      4.729      5.857
REMARK  Name = 
REMARK  5 active torsions:
REMARK  status: ('A' for Active; 'I' for Inactive)
REMARK    1  A    between atoms: O_2  and  C_3
REMARK    2  A    between atoms: C_7  and  C_8
REMARK    3  A    between atoms: C_8  and  N_9
REMARK    4  A    between atoms: N_9  and  C_10
REMARK    5  A    between atoms: C_15  and  N_16
REMARK                            x       y       z     vdW  Elec       q    Type
REMARK                         _______ _______ _______ _____ _____    ______ ____
ROOT
ATOM      1  N   UNL     1      18.112   9.029  39.163  0.00  0.00    +0.000 NA
ENDROOT
BRANCH   1   2
ATOM      2  C   UNL     1      17.459   8.593  40.326  0.00  0.00    +0.000 A 
ATOM      3  C   UNL     1      16.371   9.247  40.851  0.00  0.00    +0.000 A 
ATOM      4  C   UNL     1      15.785   8.759  41.994  0.00  0.00    +0.000 A 
ATOM      5  C   UNL     1      16.251   7.633  42.633  0.00  0.00    +0.000 A 
ATOM      6  C   UNL     1      15.614   7.102  43.874  0.00  0.00    +0.000 C 
ATOM      7  C   UNL     1      17.346   6.962  42.115  0.00  0.00    +0.000 A 
ATOM      8  C   UNL     1      17.920   7.468  40.969  0.00  0.00    +0.000 A 
BRANCH   7   9
ATOM      9  N   UNL     1      17.808   5.813  42.781  0.00  0.00    +0.000 N 
ATOM     10  O   UNL     1      18.700   5.874  43.643  0.00  0.00    +0.000 OA
ATOM     11  O   UNL     1      17.273   4.589  42.486  0.00  0.00    +0.000 OA
ENDBRANCH   7   9
ENDBRANCH   1   2
BRANCH   1  12
ATOM     12  C   UNL     1      17.852  10.335  38.553  0.00  0.00    +0.000 C 
BRANCH  12  17
ATOM     13  C   UNL     1      16.559  11.031  35.112  0.00  0.00    +0.000 A 
ATOM     14  C   UNL     1      17.114  10.023  34.366  0.00  0.00    +0.000 A 
ATOM     15  C   UNL     1      17.917   9.109  34.993  0.00  0.00    +0.000 A 
ATOM     16  C   UNL     1      18.174   9.184  36.344  0.00  0.00    +0.000 A 
ATOM     17  C   UNL     1      17.620  10.190  37.093  0.00  0.00    +0.000 A 
ATOM     18  C   UNL     1      16.815  11.106  36.461  0.00  0.00    +0.000 A 
ATOM     19  O   UNL     1      16.246  12.136  37.220  0.00  0.00    +0.000 OA
BRANCH  13  21
ATOM     20  C   UNL     1      15.197  11.839  33.237  0.00  0.00    +0.000 C 
ATOM     21  O   UNL     1      15.730  12.001  34.550  0.00  0.00    +0.000 OA
ENDBRANCH  13  21
ENDBRANCH  12  17
ENDBRANCH   1  12
TORSDOF 5
ENDMDL
MODEL 6
REMARK VINA RESULT:      -5.9     17.221     19.518
REMARK  Name = 
REMARK  5 active torsions:
REMARK  status: ('A' for Active; 'I' for Inactive)
REMARK    1  A    between atoms: O_2  and  C_3
REMARK    2  A    between atoms: C_7  and  C_8
REMARK    3  A    between atoms: C_8  and  N_9
REMARK    4  A    between atoms: N_9  and  C_10
REMARK    5  A    between atoms: C_15  and  N_16
REMARK                            x       y       z     vdW  Elec       q    Type
REMARK                         _______ _______ _______ _____ _____    ______ ____
ROOT
ATOM      1  N   UNL     1      29.172  22.265  27.577  0.00  0.00    +0.000 NA
ENDROOT
BRANCH   1   2
ATOM      2  C   UNL     1      29.126  22.625  26.222  0.00  0.00    +0.000 A 
ATOM      3  C   UNL     1      30.244  22.631  25.422  0.00  0.00    +0.000 A 
ATOM      4  C   UNL     1      30.119  22.996  24.104  0.00  0.00    +0.000 A 
ATOM      5  C   UNL     1      28.910  23.357  23.553  0.00  0.00    +0.000 A 
ATOM      6  C   UNL     1      28.775  23.752  22.121  0.00  0.00    +0.000 C 
ATOM      7  C   UNL     1      27.775  23.355  24.347  0.00  0.00    +0.000 A 
ATOM      8  C   UNL     1      27.921  22.986  25.667  0.00  0.00    +0.000 A 
BRANCH   7   9
ATOM      9  N   UNL     1      26.549  23.725  23.768  0.00  0.00    +0.000 N 
ATOM     10  O   UNL     1      25.851  22.910  23.142  0.00  0.00    +0.000 OA
ATOM     11  O   UNL     1      26.097  25.011  23.886  0.00  0.00    +0.000 OA
ENDBRANCH   7   9
ENDBRANCH   1   2
BRANCH   1  12
ATOM     12  C   UNL     1      29.719  23.146  28.612  0.00  0.00    +0.000 C 
BRANCH  12  17
ATOM     13  C   UNL     1      31.616  21.534  31.405  0.00  0.00    +0.000 A 
ATOM     14  C   UNL     1      32.807  21.200  30.813  0.00  0.00    +0.000 A 
ATOM     15  C   UNL     1      32.992  21.505  29.492  0.00  0.00    +0.000 A 
ATOM     16  C   UNL     1      32.013  22.133  28.755  0.00  0.00    +0.000 A 
ATOM     17  C   UNL     1      30.821  22.468  29.343  0.00  0.00    +0.000 A 
ATOM     18  C   UNL     1      30.638  22.161  30.668  0.00  0.00    +0.000 A 
ATOM     19  O   UNL     1      29.422  22.500  31.275  0.00  0.00    +0.000 OA
BRANCH  13  21
ATOM     20  C   UNL     1      31.934  22.037  33.785  0.00  0.00    +0.000 C 
ATOM     21  O   UNL     1      31.348  21.258  32.745  0.00  0.00    +0.000 OA
ENDBRANCH  13  21
ENDBRANCH  12  17
ENDBRANCH   1  12
TORSDOF 5
ENDMDL
MODEL 7
REMARK VINA RESULT:      -5.9     21.281     22.589
REMARK  Name = 
REMARK  5 active torsions:
REMARK  status: ('A' for Active; 'I' for Inactive)
REMARK    1  A    between atoms: O_2  and  C_3
REMARK    2  A    between atoms: C_7  and  C_8
REMARK    3  A    between atoms: C_8  and  N_9
REMARK    4  A    between atoms: N_9  and  C_10
REMARK    5  A    between atoms: C_15  and  N_16
REMARK                            x       y       z     vdW  Elec       q    Type
REMARK                         _______ _______ _______ _____ _____    ______ ____
ROOT
ATOM      1  N   UNL     1      22.377  -7.019  25.115  0.00  0.00    +0.000 NA
ENDROOT
BRANCH   1   2
ATOM      2  C   UNL     1      23.560  -7.386  24.456  0.00  0.00    +0.000 A 
ATOM      3  C   UNL     1      24.456  -6.460  23.978  0.00  0.00    +0.000 A 
ATOM      4  C   UNL     1      25.593  -6.897  23.343  0.00  0.00    +0.000 A 
ATOM      5  C   UNL     1      25.868  -8.234  23.168  0.00  0.00    +0.000 A 
ATOM      6  C   UNL     1      27.103  -8.709  22.479  0.00  0.00    +0.000 C 
ATOM      7  C   UNL     1      24.975  -9.179  23.645  0.00  0.00    +0.000 A 
ATOM      8  C   UNL     1      23.840  -8.720  24.279  0.00  0.00    +0.000 A 
BRANCH   7   9
ATOM      9  N   UNL     1      25.272 -10.541  23.459  0.00  0.00    +0.000 N 
ATOM     10  O   UNL     1      25.965 -11.174  24.272  0.00  0.00    +0.000 OA
ATOM     11  O   UNL     1      24.795 -11.201  22.360  0.00  0.00    +0.000 OA
ENDBRANCH   7   9
ENDBRANCH   1   2
BRANCH   1  12
ATOM     12  C   UNL     1      21.187  -7.874  25.139  0.00  0.00    +0.000 C 
BRANCH  12  17
ATOM     13  C   UNL     1      17.813  -7.238  26.624  0.00  0.00    +0.000 A 
ATOM     14  C   UNL     1      17.811  -5.879  26.810  0.00  0.00    +0.000 A 
ATOM     15  C   UNL     1      18.921  -5.166  26.446  0.00  0.00    +0.000 A 
ATOM     16  C   UNL     1      20.026  -5.782  25.904  0.00  0.00    +0.000 A 
ATOM     17  C   UNL     1      20.031  -7.140  25.717  0.00  0.00    +0.000 A 
ATOM     18  C   UNL     1      18.917  -7.853  26.084  0.00  0.00    +0.000 A 
ATOM     19  O   UNL     1      18.917  -9.241  25.895  0.00  0.00    +0.000 OA
BRANCH  13  21
ATOM     20  C   UNL     1      15.647  -8.241  26.056  0.00  0.00    +0.000 C 
ATOM     21  O   UNL     1      16.723  -8.036  26.969  0.00  0.00    +0.000 OA
ENDBRANCH  13  21
ENDBRANCH  12  17
ENDBRANCH   1  12
TORSDOF 5
ENDMDL
MODEL 8
REMARK VINA RESULT:      -5.7     17.025     18.367
REMARK  Name = 
REMARK  5 active torsions:
REMARK  status: ('A' for Active; 'I' for Inactive)
REMARK    1  A    between atoms: O_2  and  C_3
REMARK    2  A    between atoms: C_7  and  C_8
REMARK    3  A    between atoms: C_8  and  N_9
REMARK    4  A    between atoms: N_9  and  C_10
REMARK    5  A    between atoms: C_15  and  N_16
REMARK                            x       y       z     vdW  Elec       q    Type
REMARK                         _______ _______ _______ _____ _____    ______ ____
ROOT
ATOM      1  N   UNL     1      29.659  22.971  27.496  0.00  0.00    +0.000 NA
ENDROOT
BRANCH   1   2
ATOM      2  C   UNL     1      30.542  22.481  28.470  0.00  0.00    +0.000 A 
ATOM      3  C   UNL     1      31.723  21.858  28.148  0.00  0.00    +0.000 A 
ATOM      4  C   UNL     1      32.536  21.405  29.159  0.00  0.00    +0.000 A 
ATOM      5  C   UNL     1      32.207  21.555  30.487  0.00  0.00    +0.000 A 
ATOM      6  C   UNL     1      33.091  21.064  31.585  0.00  0.00    +0.000 C 
ATOM      7  C   UNL     1      31.020  22.182  30.826  0.00  0.00    +0.000 A 
ATOM      8  C   UNL     1      30.219  22.628  29.798  0.00  0.00    +0.000 A 
BRANCH   7   9
ATOM      9  N   UNL     1      30.701  22.327  32.188  0.00  0.00    +0.000 N 
ATOM     10  O   UNL     1      30.909  23.389  32.797  0.00  0.00    +0.000 OA
ATOM     11  O   UNL     1      30.148  21.282  32.876  0.00  0.00    +0.000 OA
ENDBRANCH   7   9
ENDBRANCH   1   2
BRANCH   1  12
ATOM     12  C   UNL     1      29.815  22.679  26.068  0.00  0.00    +0.000 C 
BRANCH  12  17
ATOM     13  C   UNL     1      27.393  23.362  23.299  0.00  0.00    +0.000 A 
ATOM     14  C   UNL     1      26.176  23.231  23.917  0.00  0.00    +0.000 A 
ATOM     15  C   UNL     1      26.147  22.917  25.249  0.00  0.00    +0.000 A 
ATOM     16  C   UNL     1      27.305  22.732  25.970  0.00  0.00    +0.000 A 
ATOM     17  C   UNL     1      28.524  22.863  25.355  0.00  0.00    +0.000 A 
ATOM     18  C   UNL     1      28.550  23.177  24.019  0.00  0.00    +0.000 A 
ATOM     19  O   UNL     1      29.791  23.312  23.386  0.00  0.00    +0.000 OA
BRANCH  13  21
ATOM     20  C   UNL     1      27.510  25.036  21.509  0.00  0.00    +0.000 C 
ATOM     21  O   UNL     1      27.509  23.679  21.947  0.00  0.00    +0.000 OA
ENDBRANCH  13  21
ENDBRANCH  12  17
ENDBRANCH   1  12
TORSDOF 5
ENDMDL
MODEL 9
REMARK VINA RESULT:      -5.7     17.520     19.010
REMARK  Name = 
REMARK  5 active torsions:
REMARK  status: ('A' for Active; 'I' for Inactive)
REMARK    1  A    between atoms: O_2  and  C_3
REMARK    2  A    between atoms: C_7  and  C_8
REMARK    3  A    between atoms: C_8  and  N_9
REMARK    4  A    between atoms: N_9  and  C_10
REMARK    5  A    between atoms: C_15  and  N_16
REMARK                            x       y       z     vdW  Elec       q    Type
REMARK                         _______ _______ _______ _____ _____    ______ ____
ROOT
ATOM      1  N   UNL     1      28.549  22.814  27.016  0.00  0.00    +0.000 NA
ENDROOT
BRANCH   1   2
ATOM      2  C   UNL     1      29.048  22.704  28.323  0.00  0.00    +0.000 A 
ATOM      3  C   UNL     1      28.229  22.690  29.426  0.00  0.00    +0.000 A 
ATOM      4  C   UNL     1      28.792  22.580  30.674  0.00  0.00    +0.000 A 
ATOM      5  C   UNL     1      30.152  22.482  30.859  0.00  0.00    +0.000 A 
ATOM      6  C   UNL     1      30.764  22.361  32.215  0.00  0.00    +0.000 C 
ATOM      7  C   UNL     1      30.990  22.494  29.757  0.00  0.00    +0.000 A 
ATOM      8  C   UNL     1      30.406  22.606  28.514  0.00  0.00    +0.000 A 
BRANCH   7   9
ATOM      9  N   UNL     1      32.377  22.392  29.965  0.00  0.00    +0.000 N 
ATOM     10  O   UNL     1      32.984  21.321  29.801  0.00  0.00    +0.000 OA
ATOM     11  O   UNL     1      33.093  23.490  30.357  0.00  0.00    +0.000 OA
ENDBRANCH   7   9
ENDBRANCH   1   2
BRANCH   1  12
ATOM     12  C   UNL     1      29.419  22.845  25.838  0.00  0.00    +0.000 C 
BRANCH  12  17
ATOM     13  C   UNL     1      28.645  23.878  22.326  0.00  0.00    +0.000 A 
ATOM     14  C   UNL     1      27.276  23.821  22.285  0.00  0.00    +0.000 A 
ATOM     15  C   UNL     1      26.601  23.442  23.413  0.00  0.00    +0.000 A 
ATOM     16  C   UNL     1      27.265  23.121  24.575  0.00  0.00    +0.000 A 
ATOM     17  C   UNL     1      28.634  23.177  24.620  0.00  0.00    +0.000 A 
ATOM     18  C   UNL     1      29.309  23.557  23.487  0.00  0.00    +0.000 A 
ATOM     19  O   UNL     1      30.708  23.616  23.526  0.00  0.00    +0.000 OA
BRANCH  13  21
ATOM     20  C   UNL     1      29.388  25.596  20.739  0.00  0.00    +0.000 C 
ATOM     21  O   UNL     1      29.407  24.254  21.221  0.00  0.00    +0.000 OA
ENDBRANCH  13  21
ENDBRANCH  12  17
ENDBRANCH   1  12
TORSDOF 5
ENDMDL
MODEL 10
REMARK VINA RESULT:      -5.6     17.345     19.237
REMARK  Name = 
REMARK  5 active torsions:
REMARK  status: ('A' for Active; 'I' for Inactive)
REMARK    1  A    between atoms: O_2  and  C_3
REMARK    2  A    between atoms: C_7  and  C_8
REMARK    3  A    between atoms: C_8  and  N_9
REMARK    4  A    between atoms: N_9  and  C_10
REMARK    5  A    between atoms: C_15  and  N_16
REMARK                            x       y       z     vdW  Elec       q    Type
REMARK                         _______ _______ _______ _____ _____    ______ ____
ROOT
ATOM      1  N   UNL     1      29.490  21.946  27.046  0.00  0.00    +0.000 NA
ENDROOT
BRANCH   1   2
ATOM      2  C   UNL     1      29.460  22.567  25.789  0.00  0.00    +0.000 A 
ATOM      3  C   UNL     1      30.601  22.848  25.077  0.00  0.00    +0.000 A 
ATOM      4  C   UNL     1      30.491  23.459  23.852  0.00  0.00    +0.000 A 
ATOM      5  C   UNL     1      29.272  23.801  23.309  0.00  0.00    +0.000 A 
ATOM      6  C   UNL     1      29.153  24.463  21.978  0.00  0.00    +0.000 C 
ATOM      7  C   UNL     1      28.114  23.523  24.015  0.00  0.00    +0.000 A 
ATOM      8  C   UNL     1      28.246  22.911  25.242  0.00  0.00    +0.000 A 
BRANCH   7   9
ATOM      9  N   UNL     1      26.878  23.878  23.445  0.00  0.00    +0.000 N 
ATOM     10  O   UNL     1      26.317  24.951  23.723  0.00  0.00    +0.000 OA
ATOM     11  O   UNL     1      26.264  23.034  22.561  0.00  0.00    +0.000 OA
ENDBRANCH   7   9
ENDBRANCH   1   2
BRANCH   1  12
ATOM     12  C   UNL     1      29.702  22.689  28.291  0.00  0.00    +0.000 C 
BRANCH  12  17
ATOM     13  C   UNL     1      26.834  24.888  29.264  0.00  0.00    +0.000 A 
ATOM     14  C   UNL     1      25.992  24.023  29.914  0.00  0.00    +0.000 A 
ATOM     15  C   UNL     1      26.364  22.711  30.035  0.00  0.00    +0.000 A 
ATOM     16  C   UNL     1      27.555  22.251  29.521  0.00  0.00    +0.000 A 
ATOM     17  C   UNL     1      28.401  23.113  28.871  0.00  0.00    +0.000 A 
ATOM     18  C   UNL     1      28.025  24.428  28.750  0.00  0.00    +0.000 A 
ATOM     19  O   UNL     1      28.883  25.313  28.087  0.00  0.00    +0.000 OA
BRANCH  13  21
ATOM     20  C   UNL     1      26.626  27.151  30.188  0.00  0.00    +0.000 C 
ATOM     21  O   UNL     1      26.530  26.238  29.097  0.00  0.00    +0.000 OA
ENDBRANCH  13  21
ENDBRANCH  12  17
ENDBRANCH   1  12
TORSDOF 5
ENDMDL
