MODEL 1
REMARK VINA RESULT:      -7.7      0.000      0.000
REMARK  Name = 
REMARK  2 active torsions:
REMARK  status: ('A' for Active; 'I' for Inactive)
REMARK    1  A    between atoms: N_5  and  N_6
REMARK    2  A    between atoms: C_7  and  C_8
REMARK                            x       y       z     vdW  Elec       q    Type
REMARK                         _______ _______ _______ _____ _____    ______ ____
ROOT
ATOM      1  N   UNL     1      16.806  10.388  35.334  0.00  0.00    +0.000 NA
ATOM      2  C   UNL     1      16.011  11.208  34.790  0.00  0.00    +0.000 C 
ENDROOT
BRANCH   2   3
ATOM      3  C   UNL     1      15.838  11.340  33.329  0.00  0.00    +0.000 A 
ATOM      4  C   UNL     1      16.369  10.596  32.321  0.00  0.00    +0.000 A 
ATOM      5  N   UNL     1      15.929  11.087  31.136  0.00  0.00    +0.000 NA
ATOM      6  C   UNL     1      15.118  12.144  31.359  0.00  0.00    +0.000 A 
ATOM      7  C   UNL     1      14.412  13.003  30.564  0.00  0.00    +0.000 A 
ATOM      8  C   UNL     1      13.657  14.009  31.140  0.00  0.00    +0.000 A 
ATOM      9  C   UNL     1      13.589  14.179  32.506  0.00  0.00    +0.000 A 
ATOM     10  C   UNL     1      14.297  13.320  33.295  0.00  0.00    +0.000 A 
ATOM     11  C   UNL     1      15.056  12.309  32.735  0.00  0.00    +0.000 A 
ENDBRANCH   2   3
BRANCH   1  16
ATOM     12  C   UNL     1      21.847   9.851  36.768  0.00  0.00    +0.000 C 
ATOM     13  C   UNL     1      20.431   9.909  37.355  0.00  0.00    +0.000 A 
ATOM     14  N   UNL     1      19.325  10.063  36.658  0.00  0.00    +0.000 NA
ATOM     15  C   UNL     1      18.165  10.097  37.272  0.00  0.00    +0.000 A 
ATOM     16  N   UNL     1      16.988  10.244  36.712  0.00  0.00    +0.000 NA
ATOM     17  S   UNL     1      18.601   9.910  38.909  0.00  0.00    +0.000 S 
ATOM     18  C   UNL     1      20.296   9.793  38.717  0.00  0.00    +0.000 A 
ATOM     19  C   UNL     1      21.371   9.610  39.756  0.00  0.00    +0.000 C 
ENDBRANCH   1  16
TORSDOF 2
ENDMDL
MODEL 2
REMARK VINA RESULT:      -7.2      2.163      3.089
REMARK  Name = 
REMARK  2 active torsions:
REMARK  status: ('A' for Active; 'I' for Inactive)
REMARK    1  A    between atoms: N_5  and  N_6
REMARK    2  A    between atoms: C_7  and  C_8
REMARK                            x       y       z     vdW  Elec       q    Type
REMARK                         _______ _______ _______ _____ _____    ______ ____
ROOT
ATOM      1  N   UNL     1      17.057  11.554  36.115  0.00  0.00    +0.000 NA
ATOM      2  C   UNL     1      16.264  11.275  35.169  0.00  0.00    +0.000 C 
ENDROOT
BRANCH   2   3
ATOM      3  C   UNL     1      15.280  12.227  34.614  0.00  0.00    +0.000 A 
ATOM      4  C   UNL     1      14.428  13.070  35.258  0.00  0.00    +0.000 A 
ATOM      5  N   UNL     1      13.710  13.756  34.335  0.00  0.00    +0.000 NA
ATOM      6  C   UNL     1      14.083  13.369  33.095  0.00  0.00    +0.000 A 
ATOM      7  C   UNL     1      13.710  13.711  31.825  0.00  0.00    +0.000 A 
ATOM      8  C   UNL     1      14.316  13.099  30.743  0.00  0.00    +0.000 A 
ATOM      9  C   UNL     1      15.298  12.143  30.901  0.00  0.00    +0.000 A 
ATOM     10  C   UNL     1      15.665  11.806  32.171  0.00  0.00    +0.000 A 
ATOM     11  C   UNL     1      15.069  12.408  33.263  0.00  0.00    +0.000 A 
ENDBRANCH   2   3
BRANCH   1  16
ATOM     12  C   UNL     1      15.683   9.611  40.815  0.00  0.00    +0.000 C 
ATOM     13  C   UNL     1      16.807   9.551  39.772  0.00  0.00    +0.000 A 
ATOM     14  N   UNL     1      16.823  10.211  38.634  0.00  0.00    +0.000 NA
ATOM     15  C   UNL     1      17.843  10.081  37.818  0.00  0.00    +0.000 A 
ATOM     16  N   UNL     1      17.997  10.672  36.657  0.00  0.00    +0.000 NA
ATOM     17  S   UNL     1      18.851   8.987  38.648  0.00  0.00    +0.000 S 
ATOM     18  C   UNL     1      17.887   8.746  40.040  0.00  0.00    +0.000 A 
ATOM     19  C   UNL     1      18.140   7.883  41.248  0.00  0.00    +0.000 C 
ENDBRANCH   1  16
TORSDOF 2
ENDMDL
MODEL 3
REMARK VINA RESULT:      -7.0      3.008      7.970
REMARK  Name = 
REMARK  2 active torsions:
REMARK  status: ('A' for Active; 'I' for Inactive)
REMARK    1  A    between atoms: N_5  and  N_6
REMARK    2  A    between atoms: C_7  and  C_8
REMARK                            x       y       z     vdW  Elec       q    Type
REMARK                         _______ _______ _______ _____ _____    ______ ____
ROOT
ATOM      1  N   UNL     1      15.626  11.410  36.717  0.00  0.00    +0.000 NA
ATOM      2  C   UNL     1      16.658  11.602  37.424  0.00  0.00    +0.000 C 
ENDROOT
BRANCH   2   3
ATOM      3  C   UNL     1      17.470  10.513  38.006  0.00  0.00    +0.000 A 
ATOM      4  C   UNL     1      18.652   9.990  37.584  0.00  0.00    +0.000 A 
ATOM      5  N   UNL     1      19.023   9.002  38.436  0.00  0.00    +0.000 NA
ATOM      6  C   UNL     1      18.095   8.876  39.410  0.00  0.00    +0.000 A 
ATOM      7  C   UNL     1      17.950   8.068  40.503  0.00  0.00    +0.000 A 
ATOM      8  C   UNL     1      16.841   8.209  41.318  0.00  0.00    +0.000 A 
ATOM      9  C   UNL     1      15.863   9.147  41.064  0.00  0.00    +0.000 A 
ATOM     10  C   UNL     1      16.013   9.949  39.970  0.00  0.00    +0.000 A 
ATOM     11  C   UNL     1      17.116   9.822  39.146  0.00  0.00    +0.000 A 
ENDBRANCH   2   3
BRANCH   1  16
ATOM     12  C   UNL     1      15.629  11.417  31.449  0.00  0.00    +0.000 C 
ATOM     13  C   UNL     1      15.043  12.168  32.651  0.00  0.00    +0.000 A 
ATOM     14  N   UNL     1      15.268  11.876  33.914  0.00  0.00    +0.000 NA
ATOM     15  C   UNL     1      14.710  12.593  34.861  0.00  0.00    +0.000 A 
ATOM     16  N   UNL     1      14.842  12.421  36.154  0.00  0.00    +0.000 NA
ATOM     17  S   UNL     1      13.815  13.745  33.980  0.00  0.00    +0.000 S 
ATOM     18  C   UNL     1      14.214  13.235  32.398  0.00  0.00    +0.000 A 
ATOM     19  C   UNL     1      13.781  13.794  31.068  0.00  0.00    +0.000 C 
ENDBRANCH   1  16
TORSDOF 2
ENDMDL
MODEL 4
REMARK VINA RESULT:      -6.7      2.221      3.472
REMARK  Name = 
REMARK  2 active torsions:
REMARK  status: ('A' for Active; 'I' for Inactive)
REMARK    1  A    between atoms: N_5  and  N_6
REMARK    2  A    between atoms: C_7  and  C_8
REMARK                            x       y       z     vdW  Elec       q    Type
REMARK                         _______ _______ _______ _____ _____    ______ ____
ROOT
ATOM      1  N   UNL     1      18.403  10.796  37.725  0.00  0.00    +0.000 NA
ATOM      2  C   UNL     1      17.199  10.451  37.540  0.00  0.00    +0.000 C 
ENDROOT
BRANCH   2   3
ATOM      3  C   UNL     1      16.277  11.145  36.618  0.00  0.00    +0.000 A 
ATOM      4  C   UNL     1      15.251  11.995  36.893  0.00  0.00    +0.000 A 
ATOM      5  N   UNL     1      14.683  12.387  35.725  0.00  0.00    +0.000 NA
ATOM      6  C   UNL     1      15.329  11.803  34.692  0.00  0.00    +0.000 A 
ATOM      7  C   UNL     1      15.195  11.831  33.331  0.00  0.00    +0.000 A 
ATOM      8  C   UNL     1      16.053  11.088  32.542  0.00  0.00    +0.000 A 
ATOM      9  C   UNL     1      17.053  10.309  33.083  0.00  0.00    +0.000 A 
ATOM     10  C   UNL     1      17.181  10.284  34.442  0.00  0.00    +0.000 A 
ATOM     11  C   UNL     1      16.331  11.021  35.246  0.00  0.00    +0.000 A 
ENDBRANCH   2   3
BRANCH   1  16
ATOM     12  C   UNL     1      23.271  10.307  35.773  0.00  0.00    +0.000 C 
ATOM     13  C   UNL     1      22.438   9.981  37.018  0.00  0.00    +0.000 A 
ATOM     14  N   UNL     1      21.164  10.267  37.178  0.00  0.00    +0.000 NA
ATOM     15  C   UNL     1      20.553   9.936  38.292  0.00  0.00    +0.000 A 
ATOM     16  N   UNL     1      19.295  10.156  38.590  0.00  0.00    +0.000 NA
ATOM     17  S   UNL     1      21.792   9.186  39.190  0.00  0.00    +0.000 S 
ATOM     18  C   UNL     1      23.065   9.337  38.058  0.00  0.00    +0.000 A 
ATOM     19  C   UNL     1      24.500   8.890  38.158  0.00  0.00    +0.000 C 
ENDBRANCH   1  16
TORSDOF 2
ENDMDL
MODEL 5
REMARK VINA RESULT:      -6.4      3.987      8.351
REMARK  Name = 
REMARK  2 active torsions:
REMARK  status: ('A' for Active; 'I' for Inactive)
REMARK    1  A    between atoms: N_5  and  N_6
REMARK    2  A    between atoms: C_7  and  C_8
REMARK                            x       y       z     vdW  Elec       q    Type
REMARK                         _______ _______ _______ _____ _____    ______ ____
ROOT
ATOM      1  N   UNL     1      17.936  10.982  37.530  0.00  0.00    +0.000 NA
ATOM      2  C   UNL     1      19.163  10.870  37.241  0.00  0.00    +0.000 C 
ENDROOT
BRANCH   2   3
ATOM      3  C   UNL     1      20.169  10.273  38.143  0.00  0.00    +0.000 A 
ATOM      4  C   UNL     1      20.096  10.016  39.477  0.00  0.00    +0.000 A 
ATOM      5  N   UNL     1      21.266   9.462  39.881  0.00  0.00    +0.000 NA
ATOM      6  C   UNL     1      22.101   9.354  38.825  0.00  0.00    +0.000 A 
ATOM      7  C   UNL     1      23.373   8.884  38.646  0.00  0.00    +0.000 A 
ATOM      8  C   UNL     1      23.948   8.924  37.389  0.00  0.00    +0.000 A 
ATOM      9  C   UNL     1      23.278   9.427  36.294  0.00  0.00    +0.000 A 
ATOM     10  C   UNL     1      22.009   9.895  36.480  0.00  0.00    +0.000 A 
ATOM     11  C   UNL     1      21.419   9.863  37.730  0.00  0.00    +0.000 A 
ENDBRANCH   2   3
BRANCH   1  16
ATOM     12  C   UNL     1      13.017  10.447  39.337  0.00  0.00    +0.000 C 
ATOM     13  C   UNL     1      13.807  11.029  38.158  0.00  0.00    +0.000 A 
ATOM     14  N   UNL     1      15.115  10.980  38.021  0.00  0.00    +0.000 NA
ATOM     15  C   UNL     1      15.682  11.514  36.964  0.00  0.00    +0.000 A 
ATOM     16  N   UNL     1      16.965  11.541  36.694  0.00  0.00    +0.000 NA
ATOM     17  S   UNL     1      14.351  12.128  36.095  0.00  0.00    +0.000 S 
ATOM     18  C   UNL     1      13.100  11.654  37.159  0.00  0.00    +0.000 A 
ATOM     19  C   UNL     1      11.612  11.860  37.048  0.00  0.00    +0.000 C 
ENDBRANCH   1  16
TORSDOF 2
ENDMDL
MODEL 6
REMARK VINA RESULT:      -6.4     21.534     23.398
REMARK  Name = 
REMARK  2 active torsions:
REMARK  status: ('A' for Active; 'I' for Inactive)
REMARK    1  A    between atoms: N_5  and  N_6
REMARK    2  A    between atoms: C_7  and  C_8
REMARK                            x       y       z     vdW  Elec       q    Type
REMARK                         _______ _______ _______ _____ _____    ______ ____
ROOT
ATOM      1  N   UNL     1      29.111  24.956  21.691  0.00  0.00    +0.000 NA
ATOM      2  C   UNL     1      28.531  23.858  21.936  0.00  0.00    +0.000 C 
ENDROOT
BRANCH   2   3
ATOM      3  C   UNL     1      28.018  23.479  23.269  0.00  0.00    +0.000 A 
ATOM      4  C   UNL     1      26.739  23.449  23.731  0.00  0.00    +0.000 A 
ATOM      5  N   UNL     1      26.750  23.035  25.023  0.00  0.00    +0.000 NA
ATOM      6  C   UNL     1      28.023  22.795  25.408  0.00  0.00    +0.000 A 
ATOM      7  C   UNL     1      28.617  22.372  26.565  0.00  0.00    +0.000 A 
ATOM      8  C   UNL     1      29.991  22.229  26.617  0.00  0.00    +0.000 A 
ATOM      9  C   UNL     1      30.796  22.501  25.532  0.00  0.00    +0.000 A 
ATOM     10  C   UNL     1      30.198  22.925  24.381  0.00  0.00    +0.000 A 
ATOM     11  C   UNL     1      28.825  23.073  24.311  0.00  0.00    +0.000 A 
ENDBRANCH   2   3
BRANCH   1  16
ATOM     12  C   UNL     1      29.220  30.171  20.956  0.00  0.00    +0.000 C 
ATOM     13  C   UNL     1      29.554  28.851  20.250  0.00  0.00    +0.000 A 
ATOM     14  N   UNL     1      29.389  27.651  20.763  0.00  0.00    +0.000 NA
ATOM     15  C   UNL     1      29.712  26.590  20.061  0.00  0.00    +0.000 A 
ATOM     16  N   UNL     1      29.604  25.338  20.440  0.00  0.00    +0.000 NA
ATOM     17  S   UNL     1      30.280  27.263  18.603  0.00  0.00    +0.000 S 
ATOM     18  C   UNL     1      30.068  28.918  18.977  0.00  0.00    +0.000 A 
ATOM     19  C   UNL     1      30.362  30.138  18.145  0.00  0.00    +0.000 C 
ENDBRANCH   1  16
TORSDOF 2
ENDMDL
MODEL 7
REMARK VINA RESULT:      -6.4     27.551     29.685
REMARK  Name = 
REMARK  2 active torsions:
REMARK  status: ('A' for Active; 'I' for Inactive)
REMARK    1  A    between atoms: N_5  and  N_6
REMARK    2  A    between atoms: C_7  and  C_8
REMARK                            x       y       z     vdW  Elec       q    Type
REMARK                         _______ _______ _______ _____ _____    ______ ____
ROOT
ATOM      1  N   UNL     1      35.579  19.385  12.968  0.00  0.00    +0.000 NA
ATOM      2  C   UNL     1      36.517  18.578  13.238  0.00  0.00    +0.000 C 
ENDROOT
BRANCH   2   3
ATOM      3  C   UNL     1      36.973  18.279  14.611  0.00  0.00    +0.000 A 
ATOM      4  C   UNL     1      37.900  18.915  15.377  0.00  0.00    +0.000 A 
ATOM      5  N   UNL     1      37.987  18.283  16.574  0.00  0.00    +0.000 NA
ATOM      6  C   UNL     1      37.127  17.241  16.597  0.00  0.00    +0.000 A 
ATOM      7  C   UNL     1      36.798  16.283  17.515  0.00  0.00    +0.000 A 
ATOM      8  C   UNL     1      35.841  15.334  17.204  0.00  0.00    +0.000 A 
ATOM      9  C   UNL     1      35.199  15.318  15.984  0.00  0.00    +0.000 A 
ATOM     10  C   UNL     1      35.532  16.276  15.071  0.00  0.00    +0.000 A 
ATOM     11  C   UNL     1      36.486  17.233  15.367  0.00  0.00    +0.000 A 
ENDBRANCH   2   3
BRANCH   1  16
ATOM     12  C   UNL     1      30.913  21.827  12.865  0.00  0.00    +0.000 C 
ATOM     13  C   UNL     1      32.013  21.299  11.936  0.00  0.00    +0.000 A 
ATOM     14  N   UNL     1      33.118  20.702  12.328  0.00  0.00    +0.000 NA
ATOM     15  C   UNL     1      33.991  20.291  11.438  0.00  0.00    +0.000 A 
ATOM     16  N   UNL     1      35.129  19.685  11.679  0.00  0.00    +0.000 NA
ATOM     17  S   UNL     1      33.266  20.746   9.964  0.00  0.00    +0.000 S 
ATOM     18  C   UNL     1      31.840  21.459  10.582  0.00  0.00    +0.000 A 
ATOM     19  C   UNL     1      30.689  22.097   9.851  0.00  0.00    +0.000 C 
ENDBRANCH   1  16
TORSDOF 2
ENDMDL
MODEL 8
REMARK VINA RESULT:      -6.2      2.525      3.841
REMARK  Name = 
REMARK  2 active torsions:
REMARK  status: ('A' for Active; 'I' for Inactive)
REMARK    1  A    between atoms: N_5  and  N_6
REMARK    2  A    between atoms: C_7  and  C_8
REMARK                            x       y       z     vdW  Elec       q    Type
REMARK                         _______ _______ _______ _____ _____    ______ ____
ROOT
ATOM      1  N   UNL     1      19.622   9.994  36.983  0.00  0.00    +0.000 NA
ATOM      2  C   UNL     1      18.394   9.714  36.854  0.00  0.00    +0.000 C 
ENDROOT
BRANCH   2   3
ATOM      3  C   UNL     1      17.546  10.223  35.757  0.00  0.00    +0.000 A 
ATOM      4  C   UNL     1      17.693  10.088  34.411  0.00  0.00    +0.000 A 
ATOM      5  N   UNL     1      16.668  10.725  33.793  0.00  0.00    +0.000 NA
ATOM      6  C   UNL     1      15.853  11.274  34.721  0.00  0.00    +0.000 A 
ATOM      7  C   UNL     1      14.702  12.010  34.679  0.00  0.00    +0.000 A 
ATOM      8  C   UNL     1      14.109  12.425  35.857  0.00  0.00    +0.000 A 
ATOM      9  C   UNL     1      14.644  12.120  37.091  0.00  0.00    +0.000 A 
ATOM     10  C   UNL     1      15.794  11.386  37.127  0.00  0.00    +0.000 A 
ATOM     11  C   UNL     1      16.400  10.963  35.958  0.00  0.00    +0.000 A 
ENDBRANCH   2   3
BRANCH   1  16
ATOM     12  C   UNL     1      24.764  10.272  35.875  0.00  0.00    +0.000 C 
ATOM     13  C   UNL     1      23.796   9.837  36.983  0.00  0.00    +0.000 A 
ATOM     14  N   UNL     1      22.484   9.914  36.919  0.00  0.00    +0.000 NA
ATOM     15  C   UNL     1      21.755   9.510  37.933  0.00  0.00    +0.000 A 
ATOM     16  N   UNL     1      20.445   9.526  38.011  0.00  0.00    +0.000 NA
ATOM     17  S   UNL     1      22.928   8.990  39.054  0.00  0.00    +0.000 S 
ATOM     18  C   UNL     1      24.333   9.326  38.139  0.00  0.00    +0.000 A 
ATOM     19  C   UNL     1      25.782   9.122  38.493  0.00  0.00    +0.000 C 
ENDBRANCH   1  16
TORSDOF 2
ENDMDL
MODEL 9
REMARK VINA RESULT:      -6.2      2.780      4.075
REMARK  Name = 
REMARK  2 active torsions:
REMARK  status: ('A' for Active; 'I' for Inactive)
REMARK    1  A    between atoms: N_5  and  N_6
REMARK    2  A    between atoms: C_7  and  C_8
REMARK                            x       y       z     vdW  Elec       q    Type
REMARK                         _______ _______ _______ _____ _____    ______ ____
ROOT
ATOM      1  N   UNL     1      17.880  10.904  37.904  0.00  0.00    +0.000 NA
ATOM      2  C   UNL     1      17.126  10.418  37.010  0.00  0.00    +0.000 C 
ENDROOT
BRANCH   2   3
ATOM      3  C   UNL     1      16.173  11.219  36.215  0.00  0.00    +0.000 A 
ATOM      4  C   UNL     1      15.199  12.073  36.628  0.00  0.00    +0.000 A 
ATOM      5  N   UNL     1      14.572  12.583  35.539  0.00  0.00    +0.000 NA
ATOM      6  C   UNL     1      15.128  12.071  34.419  0.00  0.00    +0.000 A 
ATOM      7  C   UNL     1      14.908  12.221  33.077  0.00  0.00    +0.000 A 
ATOM      8  C   UNL     1      15.686  11.523  32.172  0.00  0.00    +0.000 A 
ATOM      9  C   UNL     1      16.689  10.668  32.577  0.00  0.00    +0.000 A 
ATOM     10  C   UNL     1      16.903  10.521  33.917  0.00  0.00    +0.000 A 
ATOM     11  C   UNL     1      16.134  11.212  34.836  0.00  0.00    +0.000 A 
ENDBRANCH   2   3
BRANCH   1  16
ATOM     12  C   UNL     1      15.611   7.878  41.571  0.00  0.00    +0.000 C 
ATOM     13  C   UNL     1      16.987   8.261  41.013  0.00  0.00    +0.000 A 
ATOM     14  N   UNL     1      17.200   9.105  40.026  0.00  0.00    +0.000 NA
ATOM     15  C   UNL     1      18.427   9.356  39.633  0.00  0.00    +0.000 A 
ATOM     16  N   UNL     1      18.789  10.169  38.669  0.00  0.00    +0.000 NA
ATOM     17  S   UNL     1      19.360   8.379  40.672  0.00  0.00    +0.000 S 
ATOM     18  C   UNL     1      18.094   7.680  41.583  0.00  0.00    +0.000 A 
ATOM     19  C   UNL     1      18.157   6.688  42.715  0.00  0.00    +0.000 C 
ENDBRANCH   1  16
TORSDOF 2
ENDMDL
MODEL 10
REMARK VINA RESULT:      -6.2     27.545     28.983
REMARK  Name = 
REMARK  2 active torsions:
REMARK  status: ('A' for Active; 'I' for Inactive)
REMARK    1  A    between atoms: N_5  and  N_6
REMARK    2  A    between atoms: C_7  and  C_8
REMARK                            x       y       z     vdW  Elec       q    Type
REMARK                         _______ _______ _______ _____ _____    ______ ____
ROOT
ATOM      1  N   UNL     1      35.526  19.406  12.437  0.00  0.00    +0.000 NA
ATOM      2  C   UNL     1      34.751  20.377  12.193  0.00  0.00    +0.000 C 
ENDROOT
BRANCH   2   3
ATOM      3  C   UNL     1      33.741  20.371  11.115  0.00  0.00    +0.000 A 
ATOM      4  C   UNL     1      33.858  19.985   9.816  0.00  0.00    +0.000 A 
ATOM      5  N   UNL     1      32.663  20.157   9.199  0.00  0.00    +0.000 NA
ATOM      6  C   UNL     1      31.767  20.652  10.081  0.00  0.00    +0.000 A 
ATOM      7  C   UNL     1      30.449  21.010  10.019  0.00  0.00    +0.000 A 
ATOM      8  C   UNL     1      29.816  21.497  11.148  0.00  0.00    +0.000 A 
ATOM      9  C   UNL     1      30.474  21.636  12.351  0.00  0.00    +0.000 A 
ATOM     10  C   UNL     1      31.790  21.278  12.407  0.00  0.00    +0.000 A 
ATOM     11  C   UNL     1      32.438  20.789  11.288  0.00  0.00    +0.000 A 
ENDBRANCH   2   3
BRANCH   1  16
ATOM     12  C   UNL     1      35.117  15.270  15.674  0.00  0.00    +0.000 C 
ATOM     13  C   UNL     1      35.961  16.527  15.433  0.00  0.00    +0.000 A 
ATOM     14  N   UNL     1      35.769  17.398  14.465  0.00  0.00    +0.000 NA
ATOM     15  C   UNL     1      36.558  18.441  14.358  0.00  0.00    +0.000 A 
ATOM     16  N   UNL     1      36.489  19.386  13.450  0.00  0.00    +0.000 NA
ATOM     17  S   UNL     1      37.639  18.229  15.658  0.00  0.00    +0.000 S 
ATOM     18  C   UNL     1      37.005  16.773  16.292  0.00  0.00    +0.000 A 
ATOM     19  C   UNL     1      37.458  15.961  17.477  0.00  0.00    +0.000 C 
ENDBRANCH   1  16
TORSDOF 2
ENDMDL
