MODEL 1
REMARK VINA RESULT:      -9.6      0.000      0.000
REMARK  Name = 
REMARK  6 active torsions:
REMARK  status: ('A' for Active; 'I' for Inactive)
REMARK    1  A    between atoms: C_2  and  C_5
REMARK    2  A    between atoms: C_12  and  C_13
REMARK    3  A    between atoms: N_15  and  N_16
REMARK    4  A    between atoms: C_17  and  C_18
REMARK    5  A    between atoms: N_20  and  C_21
REMARK    6  A    between atoms: C_21  and  C_22
REMARK                            x       y       z     vdW  Elec       q    Type
REMARK                         _______ _______ _______ _____ _____    ______ ____
ROOT
ATOM      1  N   UNL     1      35.198   2.182  16.226  0.00  0.00    +0.000 NA
ATOM      2  C   UNL     1      35.055   1.021  16.508  0.00  0.00    +0.000 C 
ENDROOT
BRANCH   2   3
ATOM      3  C   UNL     1      35.982  -0.068  16.388  0.00  0.00    +0.000 A 
ATOM      4  C   UNL     1      36.471  -0.562  15.175  0.00  0.00    +0.000 A 
ATOM      5  N   UNL     1      37.381  -1.513  15.359  0.00  0.00    +0.000 N 
ATOM      6  C   UNL     1      37.491  -1.651  16.705  0.00  0.00    +0.000 A 
ATOM      7  C   UNL     1      38.314  -2.517  17.462  0.00  0.00    +0.000 A 
ATOM      8  C   UNL     1      38.301  -2.507  18.802  0.00  0.00    +0.000 A 
ATOM      9  C   UNL     1      37.456  -1.622  19.495  0.00  0.00    +0.000 A 
ATOM     10  C   UNL     1      36.668  -0.800  18.733  0.00  0.00    +0.000 A 
ATOM     11  C   UNL     1      36.646  -0.775  17.363  0.00  0.00    +0.000 A 
BRANCH   5  12
ATOM     12  C   UNL     1      38.211  -2.291  14.397  0.00  0.00    +0.000 C 
BRANCH  12  13
ATOM     13  C   UNL     1      39.581  -1.630  14.338  0.00  0.00    +0.000 A 
ATOM     14  C   UNL     1      39.692  -0.325  14.036  0.00  0.00    +0.000 A 
ATOM     15  C   UNL     1      40.980   0.307  13.949  0.00  0.00    +0.000 A 
ATOM     16  C   UNL     1      42.078  -0.440  14.180  0.00  0.00    +0.000 A 
ATOM     17  C   UNL     1      41.963  -1.797  14.491  0.00  0.00    +0.000 A 
ATOM     18  C   UNL     1      40.689  -2.404  14.579  0.00  0.00    +0.000 A 
ENDBRANCH  12  13
ENDBRANCH   5  12
ENDBRANCH   2   3
BRANCH   1  21
ATOM     19  C   UNL     1      36.282   3.971  14.972  0.00  0.00    +0.000 C 
ATOM     20  O   UNL     1      35.253   4.631  14.796  0.00  0.00    +0.000 OA
ATOM     21  N   UNL     1      36.296   2.769  15.697  0.00  0.00    +0.000 NA
BRANCH  19  29
ATOM     22  C   UNL     1      38.570   7.203  18.327  0.00  0.00    +0.000 A 
ATOM     23  C   UNL     1      39.001   6.081  19.072  0.00  0.00    +0.000 A 
ATOM     24  C   UNL     1      38.987   4.875  18.420  0.00  0.00    +0.000 A 
ATOM     25  C   UNL     1      38.587   4.740  17.107  0.00  0.00    +0.000 A 
ATOM     26  C   UNL     1      38.158   5.860  16.360  0.00  0.00    +0.000 A 
ATOM     27  C   UNL     1      38.179   7.092  17.050  0.00  0.00    +0.000 A 
ATOM     28  O   UNL     1      37.756   5.824  15.088  0.00  0.00    +0.000 OA
ATOM     29  C   UNL     1      37.622   4.517  14.344  0.00  0.00    +0.000 C 
ATOM     30  C   UNL     1      38.767   3.643  15.043  0.00  0.00    +0.000 C 
ATOM     31  O   UNL     1      38.579   3.549  16.426  0.00  0.00    +0.000 OA
BRANCH  22  33
ATOM     32  C   UNL     1      38.871   8.262  20.555  0.00  0.00    +0.000 C 
ATOM     33  C   UNL     1      38.577   8.514  19.051  0.00  0.00    +0.000 C 
ATOM     34  C   UNL     1      37.339   9.277  18.805  0.00  0.00    +0.000 C 
ATOM     35  C   UNL     1      39.822   9.283  18.500  0.00  0.00    +0.000 C 
ENDBRANCH  22  33
ENDBRANCH  19  29
ENDBRANCH   1  21
TORSDOF 6
ENDMDL
MODEL 2
REMARK VINA RESULT:      -9.5      2.659      9.160
REMARK  Name = 
REMARK  6 active torsions:
REMARK  status: ('A' for Active; 'I' for Inactive)
REMARK    1  A    between atoms: C_2  and  C_5
REMARK    2  A    between atoms: C_12  and  C_13
REMARK    3  A    between atoms: N_15  and  N_16
REMARK    4  A    between atoms: C_17  and  C_18
REMARK    5  A    between atoms: N_20  and  C_21
REMARK    6  A    between atoms: C_21  and  C_22
REMARK                            x       y       z     vdW  Elec       q    Type
REMARK                         _______ _______ _______ _____ _____    ______ ____
ROOT
ATOM      1  N   UNL     1      38.395   3.968  17.979  0.00  0.00    +0.000 NA
ATOM      2  C   UNL     1      38.880   5.012  18.327  0.00  0.00    +0.000 C 
ENDROOT
BRANCH   2   3
ATOM      3  C   UNL     1      38.553   6.350  17.922  0.00  0.00    +0.000 A 
ATOM      4  C   UNL     1      38.243   6.728  16.613  0.00  0.00    +0.000 A 
ATOM      5  N   UNL     1      37.893   8.008  16.536  0.00  0.00    +0.000 N 
ATOM      6  C   UNL     1      37.978   8.481  17.807  0.00  0.00    +0.000 A 
ATOM      7  C   UNL     1      37.717   9.776  18.310  0.00  0.00    +0.000 A 
ATOM      8  C   UNL     1      37.841  10.063  19.613  0.00  0.00    +0.000 A 
ATOM      9  C   UNL     1      38.240   9.068  20.522  0.00  0.00    +0.000 A 
ATOM     10  C   UNL     1      38.490   7.824  20.003  0.00  0.00    +0.000 A 
ATOM     11  C   UNL     1      38.378   7.484  18.680  0.00  0.00    +0.000 A 
BRANCH   5  12
ATOM     12  C   UNL     1      37.435   8.845  15.392  0.00  0.00    +0.000 C 
BRANCH  12  13
ATOM     13  C   UNL     1      36.082   8.308  14.948  0.00  0.00    +0.000 A 
ATOM     14  C   UNL     1      34.948   8.898  15.364  0.00  0.00    +0.000 A 
ATOM     15  C   UNL     1      33.662   8.385  14.976  0.00  0.00    +0.000 A 
ATOM     16  C   UNL     1      33.618   7.298  14.180  0.00  0.00    +0.000 A 
ATOM     17  C   UNL     1      34.797   6.684  13.749  0.00  0.00    +0.000 A 
ATOM     18  C   UNL     1      36.054   7.202  14.135  0.00  0.00    +0.000 A 
ENDBRANCH  12  13
ENDBRANCH   5  12
ENDBRANCH   2   3
BRANCH   1  21
ATOM     19  C   UNL     1      37.518   3.024  15.908  0.00  0.00    +0.000 C 
ATOM     20  O   UNL     1      38.547   2.408  15.615  0.00  0.00    +0.000 OA
ATOM     21  N   UNL     1      37.399   3.784  17.083  0.00  0.00    +0.000 NA
BRANCH  19  29
ATOM     22  C   UNL     1      35.919  -1.898  15.524  0.00  0.00    +0.000 A 
ATOM     23  C   UNL     1      35.287  -1.764  16.782  0.00  0.00    +0.000 A 
ATOM     24  C   UNL     1      35.065  -0.483  17.217  0.00  0.00    +0.000 A 
ATOM     25  C   UNL     1      35.421   0.629  16.481  0.00  0.00    +0.000 A 
ATOM     26  C   UNL     1      36.050   0.496  15.223  0.00  0.00    +0.000 A 
ATOM     27  C   UNL     1      36.271  -0.832  14.795  0.00  0.00    +0.000 A 
ATOM     28  O   UNL     1      36.427   1.512  14.444  0.00  0.00    +0.000 OA
ATOM     29  C   UNL     1      36.302   2.943  14.906  0.00  0.00    +0.000 C 
ATOM     30  C   UNL     1      35.017   2.852  15.857  0.00  0.00    +0.000 C 
ATOM     31  O   UNL     1      35.195   1.920  16.885  0.00  0.00    +0.000 OA
BRANCH  22  33
ATOM     32  C   UNL     1      37.204  -3.279  13.905  0.00  0.00    +0.000 C 
ATOM     33  C   UNL     1      36.169  -3.302  15.063  0.00  0.00    +0.000 C 
ATOM     34  C   UNL     1      34.913  -3.995  14.725  0.00  0.00    +0.000 C 
ATOM     35  C   UNL     1      36.888  -4.007  16.259  0.00  0.00    +0.000 C 
ENDBRANCH  22  33
ENDBRANCH  19  29
ENDBRANCH   1  21
TORSDOF 6
ENDMDL
MODEL 3
REMARK VINA RESULT:      -9.1      2.437      9.037
REMARK  Name = 
REMARK  6 active torsions:
REMARK  status: ('A' for Active; 'I' for Inactive)
REMARK    1  A    between atoms: C_2  and  C_5
REMARK    2  A    between atoms: C_12  and  C_13
REMARK    3  A    between atoms: N_15  and  N_16
REMARK    4  A    between atoms: C_17  and  C_18
REMARK    5  A    between atoms: N_20  and  C_21
REMARK    6  A    between atoms: C_21  and  C_22
REMARK                            x       y       z     vdW  Elec       q    Type
REMARK                         _______ _______ _______ _____ _____    ______ ____
ROOT
ATOM      1  N   UNL     1      37.663   3.231  15.733  0.00  0.00    +0.000 NA
ATOM      2  C   UNL     1      37.663   4.275  16.329  0.00  0.00    +0.000 C 
ENDROOT
BRANCH   2   3
ATOM      3  C   UNL     1      38.757   4.982  16.933  0.00  0.00    +0.000 A 
ATOM      4  C   UNL     1      38.897   5.197  18.307  0.00  0.00    +0.000 A 
ATOM      5  N   UNL     1      40.045   5.800  18.599  0.00  0.00    +0.000 N 
ATOM      6  C   UNL     1      40.667   5.989  17.406  0.00  0.00    +0.000 A 
ATOM      7  C   UNL     1      41.918   6.581  17.121  0.00  0.00    +0.000 A 
ATOM      8  C   UNL     1      42.385   6.670  15.868  0.00  0.00    +0.000 A 
ATOM      9  C   UNL     1      41.629   6.170  14.794  0.00  0.00    +0.000 A 
ATOM     10  C   UNL     1      40.419   5.606  15.102  0.00  0.00    +0.000 A 
ATOM     11  C   UNL     1      39.900   5.493  16.366  0.00  0.00    +0.000 A 
BRANCH   5  12
ATOM     12  C   UNL     1      40.660   6.187  19.900  0.00  0.00    +0.000 C 
BRANCH  12  13
ATOM     13  C   UNL     1      40.233   7.618  20.198  0.00  0.00    +0.000 A 
ATOM     14  C   UNL     1      41.129   8.619  20.141  0.00  0.00    +0.000 A 
ATOM     15  C   UNL     1      40.748   9.970  20.448  0.00  0.00    +0.000 A 
ATOM     16  C   UNL     1      39.467  10.213  20.792  0.00  0.00    +0.000 A 
ATOM     17  C   UNL     1      38.537   9.172  20.854  0.00  0.00    +0.000 A 
ATOM     18  C   UNL     1      38.926   7.849  20.544  0.00  0.00    +0.000 A 
ENDBRANCH  12  13
ENDBRANCH   5  12
ENDBRANCH   2   3
BRANCH   1  21
ATOM     19  C   UNL     1      39.317   2.259  14.227  0.00  0.00    +0.000 C 
ATOM     20  O   UNL     1      38.947   2.884  13.228  0.00  0.00    +0.000 OA
ATOM     21  N   UNL     1      38.722   2.426  15.487  0.00  0.00    +0.000 NA
BRANCH  19  29
ATOM     22  C   UNL     1      37.771  -2.457  15.744  0.00  0.00    +0.000 A 
ATOM     23  C   UNL     1      37.061  -2.587  14.528  0.00  0.00    +0.000 A 
ATOM     24  C   UNL     1      37.423  -1.733  13.518  0.00  0.00    +0.000 A 
ATOM     25  C   UNL     1      38.428  -0.799  13.654  0.00  0.00    +0.000 A 
ATOM     26  C   UNL     1      39.140  -0.669  14.868  0.00  0.00    +0.000 A 
ATOM     27  C   UNL     1      38.750  -1.556  15.895  0.00  0.00    +0.000 A 
ATOM     28  O   UNL     1      40.125   0.203  15.089  0.00  0.00    +0.000 OA
ATOM     29  C   UNL     1      40.505   1.236  14.056  0.00  0.00    +0.000 C 
ATOM     30  C   UNL     1      40.161   0.458  12.699  0.00  0.00    +0.000 C 
ATOM     31  O   UNL     1      38.822   0.055  12.655  0.00  0.00    +0.000 OA
BRANCH  22  33
ATOM     32  C   UNL     1      38.618  -4.106  17.400  0.00  0.00    +0.000 C 
ATOM     33  C   UNL     1      37.359  -3.385  16.846  0.00  0.00    +0.000 C 
ATOM     34  C   UNL     1      36.289  -4.303  16.412  0.00  0.00    +0.000 C 
ATOM     35  C   UNL     1      36.859  -2.457  18.001  0.00  0.00    +0.000 C 
ENDBRANCH  22  33
ENDBRANCH  19  29
ENDBRANCH   1  21
TORSDOF 6
ENDMDL
MODEL 4
REMARK VINA RESULT:      -8.7      2.741      9.412
REMARK  Name = 
REMARK  6 active torsions:
REMARK  status: ('A' for Active; 'I' for Inactive)
REMARK    1  A    between atoms: C_2  and  C_5
REMARK    2  A    between atoms: C_12  and  C_13
REMARK    3  A    between atoms: N_15  and  N_16
REMARK    4  A    between atoms: C_17  and  C_18
REMARK    5  A    between atoms: N_20  and  C_21
REMARK    6  A    between atoms: C_21  and  C_22
REMARK                            x       y       z     vdW  Elec       q    Type
REMARK                         _______ _______ _______ _____ _____    ______ ____
ROOT
ATOM      1  N   UNL     1      38.225   3.879  18.109  0.00  0.00    +0.000 NA
ATOM      2  C   UNL     1      38.901   4.855  18.301  0.00  0.00    +0.000 C 
ENDROOT
BRANCH   2   3
ATOM      3  C   UNL     1      38.918   6.107  17.598  0.00  0.00    +0.000 A 
ATOM      4  C   UNL     1      38.086   7.190  17.890  0.00  0.00    +0.000 A 
ATOM      5  N   UNL     1      38.374   8.251  17.143  0.00  0.00    +0.000 N 
ATOM      6  C   UNL     1      39.403   7.863  16.347  0.00  0.00    +0.000 A 
ATOM      7  C   UNL     1      40.109   8.590  15.360  0.00  0.00    +0.000 A 
ATOM      8  C   UNL     1      41.120   8.042  14.672  0.00  0.00    +0.000 A 
ATOM      9  C   UNL     1      41.507   6.713  14.920  0.00  0.00    +0.000 A 
ATOM     10  C   UNL     1      40.801   6.035  15.878  0.00  0.00    +0.000 A 
ATOM     11  C   UNL     1      39.761   6.551  16.606  0.00  0.00    +0.000 A 
BRANCH   5  12
ATOM     12  C   UNL     1      37.813   9.632  17.122  0.00  0.00    +0.000 C 
BRANCH  12  13
ATOM     13  C   UNL     1      36.353   9.524  16.705  0.00  0.00    +0.000 A 
ATOM     14  C   UNL     1      35.374   9.817  17.579  0.00  0.00    +0.000 A 
ATOM     15  C   UNL     1      33.991   9.694  17.209  0.00  0.00    +0.000 A 
ATOM     16  C   UNL     1      33.695   9.280  15.960  0.00  0.00    +0.000 A 
ATOM     17  C   UNL     1      34.712   8.973  15.053  0.00  0.00    +0.000 A 
ATOM     18  C   UNL     1      36.069   9.105  15.429  0.00  0.00    +0.000 A 
ENDBRANCH  12  13
ENDBRANCH   5  12
ENDBRANCH   2   3
BRANCH   1  21
ATOM     19  C   UNL     1      37.519   3.022  15.938  0.00  0.00    +0.000 C 
ATOM     20  O   UNL     1      38.593   2.473  15.673  0.00  0.00    +0.000 OA
ATOM     21  N   UNL     1      37.293   3.703  17.144  0.00  0.00    +0.000 NA
BRANCH  19  29
ATOM     22  C   UNL     1      35.889  -1.886  15.498  0.00  0.00    +0.000 A 
ATOM     23  C   UNL     1      35.179  -1.732  16.711  0.00  0.00    +0.000 A 
ATOM     24  C   UNL     1      34.945  -0.444  17.119  0.00  0.00    +0.000 A 
ATOM     25  C   UNL     1      35.360   0.656  16.397  0.00  0.00    +0.000 A 
ATOM     26  C   UNL     1      36.068   0.503  15.184  0.00  0.00    +0.000 A 
ATOM     27  C   UNL     1      36.300  -0.831  14.783  0.00  0.00    +0.000 A 
ATOM     28  O   UNL     1      36.506   1.507  14.421  0.00  0.00    +0.000 OA
ATOM     29  C   UNL     1      36.369   2.944  14.860  0.00  0.00    +0.000 C 
ATOM     30  C   UNL     1      35.024   2.877  15.727  0.00  0.00    +0.000 C 
ATOM     31  O   UNL     1      35.124   1.954  16.773  0.00  0.00    +0.000 OA
BRANCH  22  33
ATOM     32  C   UNL     1      37.236  -3.295  13.954  0.00  0.00    +0.000 C 
ATOM     33  C   UNL     1      36.152  -3.297  15.067  0.00  0.00    +0.000 C 
ATOM     34  C   UNL     1      34.907  -3.989  14.685  0.00  0.00    +0.000 C 
ATOM     35  C   UNL     1      36.815  -3.989  16.302  0.00  0.00    +0.000 C 
ENDBRANCH  22  33
ENDBRANCH  19  29
ENDBRANCH   1  21
TORSDOF 6
ENDMDL
MODEL 5
REMARK VINA RESULT:      -8.6      3.410      8.481
REMARK  Name = 
REMARK  6 active torsions:
REMARK  status: ('A' for Active; 'I' for Inactive)
REMARK    1  A    between atoms: C_2  and  C_5
REMARK    2  A    between atoms: C_12  and  C_13
REMARK    3  A    between atoms: N_15  and  N_16
REMARK    4  A    between atoms: C_17  and  C_18
REMARK    5  A    between atoms: N_20  and  C_21
REMARK    6  A    between atoms: C_21  and  C_22
REMARK                            x       y       z     vdW  Elec       q    Type
REMARK                         _______ _______ _______ _____ _____    ______ ____
ROOT
ATOM      1  N   UNL     1      36.006   1.242  17.256  0.00  0.00    +0.000 NA
ATOM      2  C   UNL     1      36.356   2.354  16.961  0.00  0.00    +0.000 C 
ENDROOT
BRANCH   2   3
ATOM      3  C   UNL     1      36.570   2.931  15.663  0.00  0.00    +0.000 A 
ATOM      4  C   UNL     1      35.710   3.849  15.054  0.00  0.00    +0.000 A 
ATOM      5  N   UNL     1      36.194   4.287  13.896  0.00  0.00    +0.000 N 
ATOM      6  C   UNL     1      37.381   3.647  13.737  0.00  0.00    +0.000 A 
ATOM      7  C   UNL     1      38.322   3.734  12.685  0.00  0.00    +0.000 A 
ATOM      8  C   UNL     1      39.463   3.030  12.702  0.00  0.00    +0.000 A 
ATOM      9  C   UNL     1      39.752   2.177  13.781  0.00  0.00    +0.000 A 
ATOM     10  C   UNL     1      38.818   2.111  14.782  0.00  0.00    +0.000 A 
ATOM     11  C   UNL     1      37.639   2.810  14.808  0.00  0.00    +0.000 A 
BRANCH   5  12
ATOM     12  C   UNL     1      35.681   5.291  12.922  0.00  0.00    +0.000 C 
BRANCH  12  13
ATOM     13  C   UNL     1      35.323   6.546  13.708  0.00  0.00    +0.000 A 
ATOM     14  C   UNL     1      36.291   7.328  14.215  0.00  0.00    +0.000 A 
ATOM     15  C   UNL     1      35.968   8.500  14.982  0.00  0.00    +0.000 A 
ATOM     16  C   UNL     1      34.669   8.800  15.180  0.00  0.00    +0.000 A 
ATOM     17  C   UNL     1      33.663   7.985  14.655  0.00  0.00    +0.000 A 
ATOM     18  C   UNL     1      33.995   6.839  13.897  0.00  0.00    +0.000 A 
ENDBRANCH  12  13
ENDBRANCH   5  12
ENDBRANCH   2   3
BRANCH   1  21
ATOM     19  C   UNL     1      35.473  -1.099  16.825  0.00  0.00    +0.000 C 
ATOM     20  O   UNL     1      35.422  -1.428  18.014  0.00  0.00    +0.000 OA
ATOM     21  N   UNL     1      35.733   0.218  16.415  0.00  0.00    +0.000 NA
BRANCH  19  29
ATOM     22  C   UNL     1      39.949  -2.146  14.415  0.00  0.00    +0.000 A 
ATOM     23  C   UNL     1      40.358  -2.882  15.551  0.00  0.00    +0.000 A 
ATOM     24  C   UNL     1      39.366  -3.267  16.416  0.00  0.00    +0.000 A 
ATOM     25  C   UNL     1      38.035  -2.974  16.205  0.00  0.00    +0.000 A 
ATOM     26  C   UNL     1      37.624  -2.241  15.069  0.00  0.00    +0.000 A 
ATOM     27  C   UNL     1      38.661  -1.852  14.193  0.00  0.00    +0.000 A 
ATOM     28  O   UNL     1      36.362  -1.914  14.784  0.00  0.00    +0.000 OA
ATOM     29  C   UNL     1      35.237  -2.221  15.742  0.00  0.00    +0.000 C 
ATOM     30  C   UNL     1      35.777  -3.558  16.438  0.00  0.00    +0.000 C 
ATOM     31  O   UNL     1      37.022  -3.363  17.044  0.00  0.00    +0.000 OA
BRANCH  22  33
ATOM     32  C   UNL     1      41.784  -2.976  12.959  0.00  0.00    +0.000 C 
ATOM     33  C   UNL     1      41.040  -1.718  13.483  0.00  0.00    +0.000 C 
ATOM     34  C   UNL     1      41.927  -0.718  14.107  0.00  0.00    +0.000 C 
ATOM     35  C   UNL     1      40.308  -1.111  12.241  0.00  0.00    +0.000 C 
ENDBRANCH  22  33
ENDBRANCH  19  29
ENDBRANCH   1  21
TORSDOF 6
ENDMDL
MODEL 6
REMARK VINA RESULT:      -8.6      2.963      7.866
REMARK  Name = 
REMARK  6 active torsions:
REMARK  status: ('A' for Active; 'I' for Inactive)
REMARK    1  A    between atoms: C_2  and  C_5
REMARK    2  A    between atoms: C_12  and  C_13
REMARK    3  A    between atoms: N_15  and  N_16
REMARK    4  A    between atoms: C_17  and  C_18
REMARK    5  A    between atoms: N_20  and  C_21
REMARK    6  A    between atoms: C_21  and  C_22
REMARK                            x       y       z     vdW  Elec       q    Type
REMARK                         _______ _______ _______ _____ _____    ______ ____
ROOT
ATOM      1  N   UNL     1      36.402   0.806  17.136  0.00  0.00    +0.000 NA
ATOM      2  C   UNL     1      36.137   1.967  17.306  0.00  0.00    +0.000 C 
ENDROOT
BRANCH   2   3
ATOM      3  C   UNL     1      36.780   3.138  16.779  0.00  0.00    +0.000 A 
ATOM      4  C   UNL     1      37.904   3.745  17.346  0.00  0.00    +0.000 A 
ATOM      5  N   UNL     1      38.345   4.758  16.607  0.00  0.00    +0.000 N 
ATOM      6  C   UNL     1      37.502   4.823  15.545  0.00  0.00    +0.000 A 
ATOM      7  C   UNL     1      37.500   5.708  14.443  0.00  0.00    +0.000 A 
ATOM      8  C   UNL     1      36.586   5.615  13.466  0.00  0.00    +0.000 A 
ATOM      9  C   UNL     1      35.595   4.620  13.519  0.00  0.00    +0.000 A 
ATOM     10  C   UNL     1      35.620   3.781  14.601  0.00  0.00    +0.000 A 
ATOM     11  C   UNL     1      36.532   3.838  15.623  0.00  0.00    +0.000 A 
BRANCH   5  12
ATOM     12  C   UNL     1      39.519   5.662  16.762  0.00  0.00    +0.000 C 
BRANCH  12  13
ATOM     13  C   UNL     1      39.347   6.412  18.076  0.00  0.00    +0.000 A 
ATOM     14  C   UNL     1      38.357   7.310  18.220  0.00  0.00    +0.000 A 
ATOM     15  C   UNL     1      38.198   8.047  19.444  0.00  0.00    +0.000 A 
ATOM     16  C   UNL     1      39.065   7.813  20.450  0.00  0.00    +0.000 A 
ATOM     17  C   UNL     1      40.095   6.881  20.300  0.00  0.00    +0.000 A 
ATOM     18  C   UNL     1      40.235   6.160  19.091  0.00  0.00    +0.000 A 
ENDBRANCH  12  13
ENDBRANCH   5  12
ENDBRANCH   2   3
BRANCH   1  21
ATOM     19  C   UNL     1      37.269  -0.210  15.095  0.00  0.00    +0.000 C 
ATOM     20  O   UNL     1      36.195  -0.185  14.486  0.00  0.00    +0.000 OA
ATOM     21  N   UNL     1      37.414   0.296  16.396  0.00  0.00    +0.000 NA
BRANCH  19  29
ATOM     22  C   UNL     1      38.104   2.292  10.625  0.00  0.00    +0.000 A 
ATOM     23  C   UNL     1      38.674   3.358  11.358  0.00  0.00    +0.000 A 
ATOM     24  C   UNL     1      39.067   3.072  12.641  0.00  0.00    +0.000 A 
ATOM     25  C   UNL     1      38.932   1.819  13.202  0.00  0.00    +0.000 A 
ATOM     26  C   UNL     1      38.364   0.753  12.470  0.00  0.00    +0.000 A 
ATOM     27  C   UNL     1      37.965   1.068  11.153  0.00  0.00    +0.000 A 
ATOM     28  O   UNL     1      38.196  -0.489  12.931  0.00  0.00    +0.000 OA
ATOM     29  C   UNL     1      38.514  -0.844  14.362  0.00  0.00    +0.000 C 
ATOM     30  C   UNL     1      39.712   0.172  14.676  0.00  0.00    +0.000 C 
ATOM     31  O   UNL     1      39.331   1.502  14.476  0.00  0.00    +0.000 OA
BRANCH  22  33
ATOM     32  C   UNL     1      38.801   2.236   8.239  0.00  0.00    +0.000 C 
ATOM     33  C   UNL     1      37.666   2.616   9.230  0.00  0.00    +0.000 C 
ATOM     34  C   UNL     1      37.218   4.016   9.113  0.00  0.00    +0.000 C 
ATOM     35  C   UNL     1      36.491   1.630   8.926  0.00  0.00    +0.000 C 
ENDBRANCH  22  33
ENDBRANCH  19  29
ENDBRANCH   1  21
TORSDOF 6
ENDMDL
MODEL 7
REMARK VINA RESULT:      -8.5      2.884      7.770
REMARK  Name = 
REMARK  6 active torsions:
REMARK  status: ('A' for Active; 'I' for Inactive)
REMARK    1  A    between atoms: C_2  and  C_5
REMARK    2  A    between atoms: C_12  and  C_13
REMARK    3  A    between atoms: N_15  and  N_16
REMARK    4  A    between atoms: C_17  and  C_18
REMARK    5  A    between atoms: N_20  and  C_21
REMARK    6  A    between atoms: C_21  and  C_22
REMARK                            x       y       z     vdW  Elec       q    Type
REMARK                         _______ _______ _______ _____ _____    ______ ____
ROOT
ATOM      1  N   UNL     1      41.925   0.374  12.598  0.00  0.00    +0.000 NA
ATOM      2  C   UNL     1      41.626   1.525  12.772  0.00  0.00    +0.000 C 
ENDROOT
BRANCH   2   3
ATOM      3  C   UNL     1      40.343   2.103  13.057  0.00  0.00    +0.000 A 
ATOM      4  C   UNL     1      39.821   2.276  14.341  0.00  0.00    +0.000 A 
ATOM      5  N   UNL     1      38.656   2.915  14.320  0.00  0.00    +0.000 N 
ATOM      6  C   UNL     1      38.404   3.162  13.009  0.00  0.00    +0.000 A 
ATOM      7  C   UNL     1      37.305   3.817  12.405  0.00  0.00    +0.000 A 
ATOM      8  C   UNL     1      37.230   3.985  11.078  0.00  0.00    +0.000 A 
ATOM      9  C   UNL     1      38.256   3.507  10.244  0.00  0.00    +0.000 A 
ATOM     10  C   UNL     1      39.304   2.874  10.858  0.00  0.00    +0.000 A 
ATOM     11  C   UNL     1      39.425   2.678  12.210  0.00  0.00    +0.000 A 
BRANCH   5  12
ATOM     12  C   UNL     1      37.754   3.371  15.415  0.00  0.00    +0.000 C 
BRANCH  12  13
ATOM     13  C   UNL     1      38.554   4.316  16.301  0.00  0.00    +0.000 A 
ATOM     14  C   UNL     1      39.476   5.134  15.763  0.00  0.00    +0.000 A 
ATOM     15  C   UNL     1      40.259   6.011  16.589  0.00  0.00    +0.000 A 
ATOM     16  C   UNL     1      40.046   5.999  17.920  0.00  0.00    +0.000 A 
ATOM     17  C   UNL     1      39.089   5.148  18.480  0.00  0.00    +0.000 A 
ATOM     18  C   UNL     1      38.323   4.294  17.654  0.00  0.00    +0.000 A 
ENDBRANCH  12  13
ENDBRANCH   5  12
ENDBRANCH   2   3
BRANCH   1  21
ATOM     19  C   UNL     1      40.899  -1.531  13.726  0.00  0.00    +0.000 C 
ATOM     20  O   UNL     1      41.430  -1.318  14.820  0.00  0.00    +0.000 OA
ATOM     21  N   UNL     1      41.100  -0.699  12.613  0.00  0.00    +0.000 NA
BRANCH  19  29
ATOM     22  C   UNL     1      36.350  -0.560  16.028  0.00  0.00    +0.000 A 
ATOM     23  C   UNL     1      35.983   0.226  14.912  0.00  0.00    +0.000 A 
ATOM     24  C   UNL     1      36.703   0.025  13.762  0.00  0.00    +0.000 A 
ATOM     25  C   UNL     1      37.728  -0.895  13.675  0.00  0.00    +0.000 A 
ATOM     26  C   UNL     1      38.095  -1.682  14.789  0.00  0.00    +0.000 A 
ATOM     27  C   UNL     1      37.342  -1.458  15.962  0.00  0.00    +0.000 A 
ATOM     28  O   UNL     1      39.069  -2.594  14.794  0.00  0.00    +0.000 OA
ATOM     29  C   UNL     1      39.964  -2.794  13.596  0.00  0.00    +0.000 C 
ATOM     30  C   UNL     1      38.967  -2.422  12.399  0.00  0.00    +0.000 C 
ATOM     31  O   UNL     1      38.453  -1.128  12.533  0.00  0.00    +0.000 OA
BRANCH  22  33
ATOM     32  C   UNL     1      36.505  -0.492  18.508  0.00  0.00    +0.000 C 
ATOM     33  C   UNL     1      35.566  -0.324  17.283  0.00  0.00    +0.000 C 
ATOM     34  C   UNL     1      34.359  -1.169  17.336  0.00  0.00    +0.000 C 
ATOM     35  C   UNL     1      35.181   1.192  17.250  0.00  0.00    +0.000 C 
ENDBRANCH  22  33
ENDBRANCH  19  29
ENDBRANCH   1  21
TORSDOF 6
ENDMDL
MODEL 8
REMARK VINA RESULT:      -8.2      2.728      8.307
REMARK  Name = 
REMARK  6 active torsions:
REMARK  status: ('A' for Active; 'I' for Inactive)
REMARK    1  A    between atoms: C_2  and  C_5
REMARK    2  A    between atoms: C_12  and  C_13
REMARK    3  A    between atoms: N_15  and  N_16
REMARK    4  A    between atoms: C_17  and  C_18
REMARK    5  A    between atoms: N_20  and  C_21
REMARK    6  A    between atoms: C_21  and  C_22
REMARK                            x       y       z     vdW  Elec       q    Type
REMARK                         _______ _______ _______ _____ _____    ______ ____
ROOT
ATOM      1  N   UNL     1      37.352   3.133  17.675  0.00  0.00    +0.000 NA
ATOM      2  C   UNL     1      37.967   4.092  17.290  0.00  0.00    +0.000 C 
ENDROOT
BRANCH   2   3
ATOM      3  C   UNL     1      38.120   4.605  15.958  0.00  0.00    +0.000 A 
ATOM      4  C   UNL     1      37.700   5.873  15.546  0.00  0.00    +0.000 A 
ATOM      5  N   UNL     1      38.044   6.123  14.287  0.00  0.00    +0.000 N 
ATOM      6  C   UNL     1      38.692   5.008  13.862  0.00  0.00    +0.000 A 
ATOM      7  C   UNL     1      39.276   4.722  12.606  0.00  0.00    +0.000 A 
ATOM      8  C   UNL     1      39.896   3.558  12.366  0.00  0.00    +0.000 A 
ATOM      9  C   UNL     1      39.979   2.581  13.373  0.00  0.00    +0.000 A 
ATOM     10  C   UNL     1      39.400   2.885  14.577  0.00  0.00    +0.000 A 
ATOM     11  C   UNL     1      38.757   4.060  14.869  0.00  0.00    +0.000 A 
BRANCH   5  12
ATOM     12  C   UNL     1      37.871   7.331  13.431  0.00  0.00    +0.000 C 
BRANCH  12  13
ATOM     13  C   UNL     1      36.474   7.268  12.830  0.00  0.00    +0.000 A 
ATOM     14  C   UNL     1      35.409   7.670  13.545  0.00  0.00    +0.000 A 
ATOM     15  C   UNL     1      34.081   7.590  13.001  0.00  0.00    +0.000 A 
ATOM     16  C   UNL     1      33.926   7.104  11.753  0.00  0.00    +0.000 A 
ATOM     17  C   UNL     1      35.033   6.684  11.011  0.00  0.00    +0.000 A 
ATOM     18  C   UNL     1      36.334   6.774  11.557  0.00  0.00    +0.000 A 
ENDBRANCH  12  13
ENDBRANCH   5  12
ENDBRANCH   2   3
BRANCH   1  21
ATOM     19  C   UNL     1      36.014   1.108  17.428  0.00  0.00    +0.000 C 
ATOM     20  O   UNL     1      36.022   0.816  18.627  0.00  0.00    +0.000 OA
ATOM     21  N   UNL     1      36.638   2.261  16.926  0.00  0.00    +0.000 NA
BRANCH  19  29
ATOM     22  C   UNL     1      39.510  -1.583  14.694  0.00  0.00    +0.000 A 
ATOM     23  C   UNL     1      39.736  -2.393  15.831  0.00  0.00    +0.000 A 
ATOM     24  C   UNL     1      38.768  -2.363  16.802  0.00  0.00    +0.000 A 
ATOM     25  C   UNL     1      37.624  -1.599  16.693  0.00  0.00    +0.000 A 
ATOM     26  C   UNL     1      37.396  -0.791  15.557  0.00  0.00    +0.000 A 
ATOM     27  C   UNL     1      38.405  -0.835  14.571  0.00  0.00    +0.000 A 
ATOM     28  O   UNL     1      36.321  -0.023  15.367  0.00  0.00    +0.000 OA
ATOM     29  C   UNL     1      35.269   0.132  16.438  0.00  0.00    +0.000 C 
ATOM     30  C   UNL     1      35.348  -1.294  17.161  0.00  0.00    +0.000 C 
ATOM     31  O   UNL     1      36.633  -1.564  17.641  0.00  0.00    +0.000 OA
BRANCH  22  33
ATOM     32  C   UNL     1      40.024  -0.984  12.337  0.00  0.00    +0.000 C 
ATOM     33  C   UNL     1      40.578  -1.612  13.645  0.00  0.00    +0.000 C 
ATOM     34  C   UNL     1      41.129  -2.969  13.468  0.00  0.00    +0.000 C 
ATOM     35  C   UNL     1      41.682  -0.627  14.152  0.00  0.00    +0.000 C 
ENDBRANCH  22  33
ENDBRANCH  19  29
ENDBRANCH   1  21
TORSDOF 6
ENDMDL
MODEL 9
REMARK VINA RESULT:      -8.2     27.502     29.964
REMARK  Name = 
REMARK  6 active torsions:
REMARK  status: ('A' for Active; 'I' for Inactive)
REMARK    1  A    between atoms: C_2  and  C_5
REMARK    2  A    between atoms: C_12  and  C_13
REMARK    3  A    between atoms: N_15  and  N_16
REMARK    4  A    between atoms: C_17  and  C_18
REMARK    5  A    between atoms: N_20  and  C_21
REMARK    6  A    between atoms: C_21  and  C_22
REMARK                            x       y       z     vdW  Elec       q    Type
REMARK                         _______ _______ _______ _____ _____    ______ ____
ROOT
ATOM      1  N   UNL     1      10.562   4.551  27.291  0.00  0.00    +0.000 NA
ATOM      2  C   UNL     1      11.456   3.978  26.727  0.00  0.00    +0.000 C 
ENDROOT
BRANCH   2   3
ATOM      3  C   UNL     1      11.820   2.589  26.768  0.00  0.00    +0.000 A 
ATOM      4  C   UNL     1      12.945   2.086  27.425  0.00  0.00    +0.000 A 
ATOM      5  N   UNL     1      12.993   0.758  27.378  0.00  0.00    +0.000 N 
ATOM      6  C   UNL     1      11.891   0.382  26.679  0.00  0.00    +0.000 A 
ATOM      7  C   UNL     1      11.438  -0.911  26.329  0.00  0.00    +0.000 A 
ATOM      8  C   UNL     1      10.305  -1.096  25.638  0.00  0.00    +0.000 A 
ATOM      9  C   UNL     1       9.531   0.008  25.240  0.00  0.00    +0.000 A 
ATOM     10  C   UNL     1       9.998   1.247  25.590  0.00  0.00    +0.000 A 
ATOM     11  C   UNL     1      11.150   1.486  26.294  0.00  0.00    +0.000 A 
BRANCH   5  12
ATOM     12  C   UNL     1      13.950  -0.222  27.965  0.00  0.00    +0.000 C 
BRANCH  12  13
ATOM     13  C   UNL     1      15.308   0.025  27.322  0.00  0.00    +0.000 A 
ATOM     14  C   UNL     1      15.500  -0.245  26.019  0.00  0.00    +0.000 A 
ATOM     15  C   UNL     1      16.783  -0.044  25.403  0.00  0.00    +0.000 A 
ATOM     16  C   UNL     1      17.793   0.425  26.163  0.00  0.00    +0.000 A 
ATOM     17  C   UNL     1      17.594   0.703  27.518  0.00  0.00    +0.000 A 
ATOM     18  C   UNL     1      16.324   0.506  28.108  0.00  0.00    +0.000 A 
ENDBRANCH  12  13
ENDBRANCH   5  12
ENDBRANCH   2   3
BRANCH   1  21
ATOM     19  C   UNL     1       8.366   4.533  28.353  0.00  0.00    +0.000 C 
ATOM     20  O   UNL     1       7.924   5.500  27.725  0.00  0.00    +0.000 OA
ATOM     21  N   UNL     1       9.656   4.020  28.145  0.00  0.00    +0.000 NA
BRANCH  19  29
ATOM     22  C   UNL     1      10.088   5.688  33.110  0.00  0.00    +0.000 A 
ATOM     23  C   UNL     1       9.538   6.982  32.967  0.00  0.00    +0.000 A 
ATOM     24  C   UNL     1       8.592   7.136  31.986  0.00  0.00    +0.000 A 
ATOM     25  C   UNL     1       8.178   6.097  31.178  0.00  0.00    +0.000 A 
ATOM     26  C   UNL     1       8.726   4.803  31.321  0.00  0.00    +0.000 A 
ATOM     27  C   UNL     1       9.699   4.667  32.336  0.00  0.00    +0.000 A 
ATOM     28  O   UNL     1       8.385   3.741  30.588  0.00  0.00    +0.000 OA
ATOM     29  C   UNL     1       7.426   3.864  29.429  0.00  0.00    +0.000 C 
ATOM     30  C   UNL     1       6.488   5.061  29.928  0.00  0.00    +0.000 C 
ATOM     31  O   UNL     1       7.222   6.219  30.201  0.00  0.00    +0.000 OA
BRANCH  22  33
ATOM     32  C   UNL     1      11.885   6.878  34.348  0.00  0.00    +0.000 C 
ATOM     33  C   UNL     1      11.130   5.532  34.176  0.00  0.00    +0.000 C 
ATOM     34  C   UNL     1      12.014   4.383  33.908  0.00  0.00    +0.000 C 
ATOM     35  C   UNL     1      10.333   5.321  35.505  0.00  0.00    +0.000 C 
ENDBRANCH  22  33
ENDBRANCH  19  29
ENDBRANCH   1  21
TORSDOF 6
ENDMDL
MODEL 10
REMARK VINA RESULT:      -8.1     15.027     20.728
REMARK  Name = 
REMARK  6 active torsions:
REMARK  status: ('A' for Active; 'I' for Inactive)
REMARK    1  A    between atoms: C_2  and  C_5
REMARK    2  A    between atoms: C_12  and  C_13
REMARK    3  A    between atoms: N_15  and  N_16
REMARK    4  A    between atoms: C_17  and  C_18
REMARK    5  A    between atoms: N_20  and  C_21
REMARK    6  A    between atoms: C_21  and  C_22
REMARK                            x       y       z     vdW  Elec       q    Type
REMARK                         _______ _______ _______ _____ _____    ______ ____
ROOT
ATOM      1  N   UNL     1      27.339  16.542  20.271  0.00  0.00    +0.000 NA
ATOM      2  C   UNL     1      26.310  16.484  20.889  0.00  0.00    +0.000 C 
ENDROOT
BRANCH   2   3
ATOM      3  C   UNL     1      25.244  17.442  20.979  0.00  0.00    +0.000 A 
ATOM      4  C   UNL     1      23.994  17.292  20.372  0.00  0.00    +0.000 A 
ATOM      5  N   UNL     1      23.167  18.283  20.691  0.00  0.00    +0.000 N 
ATOM      6  C   UNL     1      23.880  19.097  21.512  0.00  0.00    +0.000 A 
ATOM      7  C   UNL     1      23.498  20.299  22.152  0.00  0.00    +0.000 A 
ATOM      8  C   UNL     1      24.340  20.970  22.949  0.00  0.00    +0.000 A 
ATOM      9  C   UNL     1      25.641  20.488  23.170  0.00  0.00    +0.000 A 
ATOM     10  C   UNL     1      25.983  19.324  22.533  0.00  0.00    +0.000 A 
ATOM     11  C   UNL     1      25.158  18.603  21.709  0.00  0.00    +0.000 A 
BRANCH   5  12
ATOM     12  C   UNL     1      21.740  18.537  20.344  0.00  0.00    +0.000 C 
BRANCH  12  13
ATOM     13  C   UNL     1      21.686  18.876  18.861  0.00  0.00    +0.000 A 
ATOM     14  C   UNL     1      22.384  19.918  18.377  0.00  0.00    +0.000 A 
ATOM     15  C   UNL     1      22.320  20.269  16.985  0.00  0.00    +0.000 A 
ATOM     16  C   UNL     1      21.545  19.525  16.171  0.00  0.00    +0.000 A 
ATOM     17  C   UNL     1      20.817  18.444  16.674  0.00  0.00    +0.000 A 
ATOM     18  C   UNL     1      20.894  18.108  18.045  0.00  0.00    +0.000 A 
ENDBRANCH  12  13
ENDBRANCH   5  12
ENDBRANCH   2   3
BRANCH   1  21
ATOM     19  C   UNL     1      29.113  17.765  19.127  0.00  0.00    +0.000 C 
ATOM     20  O   UNL     1      30.018  16.991  19.452  0.00  0.00    +0.000 OA
ATOM     21  N   UNL     1      27.773  17.559  19.491  0.00  0.00    +0.000 NA
BRANCH  19  29
ATOM     22  C   UNL     1      31.713  16.258  14.896  0.00  0.00    +0.000 A 
ATOM     23  C   UNL     1      30.488  15.848  14.321  0.00  0.00    +0.000 A 
ATOM     24  C   UNL     1      29.349  16.365  14.883  0.00  0.00    +0.000 A 
ATOM     25  C   UNL     1      29.374  17.246  15.945  0.00  0.00    +0.000 A 
ATOM     26  C   UNL     1      30.597  17.658  16.519  0.00  0.00    +0.000 A 
ATOM     27  C   UNL     1      31.757  17.113  15.926  0.00  0.00    +0.000 A 
ATOM     28  O   UNL     1      30.715  18.505  17.543  0.00  0.00    +0.000 OA
ATOM     29  C   UNL     1      29.502  19.031  18.270  0.00  0.00    +0.000 C 
ATOM     30  C   UNL     1      28.419  19.054  17.091  0.00  0.00    +0.000 C 
ATOM     31  O   UNL     1      28.251  17.791  16.514  0.00  0.00    +0.000 OA
BRANCH  22  33
ATOM     32  C   UNL     1      34.149  15.904  15.247  0.00  0.00    +0.000 C 
ATOM     33  C   UNL     1      32.952  15.678  14.283  0.00  0.00    +0.000 C 
ATOM     34  C   UNL     1      33.178  16.196  12.921  0.00  0.00    +0.000 C 
ATOM     35  C   UNL     1      32.714  14.133  14.258  0.00  0.00    +0.000 C 
ENDBRANCH  22  33
ENDBRANCH  19  29
ENDBRANCH   1  21
TORSDOF 6
ENDMDL
