MODEL 1
REMARK VINA RESULT:      -7.7      0.000      0.000
REMARK  Name = 
REMARK  4 active torsions:
REMARK  status: ('A' for Active; 'I' for Inactive)
REMARK    1  A    between atoms: C_2  and  C_3
REMARK    2  A    between atoms: C_3  and  O_4
REMARK    3  A    between atoms: O_4  and  C_5
REMARK    4  A    between atoms: N_7  and  C_8
REMARK                            x       y       z     vdW  Elec       q    Type
REMARK                         _______ _______ _______ _____ _____    ______ ____
ROOT
ATOM      1  C   UNL     1      17.618   9.962  35.314  0.00  0.00    +0.000 C 
ATOM      2  O   UNL     1      18.313  10.233  34.309  0.00  0.00    +0.000 OA
ATOM      3  N   UNL     1      16.281  10.380  35.359  0.00  0.00    +0.000 NA
ENDROOT
BRANCH   3   4
ATOM      4  C   UNL     1      15.750  11.112  34.242  0.00  0.00    +0.000 A 
ATOM      5  C   UNL     1      15.014  12.265  34.406  0.00  0.00    +0.000 A 
ATOM      6  C   UNL     1      14.663  12.704  33.122  0.00  0.00    +0.000 A 
ATOM      7  C   UNL     1      13.955  13.761  32.637  0.00  0.00    +0.000 A 
ATOM      8  C   UNL     1      13.781  13.919  31.286  0.00  0.00    +0.000 A 
ATOM      9  C   UNL     1      14.328  13.001  30.423  0.00  0.00    +0.000 A 
ATOM     10  C   UNL     1      15.046  11.926  30.901  0.00  0.00    +0.000 A 
ATOM     11  C   UNL     1      15.216  11.777  32.264  0.00  0.00    +0.000 A 
ATOM     12  O   UNL     1      15.848  10.855  32.973  0.00  0.00    +0.000 OA
ENDBRANCH   3   4
BRANCH   1  13
ATOM     13  O   UNL     1      18.246   9.247  36.333  0.00  0.00    +0.000 OA
BRANCH  13  14
ATOM     14  C   UNL     1      19.000   9.872  37.332  0.00  0.00    +0.000 C 
ATOM     15  C   UNL     1      18.550  11.298  37.594  0.00  0.00    +0.000 C 
ATOM     16  C   UNL     1      19.657  11.938  38.442  0.00  0.00    +0.000 C 
ATOM     17  C   UNL     1      19.934  10.993  39.598  0.00  0.00    +0.000 C 
ATOM     18  C   UNL     1      18.772  10.018  39.761  0.00  0.00    +0.000 C 
ATOM     19  C   UNL     1      18.869   9.039  38.593  0.00  0.00    +0.000 C 
BRANCH  14  21
ATOM     20  C   UNL     1      21.564   9.781  36.535  0.00  0.00    +0.000 C 
ATOM     21  C   UNL     1      20.410   9.833  36.900  0.00  0.00    +0.000 C 
ENDBRANCH  14  21
ENDBRANCH  13  14
ENDBRANCH   1  13
TORSDOF 4
ENDMDL
MODEL 2
REMARK VINA RESULT:      -7.4      1.478      2.027
REMARK  Name = 
REMARK  4 active torsions:
REMARK  status: ('A' for Active; 'I' for Inactive)
REMARK    1  A    between atoms: C_2  and  C_3
REMARK    2  A    between atoms: C_3  and  O_4
REMARK    3  A    between atoms: O_4  and  C_5
REMARK    4  A    between atoms: N_7  and  C_8
REMARK                            x       y       z     vdW  Elec       q    Type
REMARK                         _______ _______ _______ _____ _____    ______ ____
ROOT
ATOM      1  C   UNL     1      16.630  11.856  36.613  0.00  0.00    +0.000 C 
ATOM      2  O   UNL     1      17.259  12.818  36.117  0.00  0.00    +0.000 OA
ATOM      3  N   UNL     1      15.541  11.314  35.917  0.00  0.00    +0.000 NA
ENDROOT
BRANCH   3   4
ATOM      4  C   UNL     1      15.180  11.885  34.649  0.00  0.00    +0.000 A 
ATOM      5  C   UNL     1      15.618  11.353  33.456  0.00  0.00    +0.000 A 
ATOM      6  C   UNL     1      15.080  12.153  32.438  0.00  0.00    +0.000 A 
ATOM      7  C   UNL     1      15.148  12.138  31.079  0.00  0.00    +0.000 A 
ATOM      8  C   UNL     1      14.489  13.088  30.340  0.00  0.00    +0.000 A 
ATOM      9  C   UNL     1      13.757  14.055  30.983  0.00  0.00    +0.000 A 
ATOM     10  C   UNL     1      13.680  14.082  32.359  0.00  0.00    +0.000 A 
ATOM     11  C   UNL     1      14.348  13.120  33.093  0.00  0.00    +0.000 A 
ATOM     12  O   UNL     1      14.438  12.921  34.399  0.00  0.00    +0.000 OA
ENDBRANCH   3   4
BRANCH   1  13
ATOM     13  O   UNL     1      17.076  11.390  37.850  0.00  0.00    +0.000 OA
BRANCH  13  14
ATOM     14  C   UNL     1      18.281  10.695  37.998  0.00  0.00    +0.000 C 
ATOM     15  C   UNL     1      19.469  11.622  38.184  0.00  0.00    +0.000 C 
ATOM     16  C   UNL     1      20.716  10.749  37.993  0.00  0.00    +0.000 C 
ATOM     17  C   UNL     1      20.544   9.530  38.882  0.00  0.00    +0.000 C 
ATOM     18  C   UNL     1      19.474   9.801  39.935  0.00  0.00    +0.000 C 
ATOM     19  C   UNL     1      18.136   9.779  39.199  0.00  0.00    +0.000 C 
BRANCH  14  21
ATOM     20  C   UNL     1      18.590   9.183  35.799  0.00  0.00    +0.000 C 
ATOM     21  C   UNL     1      18.448   9.855  36.797  0.00  0.00    +0.000 C 
ENDBRANCH  14  21
ENDBRANCH  13  14
ENDBRANCH   1  13
TORSDOF 4
ENDMDL
MODEL 3
REMARK VINA RESULT:      -7.1      1.041      2.159
REMARK  Name = 
REMARK  4 active torsions:
REMARK  status: ('A' for Active; 'I' for Inactive)
REMARK    1  A    between atoms: C_2  and  C_3
REMARK    2  A    between atoms: C_3  and  O_4
REMARK    3  A    between atoms: O_4  and  C_5
REMARK    4  A    between atoms: N_7  and  C_8
REMARK                            x       y       z     vdW  Elec       q    Type
REMARK                         _______ _______ _______ _____ _____    ______ ____
ROOT
ATOM      1  C   UNL     1      17.034   9.987  35.840  0.00  0.00    +0.000 C 
ATOM      2  O   UNL     1      16.040  10.554  36.346  0.00  0.00    +0.000 OA
ATOM      3  N   UNL     1      17.315  10.177  34.480  0.00  0.00    +0.000 NA
ENDROOT
BRANCH   3   4
ATOM      4  C   UNL     1      16.447  11.021  33.707  0.00  0.00    +0.000 A 
ATOM      5  C   UNL     1      16.347  10.910  32.337  0.00  0.00    +0.000 A 
ATOM      6  C   UNL     1      15.422  11.877  31.922  0.00  0.00    +0.000 A 
ATOM      7  C   UNL     1      14.911  12.252  30.717  0.00  0.00    +0.000 A 
ATOM      8  C   UNL     1      13.992  13.267  30.637  0.00  0.00    +0.000 A 
ATOM      9  C   UNL     1      13.589  13.904  31.785  0.00  0.00    +0.000 A 
ATOM     10  C   UNL     1      14.099  13.535  33.011  0.00  0.00    +0.000 A 
ATOM     11  C   UNL     1      15.024  12.511  33.080  0.00  0.00    +0.000 A 
ATOM     12  O   UNL     1      15.658  11.971  34.109  0.00  0.00    +0.000 OA
ENDBRANCH   3   4
BRANCH   1  13
ATOM     13  O   UNL     1      17.800   9.193  36.692  0.00  0.00    +0.000 OA
BRANCH  13  14
ATOM     14  C   UNL     1      18.790   9.725  37.524  0.00  0.00    +0.000 C 
ATOM     15  C   UNL     1      20.140   9.821  36.836  0.00  0.00    +0.000 C 
ATOM     16  C   UNL     1      21.160  10.092  37.949  0.00  0.00    +0.000 C 
ATOM     17  C   UNL     1      20.627  11.258  38.764  0.00  0.00    +0.000 C 
ATOM     18  C   UNL     1      19.559  12.003  37.969  0.00  0.00    +0.000 C 
ATOM     19  C   UNL     1      18.326  11.102  37.963  0.00  0.00    +0.000 C 
BRANCH  14  21
ATOM     20  C   UNL     1      18.922   8.137  39.686  0.00  0.00    +0.000 C 
ATOM     21  C   UNL     1      18.864   8.863  38.718  0.00  0.00    +0.000 C 
ENDBRANCH  14  21
ENDBRANCH  13  14
ENDBRANCH   1  13
TORSDOF 4
ENDMDL
MODEL 4
REMARK VINA RESULT:      -6.9     28.328     31.216
REMARK  Name = 
REMARK  4 active torsions:
REMARK  status: ('A' for Active; 'I' for Inactive)
REMARK    1  A    between atoms: C_2  and  C_3
REMARK    2  A    between atoms: C_3  and  O_4
REMARK    3  A    between atoms: O_4  and  C_5
REMARK    4  A    between atoms: N_7  and  C_8
REMARK                            x       y       z     vdW  Elec       q    Type
REMARK                         _______ _______ _______ _____ _____    ______ ____
ROOT
ATOM      1  C   UNL     1      31.149  21.211   8.928  0.00  0.00    +0.000 C 
ATOM      2  O   UNL     1      30.987  22.431   8.694  0.00  0.00    +0.000 OA
ATOM      3  N   UNL     1      30.547  20.642  10.058  0.00  0.00    +0.000 NA
ENDROOT
BRANCH   3   4
ATOM      4  C   UNL     1      29.757  21.482  10.916  0.00  0.00    +0.000 A 
ATOM      5  C   UNL     1      30.281  22.072  12.046  0.00  0.00    +0.000 A 
ATOM      6  C   UNL     1      29.243  22.809  12.632  0.00  0.00    +0.000 A 
ATOM      7  C   UNL     1      29.139  23.592  13.741  0.00  0.00    +0.000 A 
ATOM      8  C   UNL     1      27.949  24.197  14.055  0.00  0.00    +0.000 A 
ATOM      9  C   UNL     1      26.860  24.007  13.241  0.00  0.00    +0.000 A 
ATOM     10  C   UNL     1      26.952  23.216  12.115  0.00  0.00    +0.000 A 
ATOM     11  C   UNL     1      28.156  22.612  11.808  0.00  0.00    +0.000 A 
ATOM     12  O   UNL     1      28.509  21.820  10.807  0.00  0.00    +0.000 OA
ENDBRANCH   3   4
BRANCH   1  13
ATOM     13  O   UNL     1      31.937  20.502   8.022  0.00  0.00    +0.000 OA
BRANCH  13  14
ATOM     14  C   UNL     1      31.418  19.966   6.839  0.00  0.00    +0.000 C 
ATOM     15  C   UNL     1      29.945  19.618   6.954  0.00  0.00    +0.000 C 
ATOM     16  C   UNL     1      29.622  18.752   5.729  0.00  0.00    +0.000 C 
ATOM     17  C   UNL     1      30.144  19.494   4.511  0.00  0.00    +0.000 C 
ATOM     18  C   UNL     1      30.385  20.960   4.859  0.00  0.00    +0.000 C 
ATOM     19  C   UNL     1      31.632  20.991   5.740  0.00  0.00    +0.000 C 
BRANCH  14  21
ATOM     20  C   UNL     1      32.898  17.801   6.258  0.00  0.00    +0.000 C 
ATOM     21  C   UNL     1      32.221  18.771   6.515  0.00  0.00    +0.000 C 
ENDBRANCH  14  21
ENDBRANCH  13  14
ENDBRANCH   1  13
TORSDOF 4
ENDMDL
MODEL 5
REMARK VINA RESULT:      -6.7      1.697      2.988
REMARK  Name = 
REMARK  4 active torsions:
REMARK  status: ('A' for Active; 'I' for Inactive)
REMARK    1  A    between atoms: C_2  and  C_3
REMARK    2  A    between atoms: C_3  and  O_4
REMARK    3  A    between atoms: O_4  and  C_5
REMARK    4  A    between atoms: N_7  and  C_8
REMARK                            x       y       z     vdW  Elec       q    Type
REMARK                         _______ _______ _______ _____ _____    ______ ____
ROOT
ATOM      1  C   UNL     1      18.444   9.923  37.214  0.00  0.00    +0.000 C 
ATOM      2  O   UNL     1      18.522  11.173  37.236  0.00  0.00    +0.000 OA
ATOM      3  N   UNL     1      17.671   9.300  36.226  0.00  0.00    +0.000 NA
ENDROOT
BRANCH   3   4
ATOM      4  C   UNL     1      16.988  10.121  35.263  0.00  0.00    +0.000 A 
ATOM      5  C   UNL     1      17.306  10.094  33.923  0.00  0.00    +0.000 A 
ATOM      6  C   UNL     1      16.452  11.008  33.290  0.00  0.00    +0.000 A 
ATOM      7  C   UNL     1      16.283  11.419  32.003  0.00  0.00    +0.000 A 
ATOM      8  C   UNL     1      15.333  12.359  31.694  0.00  0.00    +0.000 A 
ATOM      9  C   UNL     1      14.550  12.882  32.694  0.00  0.00    +0.000 A 
ATOM     10  C   UNL     1      14.712  12.474  34.000  0.00  0.00    +0.000 A 
ATOM     11  C   UNL     1      15.672  11.527  34.301  0.00  0.00    +0.000 A 
ATOM     12  O   UNL     1      16.027  10.973  35.450  0.00  0.00    +0.000 OA
ENDBRANCH   3   4
BRANCH   1  13
ATOM     13  O   UNL     1      19.151   9.237  38.201  0.00  0.00    +0.000 OA
BRANCH  13  14
ATOM     14  C   UNL     1      18.654   9.069  39.498  0.00  0.00    +0.000 C 
ATOM     15  C   UNL     1      17.209   9.515  39.630  0.00  0.00    +0.000 C 
ATOM     16  C   UNL     1      16.929   9.586  41.137  0.00  0.00    +0.000 C 
ATOM     17  C   UNL     1      17.385   8.267  41.737  0.00  0.00    +0.000 C 
ATOM     18  C   UNL     1      17.532   7.220  40.637  0.00  0.00    +0.000 C 
ATOM     19  C   UNL     1      18.785   7.599  39.850  0.00  0.00    +0.000 C 
BRANCH  14  21
ATOM     20  C   UNL     1      20.248  10.487  41.130  0.00  0.00    +0.000 C 
ATOM     21  C   UNL     1      19.530   9.838  40.401  0.00  0.00    +0.000 C 
ENDBRANCH  14  21
ENDBRANCH  13  14
ENDBRANCH   1  13
TORSDOF 4
ENDMDL
MODEL 6
REMARK VINA RESULT:      -6.7     27.898     30.066
REMARK  Name = 
REMARK  4 active torsions:
REMARK  status: ('A' for Active; 'I' for Inactive)
REMARK    1  A    between atoms: C_2  and  C_3
REMARK    2  A    between atoms: C_3  and  O_4
REMARK    3  A    between atoms: O_4  and  C_5
REMARK    4  A    between atoms: N_7  and  C_8
REMARK                            x       y       z     vdW  Elec       q    Type
REMARK                         _______ _______ _______ _____ _____    ______ ____
ROOT
ATOM      1  C   UNL     1      32.045  20.423  10.927  0.00  0.00    +0.000 C 
ATOM      2  O   UNL     1      31.591  19.938  11.988  0.00  0.00    +0.000 OA
ATOM      3  N   UNL     1      31.353  21.465  10.296  0.00  0.00    +0.000 NA
ENDROOT
BRANCH   3   4
ATOM      4  C   UNL     1      30.136  21.946  10.892  0.00  0.00    +0.000 A 
ATOM      5  C   UNL     1      30.137  22.859  11.923  0.00  0.00    +0.000 A 
ATOM      6  C   UNL     1      28.796  23.097  12.251  0.00  0.00    +0.000 A 
ATOM      7  C   UNL     1      28.163  23.882  13.166  0.00  0.00    +0.000 A 
ATOM      8  C   UNL     1      26.794  23.895  13.241  0.00  0.00    +0.000 A 
ATOM      9  C   UNL     1      26.063  23.108  12.385  0.00  0.00    +0.000 A 
ATOM     10  C   UNL     1      26.691  22.308  11.455  0.00  0.00    +0.000 A 
ATOM     11  C   UNL     1      28.071  22.303  11.387  0.00  0.00    +0.000 A 
ATOM     12  O   UNL     1      28.907  21.641  10.604  0.00  0.00    +0.000 OA
ENDBRANCH   3   4
BRANCH   1  13
ATOM     13  O   UNL     1      33.233  19.873  10.447  0.00  0.00    +0.000 OA
BRANCH  13  14
ATOM     14  C   UNL     1      34.479  20.469  10.670  0.00  0.00    +0.000 C 
ATOM     15  C   UNL     1      35.414  20.324   9.483  0.00  0.00    +0.000 C 
ATOM     16  C   UNL     1      36.806  20.715   9.996  0.00  0.00    +0.000 C 
ATOM     17  C   UNL     1      36.659  22.052  10.701  0.00  0.00    +0.000 C 
ATOM     18  C   UNL     1      35.353  22.719  10.283  0.00  0.00    +0.000 C 
ATOM     19  C   UNL     1      34.235  21.937  10.970  0.00  0.00    +0.000 C 
BRANCH  14  21
ATOM     20  C   UNL     1      35.513  19.308  12.860  0.00  0.00    +0.000 C 
ATOM     21  C   UNL     1      35.051  19.843  11.876  0.00  0.00    +0.000 C 
ENDBRANCH  14  21
ENDBRANCH  13  14
ENDBRANCH   1  13
TORSDOF 4
ENDMDL
MODEL 7
REMARK VINA RESULT:      -6.4      2.756      4.819
REMARK  Name = 
REMARK  4 active torsions:
REMARK  status: ('A' for Active; 'I' for Inactive)
REMARK    1  A    between atoms: C_2  and  C_3
REMARK    2  A    between atoms: C_3  and  O_4
REMARK    3  A    between atoms: O_4  and  C_5
REMARK    4  A    between atoms: N_7  and  C_8
REMARK                            x       y       z     vdW  Elec       q    Type
REMARK                         _______ _______ _______ _____ _____    ______ ____
ROOT
ATOM      1  C   UNL     1      20.424  10.470  38.443  0.00  0.00    +0.000 C 
ATOM      2  O   UNL     1      20.300  11.707  38.297  0.00  0.00    +0.000 OA
ATOM      3  N   UNL     1      19.361   9.626  38.097  0.00  0.00    +0.000 NA
ENDROOT
BRANCH   3   4
ATOM      4  C   UNL     1      18.154  10.212  37.582  0.00  0.00    +0.000 A 
ATOM      5  C   UNL     1      17.030  10.377  38.362  0.00  0.00    +0.000 A 
ATOM      6  C   UNL     1      16.058  10.971  37.544  0.00  0.00    +0.000 A 
ATOM      7  C   UNL     1      14.771  11.373  37.733  0.00  0.00    +0.000 A 
ATOM      8  C   UNL     1      14.062  11.937  36.704  0.00  0.00    +0.000 A 
ATOM      9  C   UNL     1      14.661  12.095  35.478  0.00  0.00    +0.000 A 
ATOM     10  C   UNL     1      15.963  11.691  35.274  0.00  0.00    +0.000 A 
ATOM     11  C   UNL     1      16.668  11.124  36.318  0.00  0.00    +0.000 A 
ATOM     12  O   UNL     1      17.906  10.661  36.389  0.00  0.00    +0.000 OA
ENDBRANCH   3   4
BRANCH   1  13
ATOM     13  O   UNL     1      21.643  10.022  38.953  0.00  0.00    +0.000 OA
BRANCH  13  14
ATOM     14  C   UNL     1      22.793   9.920  38.162  0.00  0.00    +0.000 C 
ATOM     15  C   UNL     1      22.481   9.530  36.729  0.00  0.00    +0.000 C 
ATOM     16  C   UNL     1      23.825   9.138  36.100  0.00  0.00    +0.000 C 
ATOM     17  C   UNL     1      24.800  10.264  36.397  0.00  0.00    +0.000 C 
ATOM     18  C   UNL     1      24.034  11.523  36.796  0.00  0.00    +0.000 C 
ATOM     19  C   UNL     1      23.493  11.266  38.201  0.00  0.00    +0.000 C 
BRANCH  14  21
ATOM     20  C   UNL     1      24.401   8.124  39.345  0.00  0.00    +0.000 C 
ATOM     21  C   UNL     1      23.673   8.926  38.803  0.00  0.00    +0.000 C 
ENDBRANCH  14  21
ENDBRANCH  13  14
ENDBRANCH   1  13
TORSDOF 4
ENDMDL
MODEL 8
REMARK VINA RESULT:      -6.3      2.179      3.730
REMARK  Name = 
REMARK  4 active torsions:
REMARK  status: ('A' for Active; 'I' for Inactive)
REMARK    1  A    between atoms: C_2  and  C_3
REMARK    2  A    between atoms: C_3  and  O_4
REMARK    3  A    between atoms: O_4  and  C_5
REMARK    4  A    between atoms: N_7  and  C_8
REMARK                            x       y       z     vdW  Elec       q    Type
REMARK                         _______ _______ _______ _____ _____    ______ ____
ROOT
ATOM      1  C   UNL     1      18.229  10.556  38.387  0.00  0.00    +0.000 C 
ATOM      2  O   UNL     1      19.135  10.911  37.600  0.00  0.00    +0.000 OA
ATOM      3  N   UNL     1      16.929  10.367  37.900  0.00  0.00    +0.000 NA
ENDROOT
BRANCH   3   4
ATOM      4  C   UNL     1      16.677  10.587  36.502  0.00  0.00    +0.000 A 
ATOM      5  C   UNL     1      15.770  11.526  36.062  0.00  0.00    +0.000 A 
ATOM      6  C   UNL     1      15.781  11.468  34.661  0.00  0.00    +0.000 A 
ATOM      7  C   UNL     1      15.119  12.133  33.675  0.00  0.00    +0.000 A 
ATOM      8  C   UNL     1      15.358  11.839  32.357  0.00  0.00    +0.000 A 
ATOM      9  C   UNL     1      16.274  10.867  32.038  0.00  0.00    +0.000 A 
ATOM     10  C   UNL     1      16.952  10.186  33.027  0.00  0.00    +0.000 A 
ATOM     11  C   UNL     1      16.703  10.491  34.351  0.00  0.00    +0.000 A 
ATOM     12  O   UNL     1      17.205   9.998  35.473  0.00  0.00    +0.000 OA
ENDBRANCH   3   4
BRANCH   1  13
ATOM     13  O   UNL     1      18.598  10.375  39.720  0.00  0.00    +0.000 OA
BRANCH  13  14
ATOM     14  C   UNL     1      18.416   9.160  40.389  0.00  0.00    +0.000 C 
ATOM     15  C   UNL     1      18.761   7.962  39.522  0.00  0.00    +0.000 C 
ATOM     16  C   UNL     1      18.201   6.737  40.258  0.00  0.00    +0.000 C 
ATOM     17  C   UNL     1      18.694   6.817  41.692  0.00  0.00    +0.000 C 
ATOM     18  C   UNL     1      19.875   7.779  41.783  0.00  0.00    +0.000 C 
ATOM     19  C   UNL     1      19.295   9.184  41.626  0.00  0.00    +0.000 C 
BRANCH  14  21
ATOM     20  C   UNL     1      15.847   9.084  41.167  0.00  0.00    +0.000 C 
ATOM     21  C   UNL     1      17.009   9.111  40.825  0.00  0.00    +0.000 C 
ENDBRANCH  14  21
ENDBRANCH  13  14
ENDBRANCH   1  13
TORSDOF 4
ENDMDL
MODEL 9
REMARK VINA RESULT:      -6.2     21.295     22.633
REMARK  Name = 
REMARK  4 active torsions:
REMARK  status: ('A' for Active; 'I' for Inactive)
REMARK    1  A    between atoms: C_2  and  C_3
REMARK    2  A    between atoms: C_3  and  O_4
REMARK    3  A    between atoms: O_4  and  C_5
REMARK    4  A    between atoms: N_7  and  C_8
REMARK                            x       y       z     vdW  Elec       q    Type
REMARK                         _______ _______ _______ _____ _____    ______ ____
ROOT
ATOM      1  C   UNL     1      28.008  24.202  22.161  0.00  0.00    +0.000 C 
ATOM      2  O   UNL     1      27.059  24.706  21.518  0.00  0.00    +0.000 OA
ATOM      3  N   UNL     1      29.314  24.649  21.923  0.00  0.00    +0.000 NA
ENDROOT
BRANCH   3   4
ATOM      4  C   UNL     1      29.523  25.678  20.941  0.00  0.00    +0.000 A 
ATOM      5  C   UNL     1      29.383  27.015  21.242  0.00  0.00    +0.000 A 
ATOM      6  C   UNL     1      29.658  27.723  20.064  0.00  0.00    +0.000 A 
ATOM      7  C   UNL     1      29.685  29.042  19.729  0.00  0.00    +0.000 A 
ATOM      8  C   UNL     1      30.000  29.428  18.451  0.00  0.00    +0.000 A 
ATOM      9  C   UNL     1      30.290  28.472  17.509  0.00  0.00    +0.000 A 
ATOM     10  C   UNL     1      30.265  27.133  17.835  0.00  0.00    +0.000 A 
ATOM     11  C   UNL     1      29.947  26.755  19.125  0.00  0.00    +0.000 A 
ATOM     12  O   UNL     1      29.853  25.562  19.691  0.00  0.00    +0.000 OA
ENDBRANCH   3   4
BRANCH   1  13
ATOM     13  O   UNL     1      27.678  23.211  23.085  0.00  0.00    +0.000 OA
BRANCH  13  14
ATOM     14  C   UNL     1      27.634  23.456  24.462  0.00  0.00    +0.000 C 
ATOM     15  C   UNL     1      27.530  24.935  24.787  0.00  0.00    +0.000 C 
ATOM     16  C   UNL     1      27.830  25.056  26.287  0.00  0.00    +0.000 C 
ATOM     17  C   UNL     1      26.946  24.048  26.999  0.00  0.00    +0.000 C 
ATOM     18  C   UNL     1      25.808  23.613  26.080  0.00  0.00    +0.000 C 
ATOM     19  C   UNL     1      26.437  22.709  25.021  0.00  0.00    +0.000 C 
BRANCH  14  21
ATOM     20  C   UNL     1      29.852  22.368  25.516  0.00  0.00    +0.000 C 
ATOM     21  C   UNL     1      28.855  22.869  25.046  0.00  0.00    +0.000 C 
ENDBRANCH  14  21
ENDBRANCH  13  14
ENDBRANCH   1  13
TORSDOF 4
ENDMDL
MODEL 10
REMARK VINA RESULT:      -6.1     22.397     23.811
REMARK  Name = 
REMARK  4 active torsions:
REMARK  status: ('A' for Active; 'I' for Inactive)
REMARK    1  A    between atoms: C_2  and  C_3
REMARK    2  A    between atoms: C_3  and  O_4
REMARK    3  A    between atoms: O_4  and  C_5
REMARK    4  A    between atoms: N_7  and  C_8
REMARK                            x       y       z     vdW  Elec       q    Type
REMARK                         _______ _______ _______ _____ _____    ______ ____
ROOT
ATOM      1  C   UNL     1      28.689  24.858  21.428  0.00  0.00    +0.000 C 
ATOM      2  O   UNL     1      29.738  24.352  20.970  0.00  0.00    +0.000 OA
ATOM      3  N   UNL     1      28.372  26.186  21.113  0.00  0.00    +0.000 NA
ENDROOT
BRANCH   3   4
ATOM      4  C   UNL     1      29.269  26.928  20.270  0.00  0.00    +0.000 A 
ATOM      5  C   UNL     1      29.477  28.280  20.434  0.00  0.00    +0.000 A 
ATOM      6  C   UNL     1      30.399  28.667  19.451  0.00  0.00    +0.000 A 
ATOM      7  C   UNL     1      30.988  29.845  19.108  0.00  0.00    +0.000 A 
ATOM      8  C   UNL     1      31.876  29.900  18.064  0.00  0.00    +0.000 A 
ATOM      9  C   UNL     1      32.168  28.754  17.367  0.00  0.00    +0.000 A 
ATOM     10  C   UNL     1      31.579  27.555  17.703  0.00  0.00    +0.000 A 
ATOM     11  C   UNL     1      30.686  27.511  18.756  0.00  0.00    +0.000 A 
ATOM     12  O   UNL     1      29.993  26.510  19.277  0.00  0.00    +0.000 OA
ENDBRANCH   3   4
BRANCH   1  13
ATOM     13  O   UNL     1      27.901  24.037  22.234  0.00  0.00    +0.000 OA
BRANCH  13  14
ATOM     14  C   UNL     1      28.138  23.884  23.604  0.00  0.00    +0.000 C 
ATOM     15  C   UNL     1      29.281  22.928  23.893  0.00  0.00    +0.000 C 
ATOM     16  C   UNL     1      29.194  22.612  25.392  0.00  0.00    +0.000 C 
ATOM     17  C   UNL     1      29.098  23.941  26.122  0.00  0.00    +0.000 C 
ATOM     18  C   UNL     1      29.554  25.071  25.204  0.00  0.00    +0.000 C 
ATOM     19  C   UNL     1      28.444  25.257  24.172  0.00  0.00    +0.000 C 
BRANCH  14  21
ATOM     20  C   UNL     1      25.839  23.017  24.690  0.00  0.00    +0.000 C 
ATOM     21  C   UNL     1      26.881  23.406  24.211  0.00  0.00    +0.000 C 
ENDBRANCH  14  21
ENDBRANCH  13  14
ENDBRANCH   1  13
TORSDOF 4
ENDMDL
