MODEL 1
REMARK VINA RESULT:      -8.5      0.000      0.000
REMARK  Name = 
REMARK  2 active torsions:
REMARK  status: ('A' for Active; 'I' for Inactive)
REMARK    1  A    between atoms: O_2  and  C_3
REMARK    2  A    between atoms: C_6  and  C_7
REMARK                            x       y       z     vdW  Elec       q    Type
REMARK                         _______ _______ _______ _____ _____    ______ ____
ROOT
ATOM      1  C   UNL     1      16.657  10.817  35.923  0.00  0.00    +0.000 A 
ATOM      2  O   UNL     1      15.837  11.828  36.003  0.00  0.00    +0.000 OA
ATOM      3  C   UNL     1      15.231  12.377  34.965  0.00  0.00    +0.000 A 
ATOM      4  C   UNL     1      14.365  13.461  35.148  0.00  0.00    +0.000 A 
ATOM      5  C   UNL     1      13.722  14.049  34.081  0.00  0.00    +0.000 A 
ATOM      6  C   UNL     1      12.791  15.217  34.281  0.00  0.00    +0.000 C 
ATOM      7  C   UNL     1      13.958  13.537  32.824  0.00  0.00    +0.000 A 
ATOM      8  C   UNL     1      14.803  12.471  32.604  0.00  0.00    +0.000 A 
ATOM      9  C   UNL     1      15.075  11.899  31.267  0.00  0.00    +0.000 C 
ATOM     10  C   UNL     1      15.440  11.894  33.690  0.00  0.00    +0.000 A 
ATOM     11  C   UNL     1      16.300  10.820  33.537  0.00  0.00    +0.000 A 
ATOM     12  O   UNL     1      16.505  10.365  32.383  0.00  0.00    +0.000 OA
ATOM     13  C   UNL     1      16.889  10.309  34.666  0.00  0.00    +0.000 A 
ATOM     14  O   UNL     1      17.756   9.236  34.550  0.00  0.00    +0.000 OA
ENDROOT
BRANCH   1  18
ATOM     15  C   UNL     1      18.480   9.226  39.464  0.00  0.00    +0.000 A 
ATOM     16  C   UNL     1      17.207   9.752  39.481  0.00  0.00    +0.000 A 
ATOM     17  C   UNL     1      16.623  10.264  38.334  0.00  0.00    +0.000 A 
ATOM     18  C   UNL     1      17.282  10.275  37.124  0.00  0.00    +0.000 A 
ATOM     19  C   UNL     1      18.556   9.749  37.102  0.00  0.00    +0.000 A 
ATOM     20  C   UNL     1      19.140   9.236  38.254  0.00  0.00    +0.000 A 
BRANCH  15  22
ATOM     21  C   UNL     1      20.126   7.766  40.557  0.00  0.00    +0.000 C 
ATOM     22  O   UNL     1      19.072   8.707  40.623  0.00  0.00    +0.000 OA
ENDBRANCH  15  22
ENDBRANCH   1  18
TORSDOF 2
ENDMDL
MODEL 2
REMARK VINA RESULT:      -7.9      2.874      4.574
REMARK  Name = 
REMARK  2 active torsions:
REMARK  status: ('A' for Active; 'I' for Inactive)
REMARK    1  A    between atoms: O_2  and  C_3
REMARK    2  A    between atoms: C_6  and  C_7
REMARK                            x       y       z     vdW  Elec       q    Type
REMARK                         _______ _______ _______ _____ _____    ______ ____
ROOT
ATOM      1  C   UNL     1      18.298  11.010  37.689  0.00  0.00    +0.000 A 
ATOM      2  O   UNL     1      17.620  11.718  36.829  0.00  0.00    +0.000 OA
ATOM      3  C   UNL     1      16.307  11.864  36.859  0.00  0.00    +0.000 A 
ATOM      4  C   UNL     1      15.665  12.647  35.892  0.00  0.00    +0.000 A 
ATOM      5  C   UNL     1      14.297  12.814  35.903  0.00  0.00    +0.000 A 
ATOM      6  C   UNL     1      13.608  13.656  34.861  0.00  0.00    +0.000 C 
ATOM      7  C   UNL     1      13.579  12.185  36.897  0.00  0.00    +0.000 A 
ATOM      8  C   UNL     1      14.175  11.408  37.865  0.00  0.00    +0.000 A 
ATOM      9  C   UNL     1      13.431  10.723  38.944  0.00  0.00    +0.000 C 
ATOM     10  C   UNL     1      15.552  11.253  37.837  0.00  0.00    +0.000 A 
ATOM     11  C   UNL     1      16.212  10.485  38.781  0.00  0.00    +0.000 A 
ATOM     12  O   UNL     1      15.541   9.919  39.681  0.00  0.00    +0.000 OA
ATOM     13  C   UNL     1      17.577  10.385  38.679  0.00  0.00    +0.000 A 
ATOM     14  O   UNL     1      18.270   9.625  39.606  0.00  0.00    +0.000 OA
ENDROOT
BRANCH   1  18
ATOM     15  C   UNL     1      22.562  10.684  37.356  0.00  0.00    +0.000 A 
ATOM     16  C   UNL     1      21.719   9.788  36.737  0.00  0.00    +0.000 A 
ATOM     17  C   UNL     1      20.343   9.898  36.848  0.00  0.00    +0.000 A 
ATOM     18  C   UNL     1      19.749  10.904  37.580  0.00  0.00    +0.000 A 
ATOM     19  C   UNL     1      20.589  11.804  38.200  0.00  0.00    +0.000 A 
ATOM     20  C   UNL     1      21.969  11.692  38.088  0.00  0.00    +0.000 A 
BRANCH  15  22
ATOM     21  C   UNL     1      24.563  10.020  36.096  0.00  0.00    +0.000 C 
ATOM     22  O   UNL     1      23.954  10.576  37.245  0.00  0.00    +0.000 OA
ENDBRANCH  15  22
ENDBRANCH   1  18
TORSDOF 2
ENDMDL
MODEL 3
REMARK VINA RESULT:      -7.8      1.440      1.606
REMARK  Name = 
REMARK  2 active torsions:
REMARK  status: ('A' for Active; 'I' for Inactive)
REMARK    1  A    between atoms: O_2  and  C_3
REMARK    2  A    between atoms: C_6  and  C_7
REMARK                            x       y       z     vdW  Elec       q    Type
REMARK                         _______ _______ _______ _____ _____    ______ ____
ROOT
ATOM      1  C   UNL     1      17.443  10.821  36.952  0.00  0.00    +0.000 A 
ATOM      2  O   UNL     1      16.490  11.709  36.880  0.00  0.00    +0.000 OA
ATOM      3  C   UNL     1      15.879  12.054  35.760  0.00  0.00    +0.000 A 
ATOM      4  C   UNL     1      14.864  13.018  35.781  0.00  0.00    +0.000 A 
ATOM      5  C   UNL     1      14.214  13.394  34.626  0.00  0.00    +0.000 A 
ATOM      6  C   UNL     1      13.122  14.432  34.651  0.00  0.00    +0.000 C 
ATOM      7  C   UNL     1      14.594  12.791  33.446  0.00  0.00    +0.000 A 
ATOM      8  C   UNL     1      15.587  11.839  33.387  0.00  0.00    +0.000 A 
ATOM      9  C   UNL     1      16.016  11.174  32.136  0.00  0.00    +0.000 C 
ATOM     10  C   UNL     1      16.229  11.474  34.559  0.00  0.00    +0.000 A 
ATOM     11  C   UNL     1      17.235  10.524  34.567  0.00  0.00    +0.000 A 
ATOM     12  O   UNL     1      17.570   9.983  33.481  0.00  0.00    +0.000 OA
ATOM     13  C   UNL     1      17.818  10.222  35.772  0.00  0.00    +0.000 A 
ATOM     14  O   UNL     1      18.828   9.276  35.817  0.00  0.00    +0.000 OA
ENDROOT
BRANCH   1  18
ATOM     15  C   UNL     1      19.246   9.871  40.725  0.00  0.00    +0.000 A 
ATOM     16  C   UNL     1      18.029   9.345  40.354  0.00  0.00    +0.000 A 
ATOM     17  C   UNL     1      17.451   9.655  39.134  0.00  0.00    +0.000 A 
ATOM     18  C   UNL     1      18.061  10.502  38.234  0.00  0.00    +0.000 A 
ATOM     19  C   UNL     1      19.280  11.030  38.600  0.00  0.00    +0.000 A 
ATOM     20  C   UNL     1      19.857  10.718  39.825  0.00  0.00    +0.000 A 
BRANCH  15  22
ATOM     21  C   UNL     1      19.651  10.382  43.094  0.00  0.00    +0.000 C 
ATOM     22  O   UNL     1      19.833   9.558  41.958  0.00  0.00    +0.000 OA
ENDBRANCH  15  22
ENDBRANCH   1  18
TORSDOF 2
ENDMDL
MODEL 4
REMARK VINA RESULT:      -7.6      3.142      4.554
REMARK  Name = 
REMARK  2 active torsions:
REMARK  status: ('A' for Active; 'I' for Inactive)
REMARK    1  A    between atoms: O_2  and  C_3
REMARK    2  A    between atoms: C_6  and  C_7
REMARK                            x       y       z     vdW  Elec       q    Type
REMARK                         _______ _______ _______ _____ _____    ______ ____
ROOT
ATOM      1  C   UNL     1      16.274   9.725  39.962  0.00  0.00    +0.000 A 
ATOM      2  O   UNL     1      15.176  10.311  39.572  0.00  0.00    +0.000 OA
ATOM      3  C   UNL     1      15.033  10.919  38.408  0.00  0.00    +0.000 A 
ATOM      4  C   UNL     1      13.813  11.521  38.074  0.00  0.00    +0.000 A 
ATOM      5  C   UNL     1      13.640  12.161  36.867  0.00  0.00    +0.000 A 
ATOM      6  C   UNL     1      12.327  12.808  36.510  0.00  0.00    +0.000 C 
ATOM      7  C   UNL     1      14.707  12.191  35.994  0.00  0.00    +0.000 A 
ATOM      8  C   UNL     1      15.921  11.609  36.287  0.00  0.00    +0.000 A 
ATOM      9  C   UNL     1      17.082  11.624  35.370  0.00  0.00    +0.000 C 
ATOM     10  C   UNL     1      16.074  10.971  37.506  0.00  0.00    +0.000 A 
ATOM     11  C   UNL     1      17.269  10.368  37.861  0.00  0.00    +0.000 A 
ATOM     12  O   UNL     1      18.232  10.404  37.053  0.00  0.00    +0.000 OA
ATOM     13  C   UNL     1      17.335   9.757  39.088  0.00  0.00    +0.000 A 
ATOM     14  O   UNL     1      18.514   9.144  39.476  0.00  0.00    +0.000 OA
ENDROOT
BRANCH   1  18
ATOM     15  C   UNL     1      16.479   7.835  43.807  0.00  0.00    +0.000 A 
ATOM     16  C   UNL     1      16.698   9.186  43.654  0.00  0.00    +0.000 A 
ATOM     17  C   UNL     1      16.630   9.791  42.410  0.00  0.00    +0.000 A 
ATOM     18  C   UNL     1      16.342   9.077  41.267  0.00  0.00    +0.000 A 
ATOM     19  C   UNL     1      16.121   7.724  41.416  0.00  0.00    +0.000 A 
ATOM     20  C   UNL     1      16.190   7.119  42.664  0.00  0.00    +0.000 A 
BRANCH  15  22
ATOM     21  C   UNL     1      15.404   7.101  45.891  0.00  0.00    +0.000 C 
ATOM     22  O   UNL     1      16.546   7.221  45.064  0.00  0.00    +0.000 OA
ENDBRANCH  15  22
ENDBRANCH   1  18
TORSDOF 2
ENDMDL
MODEL 5
REMARK VINA RESULT:      -7.4      1.717      7.555
REMARK  Name = 
REMARK  2 active torsions:
REMARK  status: ('A' for Active; 'I' for Inactive)
REMARK    1  A    between atoms: O_2  and  C_3
REMARK    2  A    between atoms: C_6  and  C_7
REMARK                            x       y       z     vdW  Elec       q    Type
REMARK                         _______ _______ _______ _____ _____    ______ ____
ROOT
ATOM      1  C   UNL     1      17.345  10.606  35.940  0.00  0.00    +0.000 A 
ATOM      2  O   UNL     1      18.632  10.395  35.939  0.00  0.00    +0.000 OA
ATOM      3  C   UNL     1      19.333  10.076  37.013  0.00  0.00    +0.000 A 
ATOM      4  C   UNL     1      20.714   9.867  36.915  0.00  0.00    +0.000 A 
ATOM      5  C   UNL     1      21.466   9.534  38.020  0.00  0.00    +0.000 A 
ATOM      6  C   UNL     1      22.952   9.310  37.912  0.00  0.00    +0.000 C 
ATOM      7  C   UNL     1      20.815   9.413  39.230  0.00  0.00    +0.000 A 
ATOM      8  C   UNL     1      19.459   9.610  39.365  0.00  0.00    +0.000 A 
ATOM      9  C   UNL     1      18.734   9.486  40.649  0.00  0.00    +0.000 C 
ATOM     10  C   UNL     1      18.721   9.944  38.241  0.00  0.00    +0.000 A 
ATOM     11  C   UNL     1      17.355  10.156  38.311  0.00  0.00    +0.000 A 
ATOM     12  O   UNL     1      16.777  10.041  39.422  0.00  0.00    +0.000 OA
ATOM     13  C   UNL     1      16.701  10.483  37.149  0.00  0.00    +0.000 A 
ATOM     14  O   UNL     1      15.334  10.703  37.181  0.00  0.00    +0.000 OA
ENDROOT
BRANCH   1  18
ATOM     15  C   UNL     1      15.317  11.617  32.300  0.00  0.00    +0.000 A 
ATOM     16  C   UNL     1      16.328  10.683  32.327  0.00  0.00    +0.000 A 
ATOM     17  C   UNL     1      16.980  10.360  33.505  0.00  0.00    +0.000 A 
ATOM     18  C   UNL     1      16.652  10.954  34.705  0.00  0.00    +0.000 A 
ATOM     19  C   UNL     1      15.639  11.888  34.683  0.00  0.00    +0.000 A 
ATOM     20  C   UNL     1      14.987  12.211  33.499  0.00  0.00    +0.000 A 
BRANCH  15  22
ATOM     21  C   UNL     1      14.874  13.181  30.457  0.00  0.00    +0.000 C 
ATOM     22  O   UNL     1      14.656  11.944  31.109  0.00  0.00    +0.000 OA
ENDBRANCH  15  22
ENDBRANCH   1  18
TORSDOF 2
ENDMDL
MODEL 6
REMARK VINA RESULT:      -7.1      5.258      8.646
REMARK  Name = 
REMARK  2 active torsions:
REMARK  status: ('A' for Active; 'I' for Inactive)
REMARK    1  A    between atoms: O_2  and  C_3
REMARK    2  A    between atoms: C_6  and  C_7
REMARK                            x       y       z     vdW  Elec       q    Type
REMARK                         _______ _______ _______ _____ _____    ______ ____
ROOT
ATOM      1  C   UNL     1      19.180   5.347  41.056  0.00  0.00    +0.000 A 
ATOM      2  O   UNL     1      19.367   6.295  40.180  0.00  0.00    +0.000 OA
ATOM      3  C   UNL     1      18.607   7.370  40.076  0.00  0.00    +0.000 A 
ATOM      4  C   UNL     1      18.887   8.338  39.103  0.00  0.00    +0.000 A 
ATOM      5  C   UNL     1      18.108   9.467  38.976  0.00  0.00    +0.000 A 
ATOM      6  C   UNL     1      18.411  10.507  37.928  0.00  0.00    +0.000 C 
ATOM      7  C   UNL     1      17.043   9.617  39.838  0.00  0.00    +0.000 A 
ATOM      8  C   UNL     1      16.738   8.687  40.807  0.00  0.00    +0.000 A 
ATOM      9  C   UNL     1      15.602   8.821  41.746  0.00  0.00    +0.000 C 
ATOM     10  C   UNL     1      17.532   7.558  40.919  0.00  0.00    +0.000 A 
ATOM     11  C   UNL     1      17.279   6.587  41.872  0.00  0.00    +0.000 A 
ATOM     12  O   UNL     1      16.303   6.739  42.650  0.00  0.00    +0.000 OA
ATOM     13  C   UNL     1      18.116   5.500  41.913  0.00  0.00    +0.000 A 
ATOM     14  O   UNL     1      17.892   4.509  42.854  0.00  0.00    +0.000 OA
ENDROOT
BRANCH   1  18
ATOM     15  C   UNL     1      21.811   1.963  41.191  0.00  0.00    +0.000 A 
ATOM     16  C   UNL     1      22.115   3.139  41.839  0.00  0.00    +0.000 A 
ATOM     17  C   UNL     1      21.261   4.229  41.792  0.00  0.00    +0.000 A 
ATOM     18  C   UNL     1      20.071   4.193  41.098  0.00  0.00    +0.000 A 
ATOM     19  C   UNL     1      19.763   3.016  40.449  0.00  0.00    +0.000 A 
ATOM     20  C   UNL     1      20.621   1.925  40.497  0.00  0.00    +0.000 A 
BRANCH  15  22
ATOM     21  C   UNL     1      22.318  -0.381  40.657  0.00  0.00    +0.000 C 
ATOM     22  O   UNL     1      22.673   0.859  41.238  0.00  0.00    +0.000 OA
ENDBRANCH  15  22
ENDBRANCH   1  18
TORSDOF 2
ENDMDL
MODEL 7
REMARK VINA RESULT:      -7.1     21.247     23.042
REMARK  Name = 
REMARK  2 active torsions:
REMARK  status: ('A' for Active; 'I' for Inactive)
REMARK    1  A    between atoms: O_2  and  C_3
REMARK    2  A    between atoms: C_6  and  C_7
REMARK                            x       y       z     vdW  Elec       q    Type
REMARK                         _______ _______ _______ _____ _____    ______ ____
ROOT
ATOM      1  C   UNL     1      22.327  -7.681  24.899  0.00  0.00    +0.000 A 
ATOM      2  O   UNL     1      21.925  -8.634  25.693  0.00  0.00    +0.000 OA
ATOM      3  C   UNL     1      20.813  -8.588  26.405  0.00  0.00    +0.000 A 
ATOM      4  C   UNL     1      20.462  -9.664  27.231  0.00  0.00    +0.000 A 
ATOM      5  C   UNL     1      19.308  -9.638  27.983  0.00  0.00    +0.000 A 
ATOM      6  C   UNL     1      18.933 -10.796  28.871  0.00  0.00    +0.000 C 
ATOM      7  C   UNL     1      18.507  -8.520  27.897  0.00  0.00    +0.000 A 
ATOM      8  C   UNL     1      18.819  -7.444  27.095  0.00  0.00    +0.000 A 
ATOM      9  C   UNL     1      17.978  -6.232  26.982  0.00  0.00    +0.000 C 
ATOM     10  C   UNL     1      19.984  -7.489  26.348  0.00  0.00    +0.000 A 
ATOM     11  C   UNL     1      20.354  -6.440  25.523  0.00  0.00    +0.000 A 
ATOM     12  O   UNL     1      19.611  -5.428  25.456  0.00  0.00    +0.000 OA
ATOM     13  C   UNL     1      21.524  -6.567  24.817  0.00  0.00    +0.000 A 
ATOM     14  O   UNL     1      21.925  -5.538  23.982  0.00  0.00    +0.000 OA
ENDROOT
BRANCH   1  18
ATOM     15  C   UNL     1      25.979  -8.098  22.690  0.00  0.00    +0.000 A 
ATOM     16  C   UNL     1      25.038  -9.103  22.726  0.00  0.00    +0.000 A 
ATOM     17  C   UNL     1      23.861  -8.963  23.441  0.00  0.00    +0.000 A 
ATOM     18  C   UNL     1      23.571  -7.817  24.150  0.00  0.00    +0.000 A 
ATOM     19  C   UNL     1      24.509  -6.808  24.115  0.00  0.00    +0.000 A 
ATOM     20  C   UNL     1      25.690  -6.951  23.398  0.00  0.00    +0.000 A 
BRANCH  15  22
ATOM     21  C   UNL     1      28.142  -7.209  21.937  0.00  0.00    +0.000 C 
ATOM     22  O   UNL     1      27.171  -8.237  21.967  0.00  0.00    +0.000 OA
ENDBRANCH  15  22
ENDBRANCH   1  18
TORSDOF 2
ENDMDL
MODEL 8
REMARK VINA RESULT:      -7.1      2.166      7.818
REMARK  Name = 
REMARK  2 active torsions:
REMARK  status: ('A' for Active; 'I' for Inactive)
REMARK    1  A    between atoms: O_2  and  C_3
REMARK    2  A    between atoms: C_6  and  C_7
REMARK                            x       y       z     vdW  Elec       q    Type
REMARK                         _______ _______ _______ _____ _____    ______ ____
ROOT
ATOM      1  C   UNL     1      18.400  10.295  36.629  0.00  0.00    +0.000 A 
ATOM      2  O   UNL     1      19.667  10.162  36.350  0.00  0.00    +0.000 OA
ATOM      3  C   UNL     1      20.592   9.838  37.237  0.00  0.00    +0.000 A 
ATOM      4  C   UNL     1      21.931   9.717  36.844  0.00  0.00    +0.000 A 
ATOM      5  C   UNL     1      22.912   9.381  37.750  0.00  0.00    +0.000 A 
ATOM      6  C   UNL     1      24.352   9.251  37.325  0.00  0.00    +0.000 C 
ATOM      7  C   UNL     1      22.536   9.166  39.059  0.00  0.00    +0.000 A 
ATOM      8  C   UNL     1      21.230   9.275  39.482  0.00  0.00    +0.000 A 
ATOM      9  C   UNL     1      20.796   9.050  40.878  0.00  0.00    +0.000 C 
ATOM     10  C   UNL     1      20.257   9.615  38.555  0.00  0.00    +0.000 A 
ATOM     11  C   UNL     1      18.927   9.741  38.917  0.00  0.00    +0.000 A 
ATOM     12  O   UNL     1      18.601   9.541  40.115  0.00  0.00    +0.000 OA
ATOM     13  C   UNL     1      18.029  10.080  37.935  0.00  0.00    +0.000 A 
ATOM     14  O   UNL     1      16.690  10.215  38.261  0.00  0.00    +0.000 OA
ENDROOT
BRANCH   1  18
ATOM     15  C   UNL     1      15.605  11.342  33.549  0.00  0.00    +0.000 A 
ATOM     16  C   UNL     1      16.462  10.273  33.413  0.00  0.00    +0.000 A 
ATOM     17  C   UNL     1      17.362   9.939  34.411  0.00  0.00    +0.000 A 
ATOM     18  C   UNL     1      17.447  10.656  35.585  0.00  0.00    +0.000 A 
ATOM     19  C   UNL     1      16.590  11.726  35.726  0.00  0.00    +0.000 A 
ATOM     20  C   UNL     1      15.688  12.059  34.724  0.00  0.00    +0.000 A 
BRANCH  15  22
ATOM     21  C   UNL     1      14.699  11.027  31.287  0.00  0.00    +0.000 C 
ATOM     22  O   UNL     1      14.692  11.681  32.542  0.00  0.00    +0.000 OA
ENDBRANCH  15  22
ENDBRANCH   1  18
TORSDOF 2
ENDMDL
MODEL 9
REMARK VINA RESULT:      -7.0     19.484     20.556
REMARK  Name = 
REMARK  2 active torsions:
REMARK  status: ('A' for Active; 'I' for Inactive)
REMARK    1  A    between atoms: O_2  and  C_3
REMARK    2  A    between atoms: C_6  and  C_7
REMARK                            x       y       z     vdW  Elec       q    Type
REMARK                         _______ _______ _______ _____ _____    ______ ____
ROOT
ATOM      1  C   UNL     1      29.553  23.215  26.384  0.00  0.00    +0.000 A 
ATOM      2  O   UNL     1      29.944  23.779  25.275  0.00  0.00    +0.000 OA
ATOM      3  C   UNL     1      29.169  23.959  24.220  0.00  0.00    +0.000 A 
ATOM      4  C   UNL     1      29.677  24.577  23.071  0.00  0.00    +0.000 A 
ATOM      5  C   UNL     1      28.889  24.775  21.959  0.00  0.00    +0.000 A 
ATOM      6  C   UNL     1      29.438  25.440  20.724  0.00  0.00    +0.000 C 
ATOM      7  C   UNL     1      27.580  24.345  22.012  0.00  0.00    +0.000 A 
ATOM      8  C   UNL     1      27.044  23.734  23.124  0.00  0.00    +0.000 A 
ATOM      9  C   UNL     1      25.645  23.263  23.211  0.00  0.00    +0.000 C 
ATOM     10  C   UNL     1      27.854  23.544  24.232  0.00  0.00    +0.000 A 
ATOM     11  C   UNL     1      27.377  22.936  25.381  0.00  0.00    +0.000 A 
ATOM     12  O   UNL     1      26.180  22.550  25.412  0.00  0.00    +0.000 OA
ATOM     13  C   UNL     1      28.247  22.788  26.432  0.00  0.00    +0.000 A 
ATOM     14  O   UNL     1      27.803  22.184  27.596  0.00  0.00    +0.000 OA
ENDROOT
BRANCH   1  18
ATOM     15  C   UNL     1      32.279  22.737  29.660  0.00  0.00    +0.000 A 
ATOM     16  C   UNL     1      32.054  21.724  28.754  0.00  0.00    +0.000 A 
ATOM     17  C   UNL     1      31.173  21.884  27.698  0.00  0.00    +0.000 A 
ATOM     18  C   UNL     1      30.479  23.058  27.500  0.00  0.00    +0.000 A 
ATOM     19  C   UNL     1      30.702  24.075  28.403  0.00  0.00    +0.000 A 
ATOM     20  C   UNL     1      31.586  23.912  29.463  0.00  0.00    +0.000 A 
BRANCH  15  22
ATOM     21  C   UNL     1      33.585  21.296  31.162  0.00  0.00    +0.000 C 
ATOM     22  O   UNL     1      33.170  22.577  30.729  0.00  0.00    +0.000 OA
ENDBRANCH  15  22
ENDBRANCH   1  18
TORSDOF 2
ENDMDL
MODEL 10
REMARK VINA RESULT:      -6.7      3.741      5.935
REMARK  Name = 
REMARK  2 active torsions:
REMARK  status: ('A' for Active; 'I' for Inactive)
REMARK    1  A    between atoms: O_2  and  C_3
REMARK    2  A    between atoms: C_6  and  C_7
REMARK                            x       y       z     vdW  Elec       q    Type
REMARK                         _______ _______ _______ _____ _____    ______ ____
ROOT
ATOM      1  C   UNL     1      16.510   9.290  41.245  0.00  0.00    +0.000 A 
ATOM      2  O   UNL     1      15.553   9.873  40.579  0.00  0.00    +0.000 OA
ATOM      3  C   UNL     1      15.666  10.299  39.334  0.00  0.00    +0.000 A 
ATOM      4  C   UNL     1      14.580  10.915  38.699  0.00  0.00    +0.000 A 
ATOM      5  C   UNL     1      14.676  11.367  37.402  0.00  0.00    +0.000 A 
ATOM      6  C   UNL     1      13.506  12.029  36.721  0.00  0.00    +0.000 C 
ATOM      7  C   UNL     1      15.875  11.195  36.745  0.00  0.00    +0.000 A 
ATOM      8  C   UNL     1      16.965  10.594  37.336  0.00  0.00    +0.000 A 
ATOM      9  C   UNL     1      18.264  10.395  36.656  0.00  0.00    +0.000 C 
ATOM     10  C   UNL     1      16.849  10.146  38.642  0.00  0.00    +0.000 A 
ATOM     11  C   UNL     1      17.906   9.534  39.292  0.00  0.00    +0.000 A 
ATOM     12  O   UNL     1      18.994   9.385  38.678  0.00  0.00    +0.000 OA
ATOM     13  C   UNL     1      17.705   9.120  40.586  0.00  0.00    +0.000 A 
ATOM     14  O   UNL     1      18.741   8.504  41.267  0.00  0.00    +0.000 OA
ENDROOT
BRANCH   1  18
ATOM     15  C   UNL     1      15.883   8.015  45.291  0.00  0.00    +0.000 A 
ATOM     16  C   UNL     1      16.318   9.288  44.994  0.00  0.00    +0.000 A 
ATOM     17  C   UNL     1      16.518   9.694  43.686  0.00  0.00    +0.000 A 
ATOM     18  C   UNL     1      16.295   8.851  42.619  0.00  0.00    +0.000 A 
ATOM     19  C   UNL     1      15.859   7.576  42.911  0.00  0.00    +0.000 A 
ATOM     20  C   UNL     1      15.658   7.171  44.225  0.00  0.00    +0.000 A 
BRANCH  15  22
ATOM     21  C   UNL     1      15.464   6.242  46.940  0.00  0.00    +0.000 C 
ATOM     22  O   UNL     1      15.678   7.602  46.614  0.00  0.00    +0.000 OA
ENDBRANCH  15  22
ENDBRANCH   1  18
TORSDOF 2
ENDMDL
