MODEL 1
REMARK VINA RESULT:      -7.3      0.000      0.000
REMARK  Name = 
REMARK  3 active torsions:
REMARK  status: ('A' for Active; 'I' for Inactive)
REMARK    1  A    between atoms: C_5  and  C_6
REMARK    2  A    between atoms: C_10  and  C_11
REMARK    3  A    between atoms: C_11  and  C_13
REMARK                            x       y       z     vdW  Elec       q    Type
REMARK                         _______ _______ _______ _____ _____    ______ ____
ROOT
ATOM      1  C   UNL     1      27.001  24.548  22.101  0.00  0.00    +0.000 A 
ATOM      2  N   UNL     1      26.097  23.748  21.454  0.00  0.00    +0.000 NA
ATOM      3  N   UNL     1      25.607  22.891  22.304  0.00  0.00    +0.000 NA
ATOM      4  C   UNL     1      26.155  23.092  23.504  0.00  0.00    +0.000 A 
ATOM      5  C   UNL     1      27.065  24.159  23.409  0.00  0.00    +0.000 A 
ENDROOT
BRANCH   1  10
ATOM      6  C   UNL     1      30.070  28.722  19.510  0.00  0.00    +0.000 C 
ATOM      7  C   UNL     1      29.299  27.639  20.173  0.00  0.00    +0.000 A 
ATOM      8  C   UNL     1      28.043  27.899  20.682  0.00  0.00    +0.000 A 
ATOM      9  C   UNL     1      27.318  26.910  21.298  0.00  0.00    +0.000 A 
ATOM     10  C   UNL     1      27.749  25.637  21.457  0.00  0.00    +0.000 A 
ATOM     11  C   UNL     1      29.020  25.371  20.943  0.00  0.00    +0.000 A 
ATOM     12  O   UNL     1      29.517  24.073  21.080  0.00  0.00    +0.000 OA
ATOM     13  C   UNL     1      29.775  26.356  20.315  0.00  0.00    +0.000 A 
ENDBRANCH   1  10
BRANCH   5  14
ATOM     14  C   UNL     1      27.874  24.685  24.495  0.00  0.00    +0.000 C 
ATOM     15  O   UNL     1      27.489  25.417  25.424  0.00  0.00    +0.000 OA
BRANCH  14  16
ATOM     16  C   UNL     1      29.314  24.342  24.551  0.00  0.00    +0.000 A 
ATOM     17  C   UNL     1      29.741  23.047  24.732  0.00  0.00    +0.000 A 
ATOM     18  C   UNL     1      31.074  22.705  24.771  0.00  0.00    +0.000 A 
ATOM     19  C   UNL     1      32.010  23.705  24.622  0.00  0.00    +0.000 A 
ATOM     20  C   UNL     1      31.601  24.988  24.441  0.00  0.00    +0.000 A 
ATOM     21  C   UNL     1      30.258  25.323  24.405  0.00  0.00    +0.000 A 
ATOM     22  C   UNL     1      29.953  26.761  24.220  0.00  0.00    +0.000 C 
ENDBRANCH  14  16
ENDBRANCH   5  14
TORSDOF 3
ENDMDL
MODEL 2
REMARK VINA RESULT:      -6.8      2.449      5.052
REMARK  Name = 
REMARK  3 active torsions:
REMARK  status: ('A' for Active; 'I' for Inactive)
REMARK    1  A    between atoms: C_5  and  C_6
REMARK    2  A    between atoms: C_10  and  C_11
REMARK    3  A    between atoms: C_11  and  C_13
REMARK                            x       y       z     vdW  Elec       q    Type
REMARK                         _______ _______ _______ _____ _____    ______ ____
ROOT
ATOM      1  C   UNL     1      26.354  23.582  23.911  0.00  0.00    +0.000 A 
ATOM      2  N   UNL     1      25.462  22.898  23.128  0.00  0.00    +0.000 NA
ATOM      3  N   UNL     1      25.769  23.084  21.876  0.00  0.00    +0.000 NA
ATOM      4  C   UNL     1      26.841  23.875  21.794  0.00  0.00    +0.000 A 
ATOM      5  C   UNL     1      27.247  24.216  23.096  0.00  0.00    +0.000 A 
ENDROOT
BRANCH   1  10
ATOM      6  C   UNL     1      26.092  23.749  29.695  0.00  0.00    +0.000 C 
ATOM      7  C   UNL     1      26.147  23.722  28.211  0.00  0.00    +0.000 A 
ATOM      8  C   UNL     1      26.965  22.817  27.568  0.00  0.00    +0.000 A 
ATOM      9  C   UNL     1      27.028  22.780  26.197  0.00  0.00    +0.000 A 
ATOM     10  C   UNL     1      26.322  23.595  25.380  0.00  0.00    +0.000 A 
ATOM     11  C   UNL     1      25.493  24.513  26.029  0.00  0.00    +0.000 A 
ATOM     12  O   UNL     1      24.740  25.381  25.236  0.00  0.00    +0.000 OA
ATOM     13  C   UNL     1      25.411  24.571  27.416  0.00  0.00    +0.000 A 
ENDBRANCH   1  10
BRANCH   5  14
ATOM     14  C   UNL     1      28.373  25.069  23.438  0.00  0.00    +0.000 C 
ATOM     15  O   UNL     1      28.551  26.247  23.079  0.00  0.00    +0.000 OA
BRANCH  14  16
ATOM     16  C   UNL     1      29.447  24.530  24.304  0.00  0.00    +0.000 A 
ATOM     17  C   UNL     1      30.260  23.501  23.890  0.00  0.00    +0.000 A 
ATOM     18  C   UNL     1      31.273  22.996  24.673  0.00  0.00    +0.000 A 
ATOM     19  C   UNL     1      31.475  23.549  25.918  0.00  0.00    +0.000 A 
ATOM     20  C   UNL     1      30.679  24.567  26.339  0.00  0.00    +0.000 A 
ATOM     21  C   UNL     1      29.660  25.067  25.545  0.00  0.00    +0.000 A 
ATOM     22  C   UNL     1      28.858  26.165  26.134  0.00  0.00    +0.000 C 
ENDBRANCH  14  16
ENDBRANCH   5  14
TORSDOF 3
ENDMDL
MODEL 3
REMARK VINA RESULT:      -6.6      1.474      5.071
REMARK  Name = 
REMARK  3 active torsions:
REMARK  status: ('A' for Active; 'I' for Inactive)
REMARK    1  A    between atoms: C_5  and  C_6
REMARK    2  A    between atoms: C_10  and  C_11
REMARK    3  A    between atoms: C_11  and  C_13
REMARK                            x       y       z     vdW  Elec       q    Type
REMARK                         _______ _______ _______ _____ _____    ______ ____
ROOT
ATOM      1  C   UNL     1      27.591  23.346  23.430  0.00  0.00    +0.000 A 
ATOM      2  N   UNL     1      26.340  22.787  23.405  0.00  0.00    +0.000 NA
ATOM      3  N   UNL     1      25.739  23.147  22.307  0.00  0.00    +0.000 NA
ATOM      4  C   UNL     1      26.549  23.932  21.593  0.00  0.00    +0.000 A 
ATOM      5  C   UNL     1      27.759  24.082  22.292  0.00  0.00    +0.000 A 
ENDROOT
BRANCH   1  10
ATOM      6  C   UNL     1      31.290  22.639  27.831  0.00  0.00    +0.000 C 
ATOM      7  C   UNL     1      30.329  22.831  26.715  0.00  0.00    +0.000 A 
ATOM      8  C   UNL     1      30.636  22.365  25.453  0.00  0.00    +0.000 A 
ATOM      9  C   UNL     1      29.760  22.536  24.411  0.00  0.00    +0.000 A 
ATOM     10  C   UNL     1      28.560  23.152  24.518  0.00  0.00    +0.000 A 
ATOM     11  C   UNL     1      28.247  23.624  25.794  0.00  0.00    +0.000 A 
ATOM     12  O   UNL     1      27.020  24.270  25.964  0.00  0.00    +0.000 OA
ATOM     13  C   UNL     1      29.117  23.465  26.867  0.00  0.00    +0.000 A 
ENDBRANCH   1  10
BRANCH   5  14
ATOM     14  C   UNL     1      28.900  24.868  21.855  0.00  0.00    +0.000 C 
ATOM     15  O   UNL     1      29.697  24.580  20.944  0.00  0.00    +0.000 OA
BRANCH  14  16
ATOM     16  C   UNL     1      29.188  26.155  22.529  0.00  0.00    +0.000 A 
ATOM     17  C   UNL     1      29.959  26.218  23.666  0.00  0.00    +0.000 A 
ATOM     18  C   UNL     1      30.251  27.406  24.298  0.00  0.00    +0.000 A 
ATOM     19  C   UNL     1      29.749  28.572  23.764  0.00  0.00    +0.000 A 
ATOM     20  C   UNL     1      28.987  28.523  22.640  0.00  0.00    +0.000 A 
ATOM     21  C   UNL     1      28.696  27.323  22.011  0.00  0.00    +0.000 A 
ATOM     22  C   UNL     1      27.840  27.414  20.806  0.00  0.00    +0.000 C 
ENDBRANCH  14  16
ENDBRANCH   5  14
TORSDOF 3
ENDMDL
MODEL 4
REMARK VINA RESULT:      -6.5     21.236     22.710
REMARK  Name = 
REMARK  3 active torsions:
REMARK  status: ('A' for Active; 'I' for Inactive)
REMARK    1  A    between atoms: C_5  and  C_6
REMARK    2  A    between atoms: C_10  and  C_11
REMARK    3  A    between atoms: C_11  and  C_13
REMARK                            x       y       z     vdW  Elec       q    Type
REMARK                         _______ _______ _______ _____ _____    ______ ____
ROOT
ATOM      1  C   UNL     1      19.010   9.374  38.061  0.00  0.00    +0.000 A 
ATOM      2  N   UNL     1      18.647   8.360  38.907  0.00  0.00    +0.000 NA
ATOM      3  N   UNL     1      19.503   8.300  39.886  0.00  0.00    +0.000 NA
ATOM      4  C   UNL     1      20.432   9.243  39.723  0.00  0.00    +0.000 A 
ATOM      5  C   UNL     1      20.144   9.959  38.548  0.00  0.00    +0.000 A 
ENDROOT
BRANCH   1  10
ATOM      6  C   UNL     1      15.985  10.919  33.369  0.00  0.00    +0.000 C 
ATOM      7  C   UNL     1      16.746  10.530  34.584  0.00  0.00    +0.000 A 
ATOM      8  C   UNL     1      17.914   9.806  34.463  0.00  0.00    +0.000 A 
ATOM      9  C   UNL     1      18.628   9.439  35.576  0.00  0.00    +0.000 A 
ATOM     10  C   UNL     1      18.269   9.740  36.845  0.00  0.00    +0.000 A 
ATOM     11  C   UNL     1      17.087  10.473  36.970  0.00  0.00    +0.000 A 
ATOM     12  O   UNL     1      16.667  10.813  38.258  0.00  0.00    +0.000 OA
ATOM     13  C   UNL     1      16.345  10.858  35.859  0.00  0.00    +0.000 A 
ENDBRANCH   1  10
BRANCH   5  14
ATOM     14  C   UNL     1      20.922  11.064  38.014  0.00  0.00    +0.000 C 
ATOM     15  O   UNL     1      20.576  12.258  37.957  0.00  0.00    +0.000 OA
BRANCH  14  16
ATOM     16  C   UNL     1      22.273  10.797  37.470  0.00  0.00    +0.000 A 
ATOM     17  C   UNL     1      22.454  10.135  36.278  0.00  0.00    +0.000 A 
ATOM     18  C   UNL     1      23.701   9.891  35.748  0.00  0.00    +0.000 A 
ATOM     19  C   UNL     1      24.805  10.330  36.444  0.00  0.00    +0.000 A 
ATOM     20  C   UNL     1      24.639  10.985  37.624  0.00  0.00    +0.000 A 
ATOM     21  C   UNL     1      23.381  11.226  38.150  0.00  0.00    +0.000 A 
ATOM     22  C   UNL     1      23.347  11.934  39.451  0.00  0.00    +0.000 C 
ENDBRANCH  14  16
ENDBRANCH   5  14
TORSDOF 3
ENDMDL
MODEL 5
REMARK VINA RESULT:      -6.5      2.753      5.528
REMARK  Name = 
REMARK  3 active torsions:
REMARK  status: ('A' for Active; 'I' for Inactive)
REMARK    1  A    between atoms: C_5  and  C_6
REMARK    2  A    between atoms: C_10  and  C_11
REMARK    3  A    between atoms: C_11  and  C_13
REMARK                            x       y       z     vdW  Elec       q    Type
REMARK                         _______ _______ _______ _____ _____    ______ ____
ROOT
ATOM      1  C   UNL     1      29.188  23.815  23.509  0.00  0.00    +0.000 A 
ATOM      2  N   UNL     1      30.081  24.124  22.517  0.00  0.00    +0.000 NA
ATOM      3  N   UNL     1      29.429  24.314  21.406  0.00  0.00    +0.000 NA
ATOM      4  C   UNL     1      28.123  24.140  21.621  0.00  0.00    +0.000 A 
ATOM      5  C   UNL     1      27.931  23.815  22.975  0.00  0.00    +0.000 A 
ENDROOT
BRANCH   1  10
ATOM      6  C   UNL     1      30.654  22.912  29.040  0.00  0.00    +0.000 C 
ATOM      7  C   UNL     1      30.281  23.163  27.624  0.00  0.00    +0.000 A 
ATOM      8  C   UNL     1      30.065  22.103  26.769  0.00  0.00    +0.000 A 
ATOM      9  C   UNL     1      29.721  22.318  25.458  0.00  0.00    +0.000 A 
ATOM     10  C   UNL     1      29.565  23.542  24.903  0.00  0.00    +0.000 A 
ATOM     11  C   UNL     1      29.782  24.618  25.766  0.00  0.00    +0.000 A 
ATOM     12  O   UNL     1      29.636  25.906  25.248  0.00  0.00    +0.000 OA
ATOM     13  C   UNL     1      30.133  24.427  27.099  0.00  0.00    +0.000 A 
ENDBRANCH   1  10
BRANCH   5  14
ATOM     14  C   UNL     1      26.653  23.542  23.610  0.00  0.00    +0.000 C 
ATOM     15  O   UNL     1      25.708  22.890  23.131  0.00  0.00    +0.000 OA
BRANCH  14  16
ATOM     16  C   UNL     1      26.398  24.070  24.971  0.00  0.00    +0.000 A 
ATOM     17  C   UNL     1      26.316  23.238  26.063  0.00  0.00    +0.000 A 
ATOM     18  C   UNL     1      26.095  23.709  27.337  0.00  0.00    +0.000 A 
ATOM     19  C   UNL     1      25.953  25.067  27.518  0.00  0.00    +0.000 A 
ATOM     20  C   UNL     1      26.033  25.899  26.446  0.00  0.00    +0.000 A 
ATOM     21  C   UNL     1      26.253  25.416  25.167  0.00  0.00    +0.000 A 
ATOM     22  C   UNL     1      26.300  26.432  24.089  0.00  0.00    +0.000 C 
ENDBRANCH  14  16
ENDBRANCH   5  14
TORSDOF 3
ENDMDL
MODEL 6
REMARK VINA RESULT:      -6.5      2.636      3.907
REMARK  Name = 
REMARK  3 active torsions:
REMARK  status: ('A' for Active; 'I' for Inactive)
REMARK    1  A    between atoms: C_5  and  C_6
REMARK    2  A    between atoms: C_10  and  C_11
REMARK    3  A    between atoms: C_11  and  C_13
REMARK                            x       y       z     vdW  Elec       q    Type
REMARK                         _______ _______ _______ _____ _____    ______ ____
ROOT
ATOM      1  C   UNL     1      27.746  23.543  23.513  0.00  0.00    +0.000 A 
ATOM      2  N   UNL     1      27.334  23.197  22.252  0.00  0.00    +0.000 NA
ATOM      3  N   UNL     1      26.035  23.109  22.242  0.00  0.00    +0.000 NA
ATOM      4  C   UNL     1      25.561  23.384  23.459  0.00  0.00    +0.000 A 
ATOM      5  C   UNL     1      26.643  23.670  24.308  0.00  0.00    +0.000 A 
ENDROOT
BRANCH   1  10
ATOM      6  C   UNL     1      33.256  24.494  25.026  0.00  0.00    +0.000 C 
ATOM      7  C   UNL     1      31.841  24.270  24.633  0.00  0.00    +0.000 A 
ATOM      8  C   UNL     1      31.320  22.993  24.632  0.00  0.00    +0.000 A 
ATOM      9  C   UNL     1      30.015  22.768  24.271  0.00  0.00    +0.000 A 
ATOM     10  C   UNL     1      29.151  23.740  23.897  0.00  0.00    +0.000 A 
ATOM     11  C   UNL     1      29.676  25.034  23.897  0.00  0.00    +0.000 A 
ATOM     12  O   UNL     1      28.829  26.078  23.519  0.00  0.00    +0.000 OA
ATOM     13  C   UNL     1      30.994  25.288  24.258  0.00  0.00    +0.000 A 
ENDBRANCH   1  10
BRANCH   5  14
ATOM     14  C   UNL     1      26.550  24.011  25.718  0.00  0.00    +0.000 C 
ATOM     15  O   UNL     1      25.617  24.615  26.277  0.00  0.00    +0.000 OA
BRANCH  14  16
ATOM     16  C   UNL     1      27.652  23.621  26.627  0.00  0.00    +0.000 A 
ATOM     17  C   UNL     1      27.915  22.303  26.918  0.00  0.00    +0.000 A 
ATOM     18  C   UNL     1      28.944  21.918  27.748  0.00  0.00    +0.000 A 
ATOM     19  C   UNL     1      29.736  22.898  28.304  0.00  0.00    +0.000 A 
ATOM     20  C   UNL     1      29.487  24.205  28.024  0.00  0.00    +0.000 A 
ATOM     21  C   UNL     1      28.449  24.582  27.189  0.00  0.00    +0.000 A 
ATOM     22  C   UNL     1      28.279  26.040  26.984  0.00  0.00    +0.000 C 
ENDBRANCH  14  16
ENDBRANCH   5  14
TORSDOF 3
ENDMDL
MODEL 7
REMARK VINA RESULT:      -6.4      2.617      3.791
REMARK  Name = 
REMARK  3 active torsions:
REMARK  status: ('A' for Active; 'I' for Inactive)
REMARK    1  A    between atoms: C_5  and  C_6
REMARK    2  A    between atoms: C_10  and  C_11
REMARK    3  A    between atoms: C_11  and  C_13
REMARK                            x       y       z     vdW  Elec       q    Type
REMARK                         _______ _______ _______ _____ _____    ______ ____
ROOT
ATOM      1  C   UNL     1      29.985  24.304  23.653  0.00  0.00    +0.000 A 
ATOM      2  N   UNL     1      31.249  23.866  23.950  0.00  0.00    +0.000 NA
ATOM      3  N   UNL     1      31.164  22.741  24.599  0.00  0.00    +0.000 NA
ATOM      4  C   UNL     1      29.880  22.409  24.748  0.00  0.00    +0.000 A 
ATOM      5  C   UNL     1      29.087  23.401  24.146  0.00  0.00    +0.000 A 
ENDROOT
BRANCH   1  10
ATOM      6  C   UNL     1      28.800  29.087  20.608  0.00  0.00    +0.000 C 
ATOM      7  C   UNL     1      29.105  27.850  21.372  0.00  0.00    +0.000 A 
ATOM      8  C   UNL     1      29.278  27.909  22.739  0.00  0.00    +0.000 A 
ATOM      9  C   UNL     1      29.562  26.776  23.459  0.00  0.00    +0.000 A 
ATOM     10  C   UNL     1      29.692  25.542  22.917  0.00  0.00    +0.000 A 
ATOM     11  C   UNL     1      29.517  25.480  21.533  0.00  0.00    +0.000 A 
ATOM     12  O   UNL     1      29.640  24.232  20.918  0.00  0.00    +0.000 OA
ATOM     13  C   UNL     1      29.229  26.614  20.781  0.00  0.00    +0.000 A 
ENDBRANCH   1  10
BRANCH   5  14
ATOM     14  C   UNL     1      27.635  23.414  24.097  0.00  0.00    +0.000 C 
ATOM     15  O   UNL     1      26.918  23.036  23.153  0.00  0.00    +0.000 OA
BRANCH  14  16
ATOM     16  C   UNL     1      26.880  23.918  25.268  0.00  0.00    +0.000 A 
ATOM     17  C   UNL     1      26.793  23.196  26.436  0.00  0.00    +0.000 A 
ATOM     18  C   UNL     1      26.110  23.653  27.540  0.00  0.00    +0.000 A 
ATOM     19  C   UNL     1      25.493  24.882  27.465  0.00  0.00    +0.000 A 
ATOM     20  C   UNL     1      25.572  25.605  26.317  0.00  0.00    +0.000 A 
ATOM     21  C   UNL     1      26.260  25.137  25.210  0.00  0.00    +0.000 A 
ATOM     22  C   UNL     1      26.251  26.019  24.020  0.00  0.00    +0.000 C 
ENDBRANCH  14  16
ENDBRANCH   5  14
TORSDOF 3
ENDMDL
MODEL 8
REMARK VINA RESULT:      -6.3     21.306     22.832
REMARK  Name = 
REMARK  3 active torsions:
REMARK  status: ('A' for Active; 'I' for Inactive)
REMARK    1  A    between atoms: C_5  and  C_6
REMARK    2  A    between atoms: C_10  and  C_11
REMARK    3  A    between atoms: C_11  and  C_13
REMARK                            x       y       z     vdW  Elec       q    Type
REMARK                         _______ _______ _______ _____ _____    ______ ____
ROOT
ATOM      1  C   UNL     1      18.043  10.643  38.124  0.00  0.00    +0.000 A 
ATOM      2  N   UNL     1      17.503   9.909  39.147  0.00  0.00    +0.000 NA
ATOM      3  N   UNL     1      16.209  10.048  39.130  0.00  0.00    +0.000 NA
ATOM      4  C   UNL     1      15.862  10.855  38.124  0.00  0.00    +0.000 A 
ATOM      5  C   UNL     1      17.027  11.260  37.451  0.00  0.00    +0.000 A 
ENDROOT
BRANCH   1  10
ATOM      6  C   UNL     1      23.688  10.830  36.839  0.00  0.00    +0.000 C 
ATOM      7  C   UNL     1      22.239  10.766  37.157  0.00  0.00    +0.000 A 
ATOM      8  C   UNL     1      21.700  11.619  38.098  0.00  0.00    +0.000 A 
ATOM      9  C   UNL     1      20.363  11.572  38.403  0.00  0.00    +0.000 A 
ATOM     10  C   UNL     1      19.481  10.719  37.832  0.00  0.00    +0.000 A 
ATOM     11  C   UNL     1      20.023   9.854  36.879  0.00  0.00    +0.000 A 
ATOM     12  O   UNL     1      19.160   8.950  36.256  0.00  0.00    +0.000 OA
ATOM     13  C   UNL     1      21.375   9.881  36.552  0.00  0.00    +0.000 A 
ENDBRANCH   1  10
BRANCH   5  14
ATOM     14  C   UNL     1      17.080  12.148  36.302  0.00  0.00    +0.000 C 
ATOM     15  O   UNL     1      17.496  13.320  36.286  0.00  0.00    +0.000 OA
BRANCH  14  16
ATOM     16  C   UNL     1      16.604  11.655  34.989  0.00  0.00    +0.000 A 
ATOM     17  C   UNL     1      17.377  10.832  34.204  0.00  0.00    +0.000 A 
ATOM     18  C   UNL     1      16.947  10.350  32.988  0.00  0.00    +0.000 A 
ATOM     19  C   UNL     1      15.692  10.711  32.548  0.00  0.00    +0.000 A 
ATOM     20  C   UNL     1      14.918  11.523  33.315  0.00  0.00    +0.000 A 
ATOM     21  C   UNL     1      15.360  12.004  34.537  0.00  0.00    +0.000 A 
ATOM     22  C   UNL     1      14.422  12.894  35.260  0.00  0.00    +0.000 C 
ENDBRANCH  14  16
ENDBRANCH   5  14
TORSDOF 3
ENDMDL
MODEL 9
REMARK VINA RESULT:      -6.2     15.450     18.081
REMARK  Name = 
REMARK  3 active torsions:
REMARK  status: ('A' for Active; 'I' for Inactive)
REMARK    1  A    between atoms: C_5  and  C_6
REMARK    2  A    between atoms: C_10  and  C_11
REMARK    3  A    between atoms: C_11  and  C_13
REMARK                            x       y       z     vdW  Elec       q    Type
REMARK                         _______ _______ _______ _____ _____    ______ ____
ROOT
ATOM      1  C   UNL     1       9.829  23.660  22.037  0.00  0.00    +0.000 A 
ATOM      2  N   UNL     1       8.877  23.968  22.972  0.00  0.00    +0.000 NA
ATOM      3  N   UNL     1       8.961  25.235  23.259  0.00  0.00    +0.000 NA
ATOM      4  C   UNL     1       9.942  25.789  22.544  0.00  0.00    +0.000 A 
ATOM      5  C   UNL     1      10.527  24.796  21.740  0.00  0.00    +0.000 A 
ENDROOT
BRANCH   1  10
ATOM      6  C   UNL     1      10.525  18.427  19.653  0.00  0.00    +0.000 C 
ATOM      7  C   UNL     1      10.334  19.774  20.250  0.00  0.00    +0.000 A 
ATOM      8  C   UNL     1      10.929  20.085  21.454  0.00  0.00    +0.000 A 
ATOM      9  C   UNL     1      10.762  21.324  22.019  0.00  0.00    +0.000 A 
ATOM     10  C   UNL     1      10.026  22.319  21.469  0.00  0.00    +0.000 A 
ATOM     11  C   UNL     1       9.422  22.006  20.250  0.00  0.00    +0.000 A 
ATOM     12  O   UNL     1       8.649  22.994  19.636  0.00  0.00    +0.000 OA
ATOM     13  C   UNL     1       9.576  20.758  19.657  0.00  0.00    +0.000 A 
ENDBRANCH   1  10
BRANCH   5  14
ATOM     14  C   UNL     1      11.634  24.991  20.819  0.00  0.00    +0.000 C 
ATOM     15  O   UNL     1      11.719  25.857  19.930  0.00  0.00    +0.000 OA
BRANCH  14  16
ATOM     16  C   UNL     1      12.811  24.095  20.908  0.00  0.00    +0.000 A 
ATOM     17  C   UNL     1      13.019  23.086  19.998  0.00  0.00    +0.000 A 
ATOM     18  C   UNL     1      14.113  22.252  20.054  0.00  0.00    +0.000 A 
ATOM     19  C   UNL     1      15.031  22.444  21.063  0.00  0.00    +0.000 A 
ATOM     20  C   UNL     1      14.836  23.439  21.968  0.00  0.00    +0.000 A 
ATOM     21  C   UNL     1      13.731  24.272  21.905  0.00  0.00    +0.000 A 
ATOM     22  C   UNL     1      13.635  25.302  22.966  0.00  0.00    +0.000 C 
ENDBRANCH  14  16
ENDBRANCH   5  14
TORSDOF 3
ENDMDL
MODEL 10
REMARK VINA RESULT:      -6.2     21.862     24.507
REMARK  Name = 
REMARK  3 active torsions:
REMARK  status: ('A' for Active; 'I' for Inactive)
REMARK    1  A    between atoms: C_5  and  C_6
REMARK    2  A    between atoms: C_10  and  C_11
REMARK    3  A    between atoms: C_11  and  C_13
REMARK                            x       y       z     vdW  Elec       q    Type
REMARK                         _______ _______ _______ _____ _____    ______ ____
ROOT
ATOM      1  C   UNL     1      18.786  10.602  37.543  0.00  0.00    +0.000 A 
ATOM      2  N   UNL     1      17.903  10.994  36.572  0.00  0.00    +0.000 NA
ATOM      3  N   UNL     1      16.690  10.863  37.026  0.00  0.00    +0.000 NA
ATOM      4  C   UNL     1      16.731  10.392  38.274  0.00  0.00    +0.000 A 
ATOM      5  C   UNL     1      18.075  10.211  38.642  0.00  0.00    +0.000 A 
ENDROOT
BRANCH   1  10
ATOM      6  C   UNL     1      24.553  10.814  37.040  0.00  0.00    +0.000 C 
ATOM      7  C   UNL     1      23.074  10.778  37.178  0.00  0.00    +0.000 A 
ATOM      8  C   UNL     1      22.354   9.744  36.616  0.00  0.00    +0.000 A 
ATOM      9  C   UNL     1      20.988   9.696  36.733  0.00  0.00    +0.000 A 
ATOM     10  C   UNL     1      20.247  10.621  37.387  0.00  0.00    +0.000 A 
ATOM     11  C   UNL     1      20.973  11.669  37.957  0.00  0.00    +0.000 A 
ATOM     12  O   UNL     1      20.261  12.655  38.644  0.00  0.00    +0.000 OA
ATOM     13  C   UNL     1      22.358  11.741  37.851  0.00  0.00    +0.000 A 
ENDBRANCH   1  10
BRANCH   5  14
ATOM     14  C   UNL     1      18.546   9.708  39.921  0.00  0.00    +0.000 C 
ATOM     15  O   UNL     1      19.299  10.293  40.720  0.00  0.00    +0.000 OA
BRANCH  14  16
ATOM     16  C   UNL     1      18.112   8.364  40.370  0.00  0.00    +0.000 A 
ATOM     17  C   UNL     1      18.771   7.224  39.974  0.00  0.00    +0.000 A 
ATOM     18  C   UNL     1      18.394   5.968  40.392  0.00  0.00    +0.000 A 
ATOM     19  C   UNL     1      17.314   5.857  41.240  0.00  0.00    +0.000 A 
ATOM     20  C   UNL     1      16.656   6.977  41.639  0.00  0.00    +0.000 A 
ATOM     21  C   UNL     1      17.041   8.237  41.212  0.00  0.00    +0.000 A 
ATOM     22  C   UNL     1      16.224   9.369  41.710  0.00  0.00    +0.000 C 
ENDBRANCH  14  16
ENDBRANCH   5  14
TORSDOF 3
ENDMDL
