MODEL 1
REMARK VINA RESULT:      -7.6      0.000      0.000
REMARK  Name = 
REMARK  3 active torsions:
REMARK  status: ('A' for Active; 'I' for Inactive)
REMARK    1  A    between atoms: N_7  and  C_8
REMARK    2  A    between atoms: C_8  and  C_9
REMARK    3  A    between atoms: C_12  and  C_13
REMARK                            x       y       z     vdW  Elec       q    Type
REMARK                         _______ _______ _______ _____ _____    ______ ____
ROOT
ATOM      1  C   UNL     1      17.322  10.244  36.024  0.00  0.00    +0.000 A 
ATOM      2  C   UNL     1      17.690  10.050  34.709  0.00  0.00    +0.000 A 
ATOM      3  C   UNL     1      17.005  10.659  33.664  0.00  0.00    +0.000 A 
ATOM      4  C   UNL     1      15.928  11.485  33.910  0.00  0.00    +0.000 A 
ATOM      5  C   UNL     1      15.565  11.676  35.224  0.00  0.00    +0.000 A 
ATOM      6  C   UNL     1      16.253  11.064  36.276  0.00  0.00    +0.000 A 
ENDROOT
BRANCH   4   7
ATOM      7  C   UNL     1      15.189  12.140  32.827  0.00  0.00    +0.000 A 
ATOM      8  C   UNL     1      14.383  13.235  33.068  0.00  0.00    +0.000 A 
ATOM      9  C   UNL     1      13.675  13.878  32.082  0.00  0.00    +0.000 A 
ATOM     10  C   UNL     1      13.764  13.419  30.790  0.00  0.00    +0.000 A 
ATOM     11  C   UNL     1      14.571  12.316  30.524  0.00  0.00    +0.000 A 
ATOM     12  C   UNL     1      15.270  11.691  31.533  0.00  0.00    +0.000 A 
ENDBRANCH   4   7
BRANCH   1  13
ATOM     13  C   UNL     1      18.116   9.551  37.056  0.00  0.00    +0.000 C 
BRANCH  13  20
ATOM     14  O   UNL     1      18.421   7.935  39.370  0.00  0.00    +0.000 OA
ATOM     15  S   UNL     1      18.978   9.302  39.450  0.00  0.00    +0.000 S 
ATOM     16  O   UNL     1      18.953   9.896  40.810  0.00  0.00    +0.000 OA
ATOM     17  N   UNL     1      20.625   9.360  38.861  0.00  0.00    +0.000 NA
ATOM     18  C   UNL     1      20.443  10.151  37.642  0.00  0.00    +0.000 C 
ATOM     19  C   UNL     1      19.417  11.221  38.003  0.00  0.00    +0.000 C 
ATOM     20  N   UNL     1      18.247  10.365  38.269  0.00  0.00    +0.000 NA
ENDBRANCH  13  20
ENDBRANCH   1  13
TORSDOF 3
ENDMDL
MODEL 2
REMARK VINA RESULT:      -7.4      1.635      2.091
REMARK  Name = 
REMARK  3 active torsions:
REMARK  status: ('A' for Active; 'I' for Inactive)
REMARK    1  A    between atoms: N_7  and  C_8
REMARK    2  A    between atoms: C_8  and  C_9
REMARK    3  A    between atoms: C_12  and  C_13
REMARK                            x       y       z     vdW  Elec       q    Type
REMARK                         _______ _______ _______ _____ _____    ______ ____
ROOT
ATOM      1  C   UNL     1      16.775  10.689  36.613  0.00  0.00    +0.000 A 
ATOM      2  C   UNL     1      15.635  11.465  36.645  0.00  0.00    +0.000 A 
ATOM      3  C   UNL     1      15.062  11.964  35.481  0.00  0.00    +0.000 A 
ATOM      4  C   UNL     1      15.618  11.697  34.248  0.00  0.00    +0.000 A 
ATOM      5  C   UNL     1      16.755  10.921  34.221  0.00  0.00    +0.000 A 
ATOM      6  C   UNL     1      17.333  10.419  35.391  0.00  0.00    +0.000 A 
ENDROOT
BRANCH   4   7
ATOM      7  C   UNL     1      15.032  12.210  33.005  0.00  0.00    +0.000 A 
ATOM      8  C   UNL     1      14.256  13.352  32.995  0.00  0.00    +0.000 A 
ATOM      9  C   UNL     1      13.690  13.866  31.854  0.00  0.00    +0.000 A 
ATOM     10  C   UNL     1      13.898  13.221  30.659  0.00  0.00    +0.000 A 
ATOM     11  C   UNL     1      14.677  12.067  30.645  0.00  0.00    +0.000 A 
ATOM     12  C   UNL     1      15.233  11.575  31.806  0.00  0.00    +0.000 A 
ENDBRANCH   4   7
BRANCH   1  13
ATOM     13  C   UNL     1      17.301  10.210  37.905  0.00  0.00    +0.000 C 
BRANCH  13  20
ATOM     14  O   UNL     1      19.421  12.094  38.040  0.00  0.00    +0.000 OA
ATOM     15  S   UNL     1      19.759  10.703  38.407  0.00  0.00    +0.000 S 
ATOM     16  O   UNL     1      21.157  10.310  38.098  0.00  0.00    +0.000 OA
ATOM     17  N   UNL     1      19.472  10.398  40.106  0.00  0.00    +0.000 NA
ATOM     18  C   UNL     1      18.344   9.467  40.021  0.00  0.00    +0.000 C 
ATOM     19  C   UNL     1      18.652   8.566  38.830  0.00  0.00    +0.000 C 
ATOM     20  N   UNL     1      18.609   9.564  37.745  0.00  0.00    +0.000 NA
ENDBRANCH  13  20
ENDBRANCH   1  13
TORSDOF 3
ENDMDL
MODEL 3
REMARK VINA RESULT:      -7.0      2.194      2.959
REMARK  Name = 
REMARK  3 active torsions:
REMARK  status: ('A' for Active; 'I' for Inactive)
REMARK    1  A    between atoms: N_7  and  C_8
REMARK    2  A    between atoms: C_8  and  C_9
REMARK    3  A    between atoms: C_12  and  C_13
REMARK                            x       y       z     vdW  Elec       q    Type
REMARK                         _______ _______ _______ _____ _____    ______ ____
ROOT
ATOM      1  C   UNL     1      17.407  10.097  38.174  0.00  0.00    +0.000 A 
ATOM      2  C   UNL     1      18.088   9.606  37.080  0.00  0.00    +0.000 A 
ATOM      3  C   UNL     1      17.695   9.905  35.781  0.00  0.00    +0.000 A 
ATOM      4  C   UNL     1      16.601  10.711  35.542  0.00  0.00    +0.000 A 
ATOM      5  C   UNL     1      15.923  11.199  36.637  0.00  0.00    +0.000 A 
ATOM      6  C   UNL     1      16.319  10.898  37.944  0.00  0.00    +0.000 A 
ENDROOT
BRANCH   4   7
ATOM      7  C   UNL     1      16.165  11.043  34.183  0.00  0.00    +0.000 A 
ATOM      8  C   UNL     1      16.700  10.406  33.081  0.00  0.00    +0.000 A 
ATOM      9  C   UNL     1      16.320  10.687  31.791  0.00  0.00    +0.000 A 
ATOM     10  C   UNL     1      15.362  11.648  31.574  0.00  0.00    +0.000 A 
ATOM     11  C   UNL     1      14.808  12.304  32.671  0.00  0.00    +0.000 A 
ATOM     12  C   UNL     1      15.209  12.000  33.953  0.00  0.00    +0.000 A 
ENDBRANCH   4   7
BRANCH   1  13
ATOM     13  C   UNL     1      17.908   9.717  39.508  0.00  0.00    +0.000 C 
BRANCH  13  20
ATOM     14  O   UNL     1      18.707   6.996  39.615  0.00  0.00    +0.000 OA
ATOM     15  S   UNL     1      17.809   7.455  40.695  0.00  0.00    +0.000 S 
ATOM     16  O   UNL     1      16.899   6.408  41.225  0.00  0.00    +0.000 OA
ATOM     17  N   UNL     1      18.709   8.123  42.039  0.00  0.00    +0.000 NA
ATOM     18  C   UNL     1      18.328   9.534  41.938  0.00  0.00    +0.000 C 
ATOM     19  C   UNL     1      16.849   9.528  41.564  0.00  0.00    +0.000 C 
ATOM     20  N   UNL     1      16.932   8.897  40.234  0.00  0.00    +0.000 NA
ENDBRANCH  13  20
ENDBRANCH   1  13
TORSDOF 3
ENDMDL
MODEL 4
REMARK VINA RESULT:      -6.9      1.805      2.201
REMARK  Name = 
REMARK  3 active torsions:
REMARK  status: ('A' for Active; 'I' for Inactive)
REMARK    1  A    between atoms: N_7  and  C_8
REMARK    2  A    between atoms: C_8  and  C_9
REMARK    3  A    between atoms: C_12  and  C_13
REMARK                            x       y       z     vdW  Elec       q    Type
REMARK                         _______ _______ _______ _____ _____    ______ ____
ROOT
ATOM      1  C   UNL     1      17.229  10.207  37.512  0.00  0.00    +0.000 A 
ATOM      2  C   UNL     1      17.847   9.685  36.395  0.00  0.00    +0.000 A 
ATOM      3  C   UNL     1      17.436  10.022  35.110  0.00  0.00    +0.000 A 
ATOM      4  C   UNL     1      16.389  10.896  34.910  0.00  0.00    +0.000 A 
ATOM      5  C   UNL     1      15.775  11.415  36.028  0.00  0.00    +0.000 A 
ATOM      6  C   UNL     1      16.188  11.077  37.320  0.00  0.00    +0.000 A 
ENDROOT
BRANCH   4   7
ATOM      7  C   UNL     1      15.936  11.270  33.567  0.00  0.00    +0.000 A 
ATOM      8  C   UNL     1      15.014  12.279  33.375  0.00  0.00    +0.000 A 
ATOM      9  C   UNL     1      14.563  12.660  32.134  0.00  0.00    +0.000 A 
ATOM     10  C   UNL     1      15.046  12.012  31.023  0.00  0.00    +0.000 A 
ATOM     11  C   UNL     1      15.977  10.990  31.192  0.00  0.00    +0.000 A 
ATOM     12  C   UNL     1      16.410  10.630  32.449  0.00  0.00    +0.000 A 
ENDBRANCH   4   7
BRANCH   1  13
ATOM     13  C   UNL     1      17.744   9.783  38.828  0.00  0.00    +0.000 C 
BRANCH  13  20
ATOM     14  O   UNL     1      20.178  11.179  39.257  0.00  0.00    +0.000 OA
ATOM     15  S   UNL     1      20.205   9.725  39.517  0.00  0.00    +0.000 S 
ATOM     16  O   UNL     1      21.517   9.079  39.258  0.00  0.00    +0.000 OA
ATOM     17  N   UNL     1      19.734   9.358  41.162  0.00  0.00    +0.000 NA
ATOM     18  C   UNL     1      18.454   8.685  40.927  0.00  0.00    +0.000 C 
ATOM     19  C   UNL     1      18.667   7.833  39.680  0.00  0.00    +0.000 C 
ATOM     20  N   UNL     1      18.906   8.897  38.688  0.00  0.00    +0.000 NA
ENDBRANCH  13  20
ENDBRANCH   1  13
TORSDOF 3
ENDMDL
MODEL 5
REMARK VINA RESULT:      -6.7     18.716     19.941
REMARK  Name = 
REMARK  3 active torsions:
REMARK  status: ('A' for Active; 'I' for Inactive)
REMARK    1  A    between atoms: N_7  and  C_8
REMARK    2  A    between atoms: C_8  and  C_9
REMARK    3  A    between atoms: C_12  and  C_13
REMARK                            x       y       z     vdW  Elec       q    Type
REMARK                         _______ _______ _______ _____ _____    ______ ____
ROOT
ATOM      1  C   UNL     1      34.076   3.801  35.291  0.00  0.00    +0.000 A 
ATOM      2  C   UNL     1      33.741   3.332  34.038  0.00  0.00    +0.000 A 
ATOM      3  C   UNL     1      33.463   1.989  33.813  0.00  0.00    +0.000 A 
ATOM      4  C   UNL     1      33.513   1.075  34.844  0.00  0.00    +0.000 A 
ATOM      5  C   UNL     1      33.848   1.547  36.094  0.00  0.00    +0.000 A 
ATOM      6  C   UNL     1      34.128   2.898  36.321  0.00  0.00    +0.000 A 
ENDROOT
BRANCH   4   7
ATOM      7  C   UNL     1      33.224  -0.347  34.635  0.00  0.00    +0.000 A 
ATOM      8  C   UNL     1      33.884  -1.079  33.668  0.00  0.00    +0.000 A 
ATOM      9  C   UNL     1      33.643  -2.413  33.440  0.00  0.00    +0.000 A 
ATOM     10  C   UNL     1      32.702  -3.060  34.204  0.00  0.00    +0.000 A 
ATOM     11  C   UNL     1      32.024  -2.341  35.185  0.00  0.00    +0.000 A 
ATOM     12  C   UNL     1      32.287  -1.005  35.391  0.00  0.00    +0.000 A 
ENDBRANCH   4   7
BRANCH   1  13
ATOM     13  C   UNL     1      34.352   5.245  35.420  0.00  0.00    +0.000 C 
BRANCH  13  20
ATOM     14  O   UNL     1      37.190   5.240  35.482  0.00  0.00    +0.000 OA
ATOM     15  S   UNL     1      36.516   6.082  36.492  0.00  0.00    +0.000 S 
ATOM     16  O   UNL     1      37.257   6.216  37.772  0.00  0.00    +0.000 OA
ATOM     17  N   UNL     1      36.196   7.690  35.879  0.00  0.00    +0.000 NA
ATOM     18  C   UNL     1      34.734   7.658  35.803  0.00  0.00    +0.000 C 
ATOM     19  C   UNL     1      34.281   6.898  37.046  0.00  0.00    +0.000 C 
ATOM     20  N   UNL     1      34.863   5.575  36.755  0.00  0.00    +0.000 NA
ENDBRANCH  13  20
ENDBRANCH   1  13
TORSDOF 3
ENDMDL
MODEL 6
REMARK VINA RESULT:      -6.6     20.279     21.425
REMARK  Name = 
REMARK  3 active torsions:
REMARK  status: ('A' for Active; 'I' for Inactive)
REMARK    1  A    between atoms: N_7  and  C_8
REMARK    2  A    between atoms: C_8  and  C_9
REMARK    3  A    between atoms: C_12  and  C_13
REMARK                            x       y       z     vdW  Elec       q    Type
REMARK                         _______ _______ _______ _____ _____    ______ ____
ROOT
ATOM      1  C   UNL     1      29.244  22.837  25.155  0.00  0.00    +0.000 A 
ATOM      2  C   UNL     1      30.611  22.973  25.275  0.00  0.00    +0.000 A 
ATOM      3  C   UNL     1      31.258  22.783  26.490  0.00  0.00    +0.000 A 
ATOM      4  C   UNL     1      30.548  22.448  27.624  0.00  0.00    +0.000 A 
ATOM      5  C   UNL     1      29.183  22.313  27.500  0.00  0.00    +0.000 A 
ATOM      6  C   UNL     1      28.532  22.504  26.278  0.00  0.00    +0.000 A 
ENDROOT
BRANCH   4   7
ATOM      7  C   UNL     1      31.205  22.240  28.918  0.00  0.00    +0.000 A 
ATOM      8  C   UNL     1      32.451  21.651  29.004  0.00  0.00    +0.000 A 
ATOM      9  C   UNL     1      33.102  21.438  30.195  0.00  0.00    +0.000 A 
ATOM     10  C   UNL     1      32.493  21.826  31.364  0.00  0.00    +0.000 A 
ATOM     11  C   UNL     1      31.236  22.422  31.302  0.00  0.00    +0.000 A 
ATOM     12  C   UNL     1      30.608  22.622  30.093  0.00  0.00    +0.000 A 
ENDBRANCH   4   7
BRANCH   1  13
ATOM     13  C   UNL     1      28.658  23.061  23.820  0.00  0.00    +0.000 C 
BRANCH  13  20
ATOM     14  O   UNL     1      29.345  24.019  21.238  0.00  0.00    +0.000 OA
ATOM     15  S   UNL     1      28.216  24.699  21.907  0.00  0.00    +0.000 S 
ATOM     16  O   UNL     1      28.067  26.133  21.555  0.00  0.00    +0.000 OA
ATOM     17  N   UNL     1      26.696  23.897  21.574  0.00  0.00    +0.000 NA
ATOM     18  C   UNL     1      26.381  23.365  22.902  0.00  0.00    +0.000 C 
ATOM     19  C   UNL     1      26.803  24.453  23.885  0.00  0.00    +0.000 C 
ATOM     20  N   UNL     1      28.257  24.461  23.640  0.00  0.00    +0.000 NA
ENDBRANCH  13  20
ENDBRANCH   1  13
TORSDOF 3
ENDMDL
MODEL 7
REMARK VINA RESULT:      -6.5      3.461      4.716
REMARK  Name = 
REMARK  3 active torsions:
REMARK  status: ('A' for Active; 'I' for Inactive)
REMARK    1  A    between atoms: N_7  and  C_8
REMARK    2  A    between atoms: C_8  and  C_9
REMARK    3  A    between atoms: C_12  and  C_13
REMARK                            x       y       z     vdW  Elec       q    Type
REMARK                         _______ _______ _______ _____ _____    ______ ____
ROOT
ATOM      1  C   UNL     1      20.313  10.348  37.453  0.00  0.00    +0.000 A 
ATOM      2  C   UNL     1      19.485   9.658  36.592  0.00  0.00    +0.000 A 
ATOM      3  C   UNL     1      18.153  10.015  36.420  0.00  0.00    +0.000 A 
ATOM      4  C   UNL     1      17.612  11.080  37.110  0.00  0.00    +0.000 A 
ATOM      5  C   UNL     1      18.442  11.766  37.968  0.00  0.00    +0.000 A 
ATOM      6  C   UNL     1      19.783  11.407  38.141  0.00  0.00    +0.000 A 
ENDROOT
BRANCH   4   7
ATOM      7  C   UNL     1      16.211  11.479  36.946  0.00  0.00    +0.000 A 
ATOM      8  C   UNL     1      15.800  12.229  35.863  0.00  0.00    +0.000 A 
ATOM      9  C   UNL     1      14.498  12.623  35.672  0.00  0.00    +0.000 A 
ATOM     10  C   UNL     1      13.549  12.260  36.597  0.00  0.00    +0.000 A 
ATOM     11  C   UNL     1      13.941  11.503  37.699  0.00  0.00    +0.000 A 
ATOM     12  C   UNL     1      15.255  11.122  37.863  0.00  0.00    +0.000 A 
ENDBRANCH   4   7
BRANCH   1  13
ATOM     13  C   UNL     1      21.710   9.885  37.561  0.00  0.00    +0.000 C 
BRANCH  13  20
ATOM     14  O   UNL     1      23.640  10.581  39.522  0.00  0.00    +0.000 OA
ATOM     15  S   UNL     1      24.040  10.781  38.113  0.00  0.00    +0.000 S 
ATOM     16  O   UNL     1      24.984  11.906  37.896  0.00  0.00    +0.000 OA
ATOM     17  N   UNL     1      24.755   9.333  37.437  0.00  0.00    +0.000 NA
ATOM     18  C   UNL     1      23.724   8.958  36.465  0.00  0.00    +0.000 C 
ATOM     19  C   UNL     1      23.241  10.272  35.861  0.00  0.00    +0.000 C 
ATOM     20  N   UNL     1      22.649  10.895  37.059  0.00  0.00    +0.000 NA
ENDBRANCH  13  20
ENDBRANCH   1  13
TORSDOF 3
ENDMDL
MODEL 8
REMARK VINA RESULT:      -6.4     22.118     23.339
REMARK  Name = 
REMARK  3 active torsions:
REMARK  status: ('A' for Active; 'I' for Inactive)
REMARK    1  A    between atoms: N_7  and  C_8
REMARK    2  A    between atoms: C_8  and  C_9
REMARK    3  A    between atoms: C_12  and  C_13
REMARK                            x       y       z     vdW  Elec       q    Type
REMARK                         _______ _______ _______ _____ _____    ______ ____
ROOT
ATOM      1  C   UNL     1      23.965  -7.505  23.879  0.00  0.00    +0.000 A 
ATOM      2  C   UNL     1      23.306  -8.514  24.549  0.00  0.00    +0.000 A 
ATOM      3  C   UNL     1      22.094  -8.292  25.192  0.00  0.00    +0.000 A 
ATOM      4  C   UNL     1      21.505  -7.045  25.179  0.00  0.00    +0.000 A 
ATOM      5  C   UNL     1      22.166  -6.040  24.509  0.00  0.00    +0.000 A 
ATOM      6  C   UNL     1      23.386  -6.263  23.862  0.00  0.00    +0.000 A 
ENDROOT
BRANCH   4   7
ATOM      7  C   UNL     1      20.227  -6.783  25.847  0.00  0.00    +0.000 A 
ATOM      8  C   UNL     1      19.463  -7.811  26.363  0.00  0.00    +0.000 A 
ATOM      9  C   UNL     1      18.261  -7.610  26.996  0.00  0.00    +0.000 A 
ATOM     10  C   UNL     1      17.784  -6.328  27.128  0.00  0.00    +0.000 A 
ATOM     11  C   UNL     1      18.538  -5.275  26.615  0.00  0.00    +0.000 A 
ATOM     12  C   UNL     1      19.741  -5.508  25.985  0.00  0.00    +0.000 A 
ENDBRANCH   4   7
BRANCH   1  13
ATOM     13  C   UNL     1      25.245  -7.848  23.232  0.00  0.00    +0.000 C 
BRANCH  13  20
ATOM     14  O   UNL     1      24.662  -9.509  21.005  0.00  0.00    +0.000 OA
ATOM     15  S   UNL     1      25.738  -9.977  21.904  0.00  0.00    +0.000 S 
ATOM     16  O   UNL     1      25.865 -11.453  21.993  0.00  0.00    +0.000 OA
ATOM     17  N   UNL     1      27.294  -9.324  21.438  0.00  0.00    +0.000 NA
ATOM     18  C   UNL     1      27.556  -8.431  22.570  0.00  0.00    +0.000 C 
ATOM     19  C   UNL     1      27.057  -9.181  23.801  0.00  0.00    +0.000 C 
ATOM     20  N   UNL     1      25.617  -9.244  23.488  0.00  0.00    +0.000 NA
ENDBRANCH  13  20
ENDBRANCH   1  13
TORSDOF 3
ENDMDL
MODEL 9
REMARK VINA RESULT:      -6.2     21.132     22.294
REMARK  Name = 
REMARK  3 active torsions:
REMARK  status: ('A' for Active; 'I' for Inactive)
REMARK    1  A    between atoms: N_7  and  C_8
REMARK    2  A    between atoms: C_8  and  C_9
REMARK    3  A    between atoms: C_12  and  C_13
REMARK                            x       y       z     vdW  Elec       q    Type
REMARK                         _______ _______ _______ _____ _____    ______ ____
ROOT
ATOM      1  C   UNL     1      22.425   2.690  16.841  0.00  0.00    +0.000 A 
ATOM      2  C   UNL     1      22.641   3.182  18.110  0.00  0.00    +0.000 A 
ATOM      3  C   UNL     1      23.712   4.022  18.393  0.00  0.00    +0.000 A 
ATOM      4  C   UNL     1      24.599   4.394  17.405  0.00  0.00    +0.000 A 
ATOM      5  C   UNL     1      24.379   3.900  16.138  0.00  0.00    +0.000 A 
ATOM      6  C   UNL     1      23.302   3.055  15.853  0.00  0.00    +0.000 A 
ENDROOT
BRANCH   4   7
ATOM      7  C   UNL     1      25.736   5.279  17.675  0.00  0.00    +0.000 A 
ATOM      8  C   UNL     1      26.561   5.076  18.764  0.00  0.00    +0.000 A 
ATOM      9  C   UNL     1      27.636   5.881  19.053  0.00  0.00    +0.000 A 
ATOM     10  C   UNL     1      27.913   6.944  18.227  0.00  0.00    +0.000 A 
ATOM     11  C   UNL     1      27.094   7.168  17.124  0.00  0.00    +0.000 A 
ATOM     12  C   UNL     1      26.023   6.344  16.859  0.00  0.00    +0.000 A 
ENDBRANCH   4   7
BRANCH   1  13
ATOM     13  C   UNL     1      21.259   1.806  16.649  0.00  0.00    +0.000 C 
BRANCH  13  20
ATOM     14  O   UNL     1      21.401  -0.598  15.146  0.00  0.00    +0.000 OA
ATOM     15  S   UNL     1      20.326   0.345  14.771  0.00  0.00    +0.000 S 
ATOM     16  O   UNL     1      19.958   0.315  13.333  0.00  0.00    +0.000 OA
ATOM     17  N   UNL     1      18.874   0.069  15.709  0.00  0.00    +0.000 NA
ATOM     18  C   UNL     1      18.844   1.292  16.515  0.00  0.00    +0.000 C 
ATOM     19  C   UNL     1      19.292   2.407  15.576  0.00  0.00    +0.000 C 
ATOM     20  N   UNL     1      20.676   1.971  15.313  0.00  0.00    +0.000 NA
ENDBRANCH  13  20
ENDBRANCH   1  13
TORSDOF 3
ENDMDL
MODEL 10
REMARK VINA RESULT:      -6.2      3.020      4.033
REMARK  Name = 
REMARK  3 active torsions:
REMARK  status: ('A' for Active; 'I' for Inactive)
REMARK    1  A    between atoms: N_7  and  C_8
REMARK    2  A    between atoms: C_8  and  C_9
REMARK    3  A    between atoms: C_12  and  C_13
REMARK                            x       y       z     vdW  Elec       q    Type
REMARK                         _______ _______ _______ _____ _____    ______ ____
ROOT
ATOM      1  C   UNL     1      17.989   9.328  39.310  0.00  0.00    +0.000 A 
ATOM      2  C   UNL     1      16.873  10.129  39.194  0.00  0.00    +0.000 A 
ATOM      3  C   UNL     1      16.423  10.577  37.958  0.00  0.00    +0.000 A 
ATOM      4  C   UNL     1      17.083  10.231  36.797  0.00  0.00    +0.000 A 
ATOM      5  C   UNL     1      18.196   9.430  36.917  0.00  0.00    +0.000 A 
ATOM      6  C   UNL     1      18.650   8.979  38.160  0.00  0.00    +0.000 A 
ENDROOT
BRANCH   4   7
ATOM      7  C   UNL     1      16.628  10.688  35.481  0.00  0.00    +0.000 A 
ATOM      8  C   UNL     1      15.598  11.599  35.353  0.00  0.00    +0.000 A 
ATOM      9  C   UNL     1      15.143  12.053  34.139  0.00  0.00    +0.000 A 
ATOM     10  C   UNL     1      15.732  11.586  32.989  0.00  0.00    +0.000 A 
ATOM     11  C   UNL     1      16.773  10.667  33.094  0.00  0.00    +0.000 A 
ATOM     12  C   UNL     1      17.209  10.230  34.325  0.00  0.00    +0.000 A 
ENDBRANCH   4   7
BRANCH   1  13
ATOM     13  C   UNL     1      18.382   8.909  40.668  0.00  0.00    +0.000 C 
BRANCH  13  20
ATOM     14  O   UNL     1      16.900   6.510  40.994  0.00  0.00    +0.000 OA
ATOM     15  S   UNL     1      16.862   7.459  42.126  0.00  0.00    +0.000 S 
ATOM     16  O   UNL     1      15.598   7.437  42.904  0.00  0.00    +0.000 OA
ATOM     17  N   UNL     1      18.188   7.188  43.236  0.00  0.00    +0.000 NA
ATOM     18  C   UNL     1      18.969   8.408  43.018  0.00  0.00    +0.000 C 
ATOM     19  C   UNL     1      17.941   9.524  42.862  0.00  0.00    +0.000 C 
ATOM     20  N   UNL     1      17.279   9.081  41.621  0.00  0.00    +0.000 NA
ENDBRANCH  13  20
ENDBRANCH   1  13
TORSDOF 3
ENDMDL
