MODEL 1
REMARK VINA RESULT:      -8.8      0.000      0.000
REMARK  Name = 
REMARK  7 active torsions:
REMARK  status: ('A' for Active; 'I' for Inactive)
REMARK    1  A    between atoms: C_8  and  C_9
REMARK    2  A    between atoms: C_11  and  C_12
REMARK    3  A    between atoms: N_20  and  C_21
REMARK    4  A    between atoms: N_20  and  C_29
REMARK    5  A    between atoms: C_21  and  C_22
REMARK    6  A    between atoms: C_22  and  C_23
REMARK    7  A    between atoms: C_29  and  C_30
REMARK                            x       y       z     vdW  Elec       q    Type
REMARK                         _______ _______ _______ _____ _____    ______ ____
ROOT
ATOM      1  C   UNL     1      36.288   4.980  13.628  0.00  0.00    +0.000 A 
ATOM      2  C   UNL     1      37.181   5.481  14.547  0.00  0.00    +0.000 A 
ATOM      3  C   UNL     1      37.771   4.679  15.506  0.00  0.00    +0.000 A 
ATOM      4  C   UNL     1      37.422   3.347  15.497  0.00  0.00    +0.000 A 
ATOM      5  C   UNL     1      36.523   2.834  14.574  0.00  0.00    +0.000 A 
ATOM      6  N   UNL     1      36.181   1.431  14.593  0.00  0.00    +0.000 N 
ATOM      7  N   UNL     1      35.990   3.656  13.679  0.00  0.00    +0.000 NA
ENDROOT
BRANCH   1  15
ATOM      8  C   UNL     1      33.981   6.595  14.213  0.00  0.00    +0.000 C 
ATOM      9  C   UNL     1      34.540   6.547  12.828  0.00  0.00    +0.000 A 
ATOM     10  C   UNL     1      33.935   7.287  11.831  0.00  0.00    +0.000 A 
ATOM     11  C   UNL     1      34.450   7.255  10.543  0.00  0.00    +0.000 A 
ATOM     12  O   UNL     1      33.839   8.006   9.526  0.00  0.00    +0.000 OA
ATOM     13  C   UNL     1      35.548   6.487  10.291  0.00  0.00    +0.000 A 
ATOM     14  C   UNL     1      36.135   5.758  11.293  0.00  0.00    +0.000 A 
ATOM     15  C   UNL     1      35.638   5.774  12.590  0.00  0.00    +0.000 A 
ENDBRANCH   1  15
BRANCH   3  16
ATOM     16  C   UNL     1      38.706   5.147  16.513  0.00  0.00    +0.000 A 
ATOM     17  C   UNL     1      38.493   4.962  17.866  0.00  0.00    +0.000 A 
ATOM     18  C   UNL     1      39.404   5.429  18.769  0.00  0.00    +0.000 A 
ATOM     19  C   UNL     1      40.552   6.090  18.385  0.00  0.00    +0.000 A 
ATOM     20  C   UNL     1      40.775   6.280  17.042  0.00  0.00    +0.000 A 
ATOM     21  C   UNL     1      39.856   5.809  16.138  0.00  0.00    +0.000 A 
ENDBRANCH   3  16
BRANCH   6  22
ATOM     22  C   UNL     1      35.204   1.049  15.571  0.00  0.00    +0.000 C 
BRANCH  22  23
ATOM     23  C   UNL     1      35.610   1.326  17.000  0.00  0.00    +0.000 C 
BRANCH  23  24
ATOM     24  C   UNL     1      36.062   0.014  17.586  0.00  0.00    +0.000 A 
ATOM     25  C   UNL     1      37.012  -0.081  18.555  0.00  0.00    +0.000 A 
ATOM     26  C   UNL     1      37.428  -1.287  19.109  0.00  0.00    +0.000 A 
ATOM     27  C   UNL     1      36.841  -2.463  18.648  0.00  0.00    +0.000 A 
ATOM     28  C   UNL     1      35.882  -2.364  17.673  0.00  0.00    +0.000 A 
ATOM     29  C   UNL     1      35.470  -1.167  17.123  0.00  0.00    +0.000 A 
ENDBRANCH  23  24
ENDBRANCH  22  23
ENDBRANCH   6  22
BRANCH   6  30
ATOM     30  C   UNL     1      36.763   0.504  13.671  0.00  0.00    +0.000 C 
BRANCH  30  31
ATOM     31  C   UNL     1      37.528  -0.574  14.312  0.00  0.00    +0.000 A 
ATOM     32  C   UNL     1      38.614  -0.340  15.133  0.00  0.00    +0.000 A 
ATOM     33  C   UNL     1      39.335  -1.357  15.731  0.00  0.00    +0.000 A 
ATOM     34  C   UNL     1      38.945  -2.651  15.490  0.00  0.00    +0.000 A 
ATOM     35  C   UNL     1      37.865  -2.913  14.676  0.00  0.00    +0.000 A 
ATOM     36  C   UNL     1      37.163  -1.887  14.092  0.00  0.00    +0.000 A 
ENDBRANCH  30  31
ENDBRANCH   6  30
TORSDOF 7
ENDMDL
MODEL 2
REMARK VINA RESULT:      -8.8      2.278      5.767
REMARK  Name = 
REMARK  7 active torsions:
REMARK  status: ('A' for Active; 'I' for Inactive)
REMARK    1  A    between atoms: C_8  and  C_9
REMARK    2  A    between atoms: C_11  and  C_12
REMARK    3  A    between atoms: N_20  and  C_21
REMARK    4  A    between atoms: N_20  and  C_29
REMARK    5  A    between atoms: C_21  and  C_22
REMARK    6  A    between atoms: C_22  and  C_23
REMARK    7  A    between atoms: C_29  and  C_30
REMARK                            x       y       z     vdW  Elec       q    Type
REMARK                         _______ _______ _______ _____ _____    ______ ____
ROOT
ATOM      1  C   UNL     1      37.630   4.869  15.811  0.00  0.00    +0.000 A 
ATOM      2  C   UNL     1      37.015   5.649  14.858  0.00  0.00    +0.000 A 
ATOM      3  C   UNL     1      35.979   5.171  14.078  0.00  0.00    +0.000 A 
ATOM      4  C   UNL     1      35.588   3.869  14.301  0.00  0.00    +0.000 A 
ATOM      5  C   UNL     1      36.202   3.076  15.258  0.00  0.00    +0.000 A 
ATOM      6  N   UNL     1      35.764   1.716  15.466  0.00  0.00    +0.000 N 
ATOM      7  N   UNL     1      37.192   3.593  15.975  0.00  0.00    +0.000 NA
ENDROOT
BRANCH   1  15
ATOM      8  C   UNL     1      40.149   5.702  14.700  0.00  0.00    +0.000 C 
ATOM      9  C   UNL     1      39.932   5.714  16.179  0.00  0.00    +0.000 A 
ATOM     10  C   UNL     1      40.956   6.131  17.006  0.00  0.00    +0.000 A 
ATOM     11  C   UNL     1      40.763   6.153  18.380  0.00  0.00    +0.000 A 
ATOM     12  O   UNL     1      41.801   6.574  19.226  0.00  0.00    +0.000 OA
ATOM     13  C   UNL     1      39.558   5.759  18.884  0.00  0.00    +0.000 A 
ATOM     14  C   UNL     1      38.553   5.348  18.046  0.00  0.00    +0.000 A 
ATOM     15  C   UNL     1      38.723   5.317  16.667  0.00  0.00    +0.000 A 
ENDBRANCH   1  15
BRANCH   3  16
ATOM     16  C   UNL     1      35.301   5.936  13.048  0.00  0.00    +0.000 A 
ATOM     17  C   UNL     1      35.837   6.120  11.787  0.00  0.00    +0.000 A 
ATOM     18  C   UNL     1      35.157   6.854  10.858  0.00  0.00    +0.000 A 
ATOM     19  C   UNL     1      33.934   7.433  11.125  0.00  0.00    +0.000 A 
ATOM     20  C   UNL     1      33.390   7.256  12.376  0.00  0.00    +0.000 A 
ATOM     21  C   UNL     1      34.077   6.517  13.305  0.00  0.00    +0.000 A 
ENDBRANCH   3  16
BRANCH   6  22
ATOM     22  C   UNL     1      36.270   0.757  14.526  0.00  0.00    +0.000 C 
BRANCH  22  23
ATOM     23  C   UNL     1      37.755   0.501  14.634  0.00  0.00    +0.000 C 
BRANCH  23  24
ATOM     24  C   UNL     1      37.919  -0.935  15.062  0.00  0.00    +0.000 A 
ATOM     25  C   UNL     1      38.801  -1.331  16.019  0.00  0.00    +0.000 A 
ATOM     26  C   UNL     1      38.951  -2.652  16.428  0.00  0.00    +0.000 A 
ATOM     27  C   UNL     1      38.156  -3.624  15.826  0.00  0.00    +0.000 A 
ATOM     28  C   UNL     1      37.266  -3.222  14.863  0.00  0.00    +0.000 A 
ATOM     29  C   UNL     1      37.118  -1.910  14.458  0.00  0.00    +0.000 A 
ENDBRANCH  23  24
ENDBRANCH  22  23
ENDBRANCH   6  22
BRANCH   6  30
ATOM     30  C   UNL     1      34.910   1.360  16.557  0.00  0.00    +0.000 C 
BRANCH  30  31
ATOM     31  C   UNL     1      35.418   0.248  17.373  0.00  0.00    +0.000 A 
ATOM     32  C   UNL     1      35.014  -1.061  17.195  0.00  0.00    +0.000 A 
ATOM     33  C   UNL     1      35.489  -2.104  17.968  0.00  0.00    +0.000 A 
ATOM     34  C   UNL     1      36.403  -1.813  18.951  0.00  0.00    +0.000 A 
ATOM     35  C   UNL     1      36.824  -0.517  19.149  0.00  0.00    +0.000 A 
ATOM     36  C   UNL     1      36.338   0.504  18.369  0.00  0.00    +0.000 A 
ENDBRANCH  30  31
ENDBRANCH   6  30
TORSDOF 7
ENDMDL
MODEL 3
REMARK VINA RESULT:      -8.2      1.397      2.189
REMARK  Name = 
REMARK  7 active torsions:
REMARK  status: ('A' for Active; 'I' for Inactive)
REMARK    1  A    between atoms: C_8  and  C_9
REMARK    2  A    between atoms: C_11  and  C_12
REMARK    3  A    between atoms: N_20  and  C_21
REMARK    4  A    between atoms: N_20  and  C_29
REMARK    5  A    between atoms: C_21  and  C_22
REMARK    6  A    between atoms: C_22  and  C_23
REMARK    7  A    between atoms: C_29  and  C_30
REMARK                            x       y       z     vdW  Elec       q    Type
REMARK                         _______ _______ _______ _____ _____    ______ ____
ROOT
ATOM      1  C   UNL     1      36.390   4.922  14.334  0.00  0.00    +0.000 A 
ATOM      2  C   UNL     1      37.346   5.491  15.144  0.00  0.00    +0.000 A 
ATOM      3  C   UNL     1      38.084   4.742  16.042  0.00  0.00    +0.000 A 
ATOM      4  C   UNL     1      37.815   3.392  16.087  0.00  0.00    +0.000 A 
ATOM      5  C   UNL     1      36.854   2.811  15.274  0.00  0.00    +0.000 A 
ATOM      6  N   UNL     1      36.601   1.391  15.346  0.00  0.00    +0.000 N 
ATOM      7  N   UNL     1      36.178   3.584  14.433  0.00  0.00    +0.000 NA
ENDROOT
BRANCH   1  15
ATOM      8  C   UNL     1      37.164   5.083  11.568  0.00  0.00    +0.000 C 
ATOM      9  C   UNL     1      35.921   5.761  12.047  0.00  0.00    +0.000 A 
ATOM     10  C   UNL     1      35.147   6.465  11.146  0.00  0.00    +0.000 A 
ATOM     11  C   UNL     1      33.988   7.093  11.579  0.00  0.00    +0.000 A 
ATOM     12  O   UNL     1      33.198   7.811  10.667  0.00  0.00    +0.000 OA
ATOM     13  C   UNL     1      33.638   6.998  12.894  0.00  0.00    +0.000 A 
ATOM     14  C   UNL     1      34.419   6.294  13.774  0.00  0.00    +0.000 A 
ATOM     15  C   UNL     1      35.584   5.658  13.365  0.00  0.00    +0.000 A 
ENDBRANCH   1  15
BRANCH   3  16
ATOM     16  C   UNL     1      39.093   5.281  16.934  0.00  0.00    +0.000 A 
ATOM     17  C   UNL     1      38.949   5.271  18.309  0.00  0.00    +0.000 A 
ATOM     18  C   UNL     1      39.929   5.798  19.101  0.00  0.00    +0.000 A 
ATOM     19  C   UNL     1      41.079   6.353  18.581  0.00  0.00    +0.000 A 
ATOM     20  C   UNL     1      41.234   6.369  17.214  0.00  0.00    +0.000 A 
ATOM     21  C   UNL     1      40.247   5.837  16.424  0.00  0.00    +0.000 A 
ENDBRANCH   3  16
BRANCH   6  22
ATOM     22  C   UNL     1      35.760   0.970  16.430  0.00  0.00    +0.000 C 
BRANCH  22  23
ATOM     23  C   UNL     1      35.423  -0.503  16.422  0.00  0.00    +0.000 C 
BRANCH  23  24
ATOM     24  C   UNL     1      36.428  -1.184  17.313  0.00  0.00    +0.000 A 
ATOM     25  C   UNL     1      37.468  -1.920  16.837  0.00  0.00    +0.000 A 
ATOM     26  C   UNL     1      38.407  -2.543  17.652  0.00  0.00    +0.000 A 
ATOM     27  C   UNL     1      38.278  -2.408  19.032  0.00  0.00    +0.000 A 
ATOM     28  C   UNL     1      37.229  -1.665  19.510  0.00  0.00    +0.000 A 
ATOM     29  C   UNL     1      36.297  -1.047  18.700  0.00  0.00    +0.000 A 
ENDBRANCH  23  24
ENDBRANCH  22  23
ENDBRANCH   6  22
BRANCH   6  30
ATOM     30  C   UNL     1      37.133   0.483  14.377  0.00  0.00    +0.000 C 
BRANCH  30  31
ATOM     31  C   UNL     1      38.515   0.782  13.975  0.00  0.00    +0.000 A 
ATOM     32  C   UNL     1      39.617   0.259  14.622  0.00  0.00    +0.000 A 
ATOM     33  C   UNL     1      40.915   0.546  14.245  0.00  0.00    +0.000 A 
ATOM     34  C   UNL     1      41.104   1.389  13.177  0.00  0.00    +0.000 A 
ATOM     35  C   UNL     1      40.023   1.925  12.512  0.00  0.00    +0.000 A 
ATOM     36  C   UNL     1      38.741   1.625  12.906  0.00  0.00    +0.000 A 
ENDBRANCH  30  31
ENDBRANCH   6  30
TORSDOF 7
ENDMDL
MODEL 4
REMARK VINA RESULT:      -8.1      2.161      7.075
REMARK  Name = 
REMARK  7 active torsions:
REMARK  status: ('A' for Active; 'I' for Inactive)
REMARK    1  A    between atoms: C_8  and  C_9
REMARK    2  A    between atoms: C_11  and  C_12
REMARK    3  A    between atoms: N_20  and  C_21
REMARK    4  A    between atoms: N_20  and  C_29
REMARK    5  A    between atoms: C_21  and  C_22
REMARK    6  A    between atoms: C_22  and  C_23
REMARK    7  A    between atoms: C_29  and  C_30
REMARK                            x       y       z     vdW  Elec       q    Type
REMARK                         _______ _______ _______ _____ _____    ______ ____
ROOT
ATOM      1  C   UNL     1      35.931   5.809  13.142  0.00  0.00    +0.000 A 
ATOM      2  C   UNL     1      35.741   4.547  13.657  0.00  0.00    +0.000 A 
ATOM      3  C   UNL     1      36.269   4.167  14.877  0.00  0.00    +0.000 A 
ATOM      4  C   UNL     1      36.999   5.117  15.557  0.00  0.00    +0.000 A 
ATOM      5  C   UNL     1      37.196   6.391  15.045  0.00  0.00    +0.000 A 
ATOM      6  N   UNL     1      37.964   7.363  15.787  0.00  0.00    +0.000 N 
ATOM      7  N   UNL     1      36.663   6.695  13.868  0.00  0.00    +0.000 NA
ENDROOT
BRANCH   1  15
ATOM      8  C   UNL     1      37.261   5.208  10.664  0.00  0.00    +0.000 C 
ATOM      9  C   UNL     1      36.000   6.010  10.671  0.00  0.00    +0.000 A 
ATOM     10  C   UNL     1      35.480   6.459   9.474  0.00  0.00    +0.000 A 
ATOM     11  C   UNL     1      34.306   7.199   9.468  0.00  0.00    +0.000 A 
ATOM     12  O   UNL     1      33.774   7.659   8.254  0.00  0.00    +0.000 OA
ATOM     13  C   UNL     1      33.690   7.467  10.656  0.00  0.00    +0.000 A 
ATOM     14  C   UNL     1      34.222   7.012  11.835  0.00  0.00    +0.000 A 
ATOM     15  C   UNL     1      35.396   6.270  11.866  0.00  0.00    +0.000 A 
ENDBRANCH   1  15
BRANCH   3  16
ATOM     16  C   UNL     1      36.120   2.850  15.467  0.00  0.00    +0.000 A 
ATOM     17  C   UNL     1      37.017   1.825  15.231  0.00  0.00    +0.000 A 
ATOM     18  C   UNL     1      36.823   0.603  15.808  0.00  0.00    +0.000 A 
ATOM     19  C   UNL     1      35.751   0.339  16.634  0.00  0.00    +0.000 A 
ATOM     20  C   UNL     1      34.852   1.350  16.878  0.00  0.00    +0.000 A 
ATOM     21  C   UNL     1      35.051   2.577  16.295  0.00  0.00    +0.000 A 
ENDBRANCH   3  16
BRANCH   6  22
ATOM     22  C   UNL     1      39.388   7.234  15.677  0.00  0.00    +0.000 C 
BRANCH  22  23
ATOM     23  C   UNL     1      39.929   5.892  16.116  0.00  0.00    +0.000 C 
BRANCH  23  24
ATOM     24  C   UNL     1      40.644   6.118  17.423  0.00  0.00    +0.000 A 
ATOM     25  C   UNL     1      41.894   6.648  17.506  0.00  0.00    +0.000 A 
ATOM     26  C   UNL     1      42.557   6.870  18.708  0.00  0.00    +0.000 A 
ATOM     27  C   UNL     1      41.908   6.531  19.893  0.00  0.00    +0.000 A 
ATOM     28  C   UNL     1      40.648   5.997  19.806  0.00  0.00    +0.000 A 
ATOM     29  C   UNL     1      39.990   5.777  18.612  0.00  0.00    +0.000 A 
ENDBRANCH  23  24
ENDBRANCH  22  23
ENDBRANCH   6  22
BRANCH   6  30
ATOM     30  C   UNL     1      37.333   8.396  16.549  0.00  0.00    +0.000 C 
BRANCH  30  31
ATOM     31  C   UNL     1      38.001   8.690  17.824  0.00  0.00    +0.000 A 
ATOM     32  C   UNL     1      39.190   9.388  17.908  0.00  0.00    +0.000 A 
ATOM     33  C   UNL     1      39.818   9.658  19.108  0.00  0.00    +0.000 A 
ATOM     34  C   UNL     1      39.225   9.208  20.262  0.00  0.00    +0.000 A 
ATOM     35  C   UNL     1      38.038   8.510  20.208  0.00  0.00    +0.000 A 
ATOM     36  C   UNL     1      37.432   8.253  19.003  0.00  0.00    +0.000 A 
ENDBRANCH  30  31
ENDBRANCH   6  30
TORSDOF 7
ENDMDL
MODEL 5
REMARK VINA RESULT:      -8.0      1.582      2.241
REMARK  Name = 
REMARK  7 active torsions:
REMARK  status: ('A' for Active; 'I' for Inactive)
REMARK    1  A    between atoms: C_8  and  C_9
REMARK    2  A    between atoms: C_11  and  C_12
REMARK    3  A    between atoms: N_20  and  C_21
REMARK    4  A    between atoms: N_20  and  C_29
REMARK    5  A    between atoms: C_21  and  C_22
REMARK    6  A    between atoms: C_22  and  C_23
REMARK    7  A    between atoms: C_29  and  C_30
REMARK                            x       y       z     vdW  Elec       q    Type
REMARK                         _______ _______ _______ _____ _____    ______ ____
ROOT
ATOM      1  C   UNL     1      36.823   6.530  14.839  0.00  0.00    +0.000 A 
ATOM      2  C   UNL     1      37.817   6.783  15.756  0.00  0.00    +0.000 A 
ATOM      3  C   UNL     1      38.456   5.765  16.441  0.00  0.00    +0.000 A 
ATOM      4  C   UNL     1      38.048   4.480  16.160  0.00  0.00    +0.000 A 
ATOM      5  C   UNL     1      37.046   4.217  15.238  0.00  0.00    +0.000 A 
ATOM      6  N   UNL     1      36.646   2.857  14.966  0.00  0.00    +0.000 N 
ATOM      7  N   UNL     1      36.471   5.237  14.613  0.00  0.00    +0.000 NA
ENDROOT
BRANCH   1  15
ATOM      8  C   UNL     1      37.688   7.301  12.206  0.00  0.00    +0.000 C 
ATOM      9  C   UNL     1      36.499   7.954  12.834  0.00  0.00    +0.000 A 
ATOM     10  C   UNL     1      35.820   8.932  12.135  0.00  0.00    +0.000 A 
ATOM     11  C   UNL     1      34.712   9.541  12.706  0.00  0.00    +0.000 A 
ATOM     12  O   UNL     1      34.019  10.537  12.000  0.00  0.00    +0.000 OA
ATOM     13  C   UNL     1      34.317   9.155  13.953  0.00  0.00    +0.000 A 
ATOM     14  C   UNL     1      35.004   8.182  14.632  0.00  0.00    +0.000 A 
ATOM     15  C   UNL     1      36.117   7.559  14.082  0.00  0.00    +0.000 A 
ENDBRANCH   1  15
BRANCH   3  16
ATOM     16  C   UNL     1      39.499   5.964  17.430  0.00  0.00    +0.000 A 
ATOM     17  C   UNL     1      39.259   5.875  18.789  0.00  0.00    +0.000 A 
ATOM     18  C   UNL     1      40.278   6.078  19.675  0.00  0.00    +0.000 A 
ATOM     19  C   UNL     1      41.562   6.373  19.269  0.00  0.00    +0.000 A 
ATOM     20  C   UNL     1      41.813   6.463  17.920  0.00  0.00    +0.000 A 
ATOM     21  C   UNL     1      40.786   6.259  17.034  0.00  0.00    +0.000 A 
ENDBRANCH   3  16
BRANCH   6  22
ATOM     22  C   UNL     1      35.745   2.279  15.922  0.00  0.00    +0.000 C 
BRANCH  22  23
ATOM     23  C   UNL     1      36.409   1.790  17.189  0.00  0.00    +0.000 C 
BRANCH  23  24
ATOM     24  C   UNL     1      36.151   0.307  17.270  0.00  0.00    +0.000 A 
ATOM     25  C   UNL     1      37.045  -0.576  17.791  0.00  0.00    +0.000 A 
ATOM     26  C   UNL     1      36.811  -1.944  17.880  0.00  0.00    +0.000 A 
ATOM     27  C   UNL     1      35.596  -2.439  17.411  0.00  0.00    +0.000 A 
ATOM     28  C   UNL     1      34.697  -1.546  16.888  0.00  0.00    +0.000 A 
ATOM     29  C   UNL     1      34.930  -0.187  16.799  0.00  0.00    +0.000 A 
ENDBRANCH  23  24
ENDBRANCH  22  23
ENDBRANCH   6  22
BRANCH   6  30
ATOM     30  C   UNL     1      37.098   2.158  13.803  0.00  0.00    +0.000 C 
BRANCH  30  31
ATOM     31  C   UNL     1      37.639   0.821  14.083  0.00  0.00    +0.000 A 
ATOM     32  C   UNL     1      36.947  -0.343  13.812  0.00  0.00    +0.000 A 
ATOM     33  C   UNL     1      37.456  -1.599  14.081  0.00  0.00    +0.000 A 
ATOM     34  C   UNL     1      38.707  -1.680  14.642  0.00  0.00    +0.000 A 
ATOM     35  C   UNL     1      39.421  -0.536  14.922  0.00  0.00    +0.000 A 
ATOM     36  C   UNL     1      38.894   0.702  14.646  0.00  0.00    +0.000 A 
ENDBRANCH  30  31
ENDBRANCH   6  30
TORSDOF 7
ENDMDL
MODEL 6
REMARK VINA RESULT:      -7.9      1.899      7.262
REMARK  Name = 
REMARK  7 active torsions:
REMARK  status: ('A' for Active; 'I' for Inactive)
REMARK    1  A    between atoms: C_8  and  C_9
REMARK    2  A    between atoms: C_11  and  C_12
REMARK    3  A    between atoms: N_20  and  C_21
REMARK    4  A    between atoms: N_20  and  C_29
REMARK    5  A    between atoms: C_21  and  C_22
REMARK    6  A    between atoms: C_22  and  C_23
REMARK    7  A    between atoms: C_29  and  C_30
REMARK                            x       y       z     vdW  Elec       q    Type
REMARK                         _______ _______ _______ _____ _____    ______ ____
ROOT
ATOM      1  C   UNL     1      36.030   5.167  13.678  0.00  0.00    +0.000 A 
ATOM      2  C   UNL     1      35.676   3.894  14.061  0.00  0.00    +0.000 A 
ATOM      3  C   UNL     1      36.250   3.274  15.155  0.00  0.00    +0.000 A 
ATOM      4  C   UNL     1      37.199   3.994  15.847  0.00  0.00    +0.000 A 
ATOM      5  C   UNL     1      37.562   5.277  15.467  0.00  0.00    +0.000 A 
ATOM      6  N   UNL     1      38.558   6.004  16.217  0.00  0.00    +0.000 N 
ATOM      7  N   UNL     1      36.974   5.818  14.407  0.00  0.00    +0.000 NA
ENDROOT
BRANCH   1  15
ATOM      8  C   UNL     1      33.743   6.884  13.987  0.00  0.00    +0.000 C 
ATOM      9  C   UNL     1      34.372   6.695  12.644  0.00  0.00    +0.000 A 
ATOM     10  C   UNL     1      33.841   7.354  11.553  0.00  0.00    +0.000 A 
ATOM     11  C   UNL     1      34.421   7.190  10.303  0.00  0.00    +0.000 A 
ATOM     12  O   UNL     1      33.885   7.857   9.190  0.00  0.00    +0.000 OA
ATOM     13  C   UNL     1      35.508   6.375  10.182  0.00  0.00    +0.000 A 
ATOM     14  C   UNL     1      36.021   5.729  11.277  0.00  0.00    +0.000 A 
ATOM     15  C   UNL     1      35.458   5.877  12.538  0.00  0.00    +0.000 A 
ENDBRANCH   1  15
BRANCH   3  16
ATOM     16  C   UNL     1      35.934   1.930  15.602  0.00  0.00    +0.000 A 
ATOM     17  C   UNL     1      36.378   0.803  14.937  0.00  0.00    +0.000 A 
ATOM     18  C   UNL     1      36.045  -0.438  15.399  0.00  0.00    +0.000 A 
ATOM     19  C   UNL     1      35.268  -0.622  16.524  0.00  0.00    +0.000 A 
ATOM     20  C   UNL     1      34.820   0.491  17.195  0.00  0.00    +0.000 A 
ATOM     21  C   UNL     1      35.159   1.736  16.726  0.00  0.00    +0.000 A 
ENDBRANCH   3  16
BRANCH   6  22
ATOM     22  C   UNL     1      39.920   5.665  15.920  0.00  0.00    +0.000 C 
BRANCH  22  23
ATOM     23  C   UNL     1      40.636   6.669  15.046  0.00  0.00    +0.000 C 
BRANCH  23  24
ATOM     24  C   UNL     1      41.778   7.219  15.862  0.00  0.00    +0.000 A 
ATOM     25  C   UNL     1      42.481   6.474  16.756  0.00  0.00    +0.000 A 
ATOM     26  C   UNL     1      43.544   6.971  17.505  0.00  0.00    +0.000 A 
ATOM     27  C   UNL     1      43.908   8.304  17.331  0.00  0.00    +0.000 A 
ATOM     28  C   UNL     1      43.197   9.053  16.428  0.00  0.00    +0.000 A 
ATOM     29  C   UNL     1      42.143   8.559  15.685  0.00  0.00    +0.000 A 
ENDBRANCH  23  24
ENDBRANCH  22  23
ENDBRANCH   6  22
BRANCH   6  30
ATOM     30  C   UNL     1      38.197   7.013  17.165  0.00  0.00    +0.000 C 
BRANCH  30  31
ATOM     31  C   UNL     1      39.189   7.214  18.230  0.00  0.00    +0.000 A 
ATOM     32  C   UNL     1      39.778   8.437  18.489  0.00  0.00    +0.000 A 
ATOM     33  C   UNL     1      40.715   8.622  19.487  0.00  0.00    +0.000 A 
ATOM     34  C   UNL     1      41.067   7.535  20.250  0.00  0.00    +0.000 A 
ATOM     35  C   UNL     1      40.494   6.304  20.015  0.00  0.00    +0.000 A 
ATOM     36  C   UNL     1      39.565   6.144  19.016  0.00  0.00    +0.000 A 
ENDBRANCH  30  31
ENDBRANCH   6  30
TORSDOF 7
ENDMDL
MODEL 7
REMARK VINA RESULT:      -7.9      2.760      8.121
REMARK  Name = 
REMARK  7 active torsions:
REMARK  status: ('A' for Active; 'I' for Inactive)
REMARK    1  A    between atoms: C_8  and  C_9
REMARK    2  A    between atoms: C_11  and  C_12
REMARK    3  A    between atoms: N_20  and  C_21
REMARK    4  A    between atoms: N_20  and  C_29
REMARK    5  A    between atoms: C_21  and  C_22
REMARK    6  A    between atoms: C_22  and  C_23
REMARK    7  A    between atoms: C_29  and  C_30
REMARK                            x       y       z     vdW  Elec       q    Type
REMARK                         _______ _______ _______ _____ _____    ______ ____
ROOT
ATOM      1  C   UNL     1      36.256   3.056  15.297  0.00  0.00    +0.000 A 
ATOM      2  C   UNL     1      35.532   3.783  14.380  0.00  0.00    +0.000 A 
ATOM      3  C   UNL     1      35.841   5.096  14.078  0.00  0.00    +0.000 A 
ATOM      4  C   UNL     1      36.916   5.646  14.742  0.00  0.00    +0.000 A 
ATOM      5  C   UNL     1      37.651   4.921  15.667  0.00  0.00    +0.000 A 
ATOM      6  N   UNL     1      38.773   5.529  16.342  0.00  0.00    +0.000 N 
ATOM      7  N   UNL     1      37.303   3.664  15.914  0.00  0.00    +0.000 NA
ENDROOT
BRANCH   1  15
ATOM      8  C   UNL     1      37.497   0.882  13.881  0.00  0.00    +0.000 C 
ATOM      9  C   UNL     1      36.547   0.611  15.003  0.00  0.00    +0.000 A 
ATOM     10  C   UNL     1      36.273  -0.696  15.352  0.00  0.00    +0.000 A 
ATOM     11  C   UNL     1      35.397  -0.959  16.396  0.00  0.00    +0.000 A 
ATOM     12  O   UNL     1      35.114  -2.286  16.755  0.00  0.00    +0.000 OA
ATOM     13  C   UNL     1      34.825   0.089  17.057  0.00  0.00    +0.000 A 
ATOM     14  C   UNL     1      35.111   1.380  16.695  0.00  0.00    +0.000 A 
ATOM     15  C   UNL     1      35.983   1.668  15.653  0.00  0.00    +0.000 A 
ENDBRANCH   1  15
BRANCH   3  16
ATOM     16  C   UNL     1      35.109   5.921  13.135  0.00  0.00    +0.000 A 
ATOM     17  C   UNL     1      33.953   6.594  13.481  0.00  0.00    +0.000 A 
ATOM     18  C   UNL     1      33.301   7.352  12.550  0.00  0.00    +0.000 A 
ATOM     19  C   UNL     1      33.753   7.479  11.254  0.00  0.00    +0.000 A 
ATOM     20  C   UNL     1      34.903   6.815  10.898  0.00  0.00    +0.000 A 
ATOM     21  C   UNL     1      35.554   6.055  11.837  0.00  0.00    +0.000 A 
ENDBRANCH   3  16
BRANCH   6  22
ATOM     22  C   UNL     1      38.439   6.372  17.454  0.00  0.00    +0.000 C 
BRANCH  22  23
ATOM     23  C   UNL     1      38.851   5.822  18.800  0.00  0.00    +0.000 C 
BRANCH  23  24
ATOM     24  C   UNL     1      39.929   6.732  19.330  0.00  0.00    +0.000 A 
ATOM     25  C   UNL     1      39.895   8.085  19.193  0.00  0.00    +0.000 A 
ATOM     26  C   UNL     1      40.880   8.933  19.688  0.00  0.00    +0.000 A 
ATOM     27  C   UNL     1      41.961   8.369  20.362  0.00  0.00    +0.000 A 
ATOM     28  C   UNL     1      41.991   7.005  20.500  0.00  0.00    +0.000 A 
ATOM     29  C   UNL     1      41.013   6.163  20.008  0.00  0.00    +0.000 A 
ENDBRANCH  23  24
ENDBRANCH  22  23
ENDBRANCH   6  22
BRANCH   6  30
ATOM     30  C   UNL     1      40.121   5.273  15.939  0.00  0.00    +0.000 C 
BRANCH  30  31
ATOM     31  C   UNL     1      41.012   6.435  16.063  0.00  0.00    +0.000 A 
ATOM     32  C   UNL     1      42.242   6.377  16.689  0.00  0.00    +0.000 A 
ATOM     33  C   UNL     1      43.075   7.473  16.809  0.00  0.00    +0.000 A 
ATOM     34  C   UNL     1      42.651   8.666  16.276  0.00  0.00    +0.000 A 
ATOM     35  C   UNL     1      41.430   8.752  15.645  0.00  0.00    +0.000 A 
ATOM     36  C   UNL     1      40.618   7.649  15.538  0.00  0.00    +0.000 A 
ENDBRANCH  30  31
ENDBRANCH   6  30
TORSDOF 7
ENDMDL
MODEL 8
REMARK VINA RESULT:      -7.8      3.018      8.366
REMARK  Name = 
REMARK  7 active torsions:
REMARK  status: ('A' for Active; 'I' for Inactive)
REMARK    1  A    between atoms: C_8  and  C_9
REMARK    2  A    between atoms: C_11  and  C_12
REMARK    3  A    between atoms: N_20  and  C_21
REMARK    4  A    between atoms: N_20  and  C_29
REMARK    5  A    between atoms: C_21  and  C_22
REMARK    6  A    between atoms: C_22  and  C_23
REMARK    7  A    between atoms: C_29  and  C_30
REMARK                            x       y       z     vdW  Elec       q    Type
REMARK                         _______ _______ _______ _____ _____    ______ ____
ROOT
ATOM      1  C   UNL     1      36.328   3.275  15.251  0.00  0.00    +0.000 A 
ATOM      2  C   UNL     1      35.765   3.874  14.147  0.00  0.00    +0.000 A 
ATOM      3  C   UNL     1      36.064   5.175  13.789  0.00  0.00    +0.000 A 
ATOM      4  C   UNL     1      36.958   5.847  14.593  0.00  0.00    +0.000 A 
ATOM      5  C   UNL     1      37.529   5.252  15.707  0.00  0.00    +0.000 A 
ATOM      6  N   UNL     1      38.464   5.986  16.526  0.00  0.00    +0.000 N 
ATOM      7  N   UNL     1      37.201   3.999  15.999  0.00  0.00    +0.000 NA
ENDROOT
BRANCH   1  15
ATOM      8  C   UNL     1      37.887   1.070  14.260  0.00  0.00    +0.000 C 
ATOM      9  C   UNL     1      36.770   0.835  15.225  0.00  0.00    +0.000 A 
ATOM     10  C   UNL     1      36.495  -0.455  15.637  0.00  0.00    +0.000 A 
ATOM     11  C   UNL     1      35.465  -0.684  16.538  0.00  0.00    +0.000 A 
ATOM     12  O   UNL     1      35.181  -1.992  16.959  0.00  0.00    +0.000 OA
ATOM     13  C   UNL     1      34.744   0.379  16.999  0.00  0.00    +0.000 A 
ATOM     14  C   UNL     1      35.031   1.652  16.578  0.00  0.00    +0.000 A 
ATOM     15  C   UNL     1      36.057   1.906  15.677  0.00  0.00    +0.000 A 
ENDBRANCH   1  15
BRANCH   3  16
ATOM     16  C   UNL     1      35.495   5.869  12.649  0.00  0.00    +0.000 A 
ATOM     17  C   UNL     1      36.059   5.815  11.389  0.00  0.00    +0.000 A 
ATOM     18  C   UNL     1      35.483   6.493  10.353  0.00  0.00    +0.000 A 
ATOM     19  C   UNL     1      34.339   7.246  10.510  0.00  0.00    +0.000 A 
ATOM     20  C   UNL     1      33.767   7.308  11.759  0.00  0.00    +0.000 A 
ATOM     21  C   UNL     1      34.350   6.624  12.796  0.00  0.00    +0.000 A 
ENDBRANCH   3  16
BRANCH   6  22
ATOM     22  C   UNL     1      37.875   6.894  17.468  0.00  0.00    +0.000 C 
BRANCH  22  23
ATOM     23  C   UNL     1      38.119   8.354  17.164  0.00  0.00    +0.000 C 
BRANCH  23  24
ATOM     24  C   UNL     1      38.720   8.962  18.405  0.00  0.00    +0.000 A 
ATOM     25  C   UNL     1      38.180   8.814  19.644  0.00  0.00    +0.000 A 
ATOM     26  C   UNL     1      38.733   9.362  20.796  0.00  0.00    +0.000 A 
ATOM     27  C   UNL     1      39.906  10.105  20.677  0.00  0.00    +0.000 A 
ATOM     28  C   UNL     1      40.449  10.252  19.426  0.00  0.00    +0.000 A 
ATOM     29  C   UNL     1      39.899   9.707  18.283  0.00  0.00    +0.000 A 
ENDBRANCH  23  24
ENDBRANCH  22  23
ENDBRANCH   6  22
BRANCH   6  30
ATOM     30  C   UNL     1      39.877   5.787  16.417  0.00  0.00    +0.000 C 
BRANCH  30  31
ATOM     31  C   UNL     1      40.621   6.104  17.644  0.00  0.00    +0.000 A 
ATOM     32  C   UNL     1      40.141   5.824  18.908  0.00  0.00    +0.000 A 
ATOM     33  C   UNL     1      40.841   6.128  20.061  0.00  0.00    +0.000 A 
ATOM     34  C   UNL     1      42.066   6.734  19.929  0.00  0.00    +0.000 A 
ATOM     35  C   UNL     1      42.569   7.024  18.680  0.00  0.00    +0.000 A 
ATOM     36  C   UNL     1      41.855   6.713  17.549  0.00  0.00    +0.000 A 
ENDBRANCH  30  31
ENDBRANCH   6  30
TORSDOF 7
ENDMDL
MODEL 9
REMARK VINA RESULT:      -7.5      2.850      7.769
REMARK  Name = 
REMARK  7 active torsions:
REMARK  status: ('A' for Active; 'I' for Inactive)
REMARK    1  A    between atoms: C_8  and  C_9
REMARK    2  A    between atoms: C_11  and  C_12
REMARK    3  A    between atoms: N_20  and  C_21
REMARK    4  A    between atoms: N_20  and  C_29
REMARK    5  A    between atoms: C_21  and  C_22
REMARK    6  A    between atoms: C_22  and  C_23
REMARK    7  A    between atoms: C_29  and  C_30
REMARK                            x       y       z     vdW  Elec       q    Type
REMARK                         _______ _______ _______ _____ _____    ______ ____
ROOT
ATOM      1  C   UNL     1      37.930   4.299  16.205  0.00  0.00    +0.000 A 
ATOM      2  C   UNL     1      38.886   4.579  17.155  0.00  0.00    +0.000 A 
ATOM      3  C   UNL     1      39.492   5.818  17.239  0.00  0.00    +0.000 A 
ATOM      4  C   UNL     1      39.092   6.766  16.323  0.00  0.00    +0.000 A 
ATOM      5  C   UNL     1      38.130   6.492  15.363  0.00  0.00    +0.000 A 
ATOM      6  N   UNL     1      37.732   7.511  14.420  0.00  0.00    +0.000 N 
ATOM      7  N   UNL     1      37.585   5.283  15.333  0.00  0.00    +0.000 NA
ENDROOT
BRANCH   1  15
ATOM      8  C   UNL     1      38.879   2.299  14.369  0.00  0.00    +0.000 C 
ATOM      9  C   UNL     1      37.667   2.044  15.206  0.00  0.00    +0.000 A 
ATOM     10  C   UNL     1      37.008   0.837  15.088  0.00  0.00    +0.000 A 
ATOM     11  C   UNL     1      35.886   0.587  15.865  0.00  0.00    +0.000 A 
ATOM     12  O   UNL     1      35.212  -0.639  15.749  0.00  0.00    +0.000 OA
ATOM     13  C   UNL     1      35.458   1.549  16.733  0.00  0.00    +0.000 A 
ATOM     14  C   UNL     1      36.126   2.742  16.837  0.00  0.00    +0.000 A 
ATOM     15  C   UNL     1      37.251   3.015  16.069  0.00  0.00    +0.000 A 
ENDBRANCH   1  15
BRANCH   3  16
ATOM     16  C   UNL     1      40.516   6.172  18.204  0.00  0.00    +0.000 A 
ATOM     17  C   UNL     1      40.268   6.229  19.563  0.00  0.00    +0.000 A 
ATOM     18  C   UNL     1      41.269   6.574  20.425  0.00  0.00    +0.000 A 
ATOM     19  C   UNL     1      42.544   6.873  19.994  0.00  0.00    +0.000 A 
ATOM     20  C   UNL     1      42.804   6.819  18.645  0.00  0.00    +0.000 A 
ATOM     21  C   UNL     1      41.795   6.472  17.783  0.00  0.00    +0.000 A 
ENDBRANCH   3  16
BRANCH   6  22
ATOM     22  C   UNL     1      38.615   7.694  13.304  0.00  0.00    +0.000 C 
BRANCH  22  23
ATOM     23  C   UNL     1      39.019   6.412  12.611  0.00  0.00    +0.000 C 
BRANCH  23  24
ATOM     24  C   UNL     1      38.042   6.203  11.482  0.00  0.00    +0.000 A 
ATOM     25  C   UNL     1      37.797   7.138  10.527  0.00  0.00    +0.000 A 
ATOM     26  C   UNL     1      36.906   6.949   9.475  0.00  0.00    +0.000 A 
ATOM     27  C   UNL     1      36.227   5.736   9.395  0.00  0.00    +0.000 A 
ATOM     28  C   UNL     1      36.478   4.793  10.359  0.00  0.00    +0.000 A 
ATOM     29  C   UNL     1      37.362   4.982  11.403  0.00  0.00    +0.000 A 
ENDBRANCH  23  24
ENDBRANCH  22  23
ENDBRANCH   6  22
BRANCH   6  30
ATOM     30  C   UNL     1      36.522   8.256  14.584  0.00  0.00    +0.000 C 
BRANCH  30  31
ATOM     31  C   UNL     1      35.602   8.159  13.442  0.00  0.00    +0.000 A 
ATOM     32  C   UNL     1      35.425   9.181  12.530  0.00  0.00    +0.000 A 
ATOM     33  C   UNL     1      34.556   9.089  11.460  0.00  0.00    +0.000 A 
ATOM     34  C   UNL     1      33.843   7.925  11.307  0.00  0.00    +0.000 A 
ATOM     35  C   UNL     1      34.001   6.889  12.201  0.00  0.00    +0.000 A 
ATOM     36  C   UNL     1      34.871   7.003  13.257  0.00  0.00    +0.000 A 
ENDBRANCH  30  31
ENDBRANCH   6  30
TORSDOF 7
ENDMDL
MODEL 10
REMARK VINA RESULT:      -7.5      2.026      6.012
REMARK  Name = 
REMARK  7 active torsions:
REMARK  status: ('A' for Active; 'I' for Inactive)
REMARK    1  A    between atoms: C_8  and  C_9
REMARK    2  A    between atoms: C_11  and  C_12
REMARK    3  A    between atoms: N_20  and  C_21
REMARK    4  A    between atoms: N_20  and  C_29
REMARK    5  A    between atoms: C_21  and  C_22
REMARK    6  A    between atoms: C_22  and  C_23
REMARK    7  A    between atoms: C_29  and  C_30
REMARK                            x       y       z     vdW  Elec       q    Type
REMARK                         _______ _______ _______ _____ _____    ______ ____
ROOT
ATOM      1  C   UNL     1      36.330   5.220  12.917  0.00  0.00    +0.000 A 
ATOM      2  C   UNL     1      35.840   4.111  13.567  0.00  0.00    +0.000 A 
ATOM      3  C   UNL     1      36.532   3.503  14.599  0.00  0.00    +0.000 A 
ATOM      4  C   UNL     1      37.740   4.065  14.948  0.00  0.00    +0.000 A 
ATOM      5  C   UNL     1      38.241   5.182  14.298  0.00  0.00    +0.000 A 
ATOM      6  N   UNL     1      39.510   5.746  14.692  0.00  0.00    +0.000 N 
ATOM      7  N   UNL     1      37.530   5.719  13.314  0.00  0.00    +0.000 NA
ENDROOT
BRANCH   1  15
ATOM      8  C   UNL     1      34.076   6.935  13.416  0.00  0.00    +0.000 C 
ATOM      9  C   UNL     1      34.572   6.724  12.023  0.00  0.00    +0.000 A 
ATOM     10  C   UNL     1      33.936   7.363  10.977  0.00  0.00    +0.000 A 
ATOM     11  C   UNL     1      34.393   7.179   9.679  0.00  0.00    +0.000 A 
ATOM     12  O   UNL     1      33.749   7.825   8.612  0.00  0.00    +0.000 OA
ATOM     13  C   UNL     1      35.467   6.366   9.467  0.00  0.00    +0.000 A 
ATOM     14  C   UNL     1      36.086   5.740  10.519  0.00  0.00    +0.000 A 
ATOM     15  C   UNL     1      35.647   5.908  11.826  0.00  0.00    +0.000 A 
ENDBRANCH   1  15
BRANCH   3  16
ATOM     16  C   UNL     1      36.079   2.324  15.314  0.00  0.00    +0.000 A 
ATOM     17  C   UNL     1      35.197   2.393  16.376  0.00  0.00    +0.000 A 
ATOM     18  C   UNL     1      34.810   1.251  17.016  0.00  0.00    +0.000 A 
ATOM     19  C   UNL     1      35.268   0.005  16.643  0.00  0.00    +0.000 A 
ATOM     20  C   UNL     1      36.146  -0.077  15.587  0.00  0.00    +0.000 A 
ATOM     21  C   UNL     1      36.531   1.074  14.948  0.00  0.00    +0.000 A 
ENDBRANCH   3  16
BRANCH   6  22
ATOM     22  C   UNL     1      40.668   5.078  14.171  0.00  0.00    +0.000 C 
BRANCH  22  23
ATOM     23  C   UNL     1      40.609   4.793  12.687  0.00  0.00    +0.000 C 
BRANCH  23  24
ATOM     24  C   UNL     1      40.094   3.385  12.535  0.00  0.00    +0.000 A 
ATOM     25  C   UNL     1      39.182   3.023  11.593  0.00  0.00    +0.000 A 
ATOM     26  C   UNL     1      38.710   1.724  11.438  0.00  0.00    +0.000 A 
ATOM     27  C   UNL     1      39.194   0.738  12.294  0.00  0.00    +0.000 A 
ATOM     28  C   UNL     1      40.114   1.106  13.243  0.00  0.00    +0.000 A 
ATOM     29  C   UNL     1      40.583   2.395  13.396  0.00  0.00    +0.000 A 
ENDBRANCH  23  24
ENDBRANCH  22  23
ENDBRANCH   6  22
BRANCH   6  30
ATOM     30  C   UNL     1      39.591   6.910  15.519  0.00  0.00    +0.000 C 
BRANCH  30  31
ATOM     31  C   UNL     1      39.922   6.623  16.922  0.00  0.00    +0.000 A 
ATOM     32  C   UNL     1      38.979   6.233  17.853  0.00  0.00    +0.000 A 
ATOM     33  C   UNL     1      39.293   5.969  19.173  0.00  0.00    +0.000 A 
ATOM     34  C   UNL     1      40.603   6.103  19.563  0.00  0.00    +0.000 A 
ATOM     35  C   UNL     1      41.564   6.489  18.655  0.00  0.00    +0.000 A 
ATOM     36  C   UNL     1      41.229   6.747  17.348  0.00  0.00    +0.000 A 
ENDBRANCH  30  31
ENDBRANCH   6  30
TORSDOF 7
ENDMDL
