MODEL 1
REMARK VINA RESULT:      -5.7      0.000      0.000
REMARK  Name = 
REMARK  2 active torsions:
REMARK  status: ('A' for Active; 'I' for Inactive)
REMARK    1  A    between atoms: C_6  and  C_7
REMARK    2  A    between atoms: N_11  and  C_12
REMARK                            x       y       z     vdW  Elec       q    Type
REMARK                         _______ _______ _______ _____ _____    ______ ____
ROOT
ATOM      1  C   UNL     1      22.311 -11.149  27.496  0.00  0.00    +0.000 C 
ATOM      2  C   UNL     1      22.670 -10.156  26.437  0.00  0.00    +0.000 A 
ATOM      3  C   UNL     1      23.839 -10.309  25.707  0.00  0.00    +0.000 A 
ATOM      4  C   UNL     1      24.172  -9.396  24.730  0.00  0.00    +0.000 A 
ATOM      5  C   UNL     1      25.420  -9.537  23.932  0.00  0.00    +0.000 C 
ATOM      6  C   UNL     1      23.324  -8.347  24.508  0.00  0.00    +0.000 A 
ATOM      7  C   UNL     1      22.167  -8.190  25.227  0.00  0.00    +0.000 A 
ATOM      8  N   UNL     1      21.344  -7.086  24.942  0.00  0.00    +0.000 NA
ATOM      9  N   UNL     1      21.879  -9.102  26.168  0.00  0.00    +0.000 NA
ENDROOT
BRANCH   8  10
ATOM     10  C   UNL     1      20.125  -6.838  25.634  0.00  0.00    +0.000 A 
ATOM     11  C   UNL     1      19.828  -5.552  26.035  0.00  0.00    +0.000 A 
ATOM     12  C   UNL     1      18.634  -5.338  26.706  0.00  0.00    +0.000 A 
ATOM     13  C   UNL     1      17.751  -6.352  26.981  0.00  0.00    +0.000 A 
ATOM     14  C   UNL     1      18.059  -7.625  26.576  0.00  0.00    +0.000 A 
ATOM     15 BR   UNL     1      16.828  -9.060  26.954  0.00  0.00    +0.000 Br
ATOM     16  C   UNL     1      19.232  -7.842  25.915  0.00  0.00    +0.000 A 
ENDBRANCH   8  10
BRANCH   6  17
ATOM     17  C   UNL     1      23.673  -7.363  23.463  0.00  0.00    +0.000 C 
ATOM     18  N   UNL     1      23.212  -7.509  22.142  0.00  0.00    +0.000 NA
ATOM     19  O   UNL     1      24.395  -6.376  23.754  0.00  0.00    +0.000 OA
ENDBRANCH   6  17
TORSDOF 2
ENDMDL
MODEL 2
REMARK VINA RESULT:      -5.7      3.139      5.448
REMARK  Name = 
REMARK  2 active torsions:
REMARK  status: ('A' for Active; 'I' for Inactive)
REMARK    1  A    between atoms: C_6  and  C_7
REMARK    2  A    between atoms: N_11  and  C_12
REMARK                            x       y       z     vdW  Elec       q    Type
REMARK                         _______ _______ _______ _____ _____    ______ ____
ROOT
ATOM      1  C   UNL     1      22.310 -11.134  27.839  0.00  0.00    +0.000 C 
ATOM      2  C   UNL     1      21.339 -10.067  27.445  0.00  0.00    +0.000 A 
ATOM      3  C   UNL     1      20.126  -9.951  28.106  0.00  0.00    +0.000 A 
ATOM      4  C   UNL     1      19.230  -8.969  27.746  0.00  0.00    +0.000 A 
ATOM      5  C   UNL     1      17.921  -8.823  28.439  0.00  0.00    +0.000 C 
ATOM      6  C   UNL     1      19.571  -8.122  26.729  0.00  0.00    +0.000 A 
ATOM      7  C   UNL     1      20.769  -8.231  26.071  0.00  0.00    +0.000 A 
ATOM      8  N   UNL     1      21.051  -7.324  25.034  0.00  0.00    +0.000 NA
ATOM      9  N   UNL     1      21.614  -9.201  26.453  0.00  0.00    +0.000 NA
ENDROOT
BRANCH   8  10
ATOM     10  C   UNL     1      22.266  -7.357  24.294  0.00  0.00    +0.000 A 
ATOM     11  C   UNL     1      23.304  -6.529  24.665  0.00  0.00    +0.000 A 
ATOM     12  C   UNL     1      24.476  -6.582  23.927  0.00  0.00    +0.000 A 
ATOM     13  C   UNL     1      24.634  -7.422  22.853  0.00  0.00    +0.000 A 
ATOM     14  C   UNL     1      23.594  -8.240  22.496  0.00  0.00    +0.000 A 
ATOM     15 BR   UNL     1      23.800  -9.427  20.990  0.00  0.00    +0.000 Br
ATOM     16  C   UNL     1      22.437  -8.193  23.218  0.00  0.00    +0.000 A 
ENDBRANCH   8  10
BRANCH   6  17
ATOM     17  C   UNL     1      18.616  -7.066  26.336  0.00  0.00    +0.000 C 
ATOM     18  N   UNL     1      18.685  -5.777  26.896  0.00  0.00    +0.000 NA
ATOM     19  O   UNL     1      17.724  -7.317  25.486  0.00  0.00    +0.000 OA
ENDBRANCH   6  17
TORSDOF 2
ENDMDL
MODEL 3
REMARK VINA RESULT:      -5.7     31.660     32.588
REMARK  Name = 
REMARK  2 active torsions:
REMARK  status: ('A' for Active; 'I' for Inactive)
REMARK    1  A    between atoms: C_6  and  C_7
REMARK    2  A    between atoms: N_11  and  C_12
REMARK                            x       y       z     vdW  Elec       q    Type
REMARK                         _______ _______ _______ _____ _____    ______ ____
ROOT
ATOM      1  C   UNL     1      31.408  23.174  27.392  0.00  0.00    +0.000 C 
ATOM      2  C   UNL     1      30.152  23.070  28.198  0.00  0.00    +0.000 A 
ATOM      3  C   UNL     1      30.213  22.725  29.540  0.00  0.00    +0.000 A 
ATOM      4  C   UNL     1      29.058  22.629  30.286  0.00  0.00    +0.000 A 
ATOM      5  C   UNL     1      29.095  22.261  31.727  0.00  0.00    +0.000 C 
ATOM      6  C   UNL     1      27.866  22.881  29.668  0.00  0.00    +0.000 A 
ATOM      7  C   UNL     1      27.799  23.223  28.341  0.00  0.00    +0.000 A 
ATOM      8  N   UNL     1      26.536  23.468  27.774  0.00  0.00    +0.000 NA
ATOM      9  N   UNL     1      28.946  23.306  27.651  0.00  0.00    +0.000 NA
ENDROOT
BRANCH   8  10
ATOM     10  C   UNL     1      26.365  23.827  26.407  0.00  0.00    +0.000 A 
ATOM     11  C   UNL     1      26.190  22.834  25.466  0.00  0.00    +0.000 A 
ATOM     12  C   UNL     1      26.025  23.212  24.143  0.00  0.00    +0.000 A 
ATOM     13  C   UNL     1      26.029  24.524  23.744  0.00  0.00    +0.000 A 
ATOM     14  C   UNL     1      26.203  25.502  24.690  0.00  0.00    +0.000 A 
ATOM     15 BR   UNL     1      26.211  27.351  24.147  0.00  0.00    +0.000 Br
ATOM     16  C   UNL     1      26.366  25.137  25.995  0.00  0.00    +0.000 A 
ENDBRANCH   8  10
BRANCH   6  17
ATOM     17  C   UNL     1      26.622  22.781  30.459  0.00  0.00    +0.000 C 
ATOM     18  N   UNL     1      25.976  21.544  30.645  0.00  0.00    +0.000 NA
ATOM     19  O   UNL     1      26.128  23.814  30.976  0.00  0.00    +0.000 OA
ENDBRANCH   6  17
TORSDOF 2
ENDMDL
MODEL 4
REMARK VINA RESULT:      -5.5     14.411     16.443
REMARK  Name = 
REMARK  2 active torsions:
REMARK  status: ('A' for Active; 'I' for Inactive)
REMARK    1  A    between atoms: C_6  and  C_7
REMARK    2  A    between atoms: N_11  and  C_12
REMARK                            x       y       z     vdW  Elec       q    Type
REMARK                         _______ _______ _______ _____ _____    ______ ____
ROOT
ATOM      1  C   UNL     1      25.304   5.526  13.114  0.00  0.00    +0.000 C 
ATOM      2  C   UNL     1      26.049   5.715  14.398  0.00  0.00    +0.000 A 
ATOM      3  C   UNL     1      27.130   6.582  14.453  0.00  0.00    +0.000 A 
ATOM      4  C   UNL     1      27.818   6.760  15.634  0.00  0.00    +0.000 A 
ATOM      5  C   UNL     1      28.981   7.683  15.721  0.00  0.00    +0.000 C 
ATOM      6  C   UNL     1      27.406   6.062  16.734  0.00  0.00    +0.000 A 
ATOM      7  C   UNL     1      26.338   5.203  16.686  0.00  0.00    +0.000 A 
ATOM      8  N   UNL     1      25.971   4.520  17.859  0.00  0.00    +0.000 NA
ATOM      9  N   UNL     1      25.695   5.059  15.517  0.00  0.00    +0.000 NA
ENDROOT
BRANCH   8  10
ATOM     10  C   UNL     1      24.879   3.609  17.908  0.00  0.00    +0.000 A 
ATOM     11  C   UNL     1      23.619   4.083  18.206  0.00  0.00    +0.000 A 
ATOM     12  C   UNL     1      22.573   3.174  18.246  0.00  0.00    +0.000 A 
ATOM     13  C   UNL     1      22.749   1.836  18.001  0.00  0.00    +0.000 A 
ATOM     14  C   UNL     1      24.007   1.378  17.706  0.00  0.00    +0.000 A 
ATOM     15 BR   UNL     1      24.272  -0.500  17.359  0.00  0.00    +0.000 Br
ATOM     16  C   UNL     1      25.041   2.267  17.665  0.00  0.00    +0.000 A 
ENDBRANCH   8  10
BRANCH   6  17
ATOM     17  C   UNL     1      28.137   6.245  18.005  0.00  0.00    +0.000 C 
ATOM     18  N   UNL     1      27.821   7.299  18.882  0.00  0.00    +0.000 NA
ATOM     19  O   UNL     1      29.060   5.449  18.312  0.00  0.00    +0.000 OA
ENDBRANCH   6  17
TORSDOF 2
ENDMDL
MODEL 5
REMARK VINA RESULT:      -5.5     19.890     22.186
REMARK  Name = 
REMARK  2 active torsions:
REMARK  status: ('A' for Active; 'I' for Inactive)
REMARK    1  A    between atoms: C_6  and  C_7
REMARK    2  A    between atoms: N_11  and  C_12
REMARK                            x       y       z     vdW  Elec       q    Type
REMARK                         _______ _______ _______ _____ _____    ______ ____
ROOT
ATOM      1  C   UNL     1      20.250   4.112  39.909  0.00  0.00    +0.000 C 
ATOM      2  C   UNL     1      19.280   5.039  40.571  0.00  0.00    +0.000 A 
ATOM      3  C   UNL     1      18.574   4.625  41.690  0.00  0.00    +0.000 A 
ATOM      4  C   UNL     1      17.681   5.476  42.303  0.00  0.00    +0.000 A 
ATOM      5  C   UNL     1      16.911   5.057  43.504  0.00  0.00    +0.000 C 
ATOM      6  C   UNL     1      17.515   6.727  41.777  0.00  0.00    +0.000 A 
ATOM      7  C   UNL     1      18.210   7.143  40.670  0.00  0.00    +0.000 A 
ATOM      8  N   UNL     1      17.987   8.444  40.187  0.00  0.00    +0.000 NA
ATOM      9  N   UNL     1      19.070   6.283  40.104  0.00  0.00    +0.000 NA
ENDROOT
BRANCH   8  10
ATOM     10  C   UNL     1      18.659   8.965  39.046  0.00  0.00    +0.000 A 
ATOM     11  C   UNL     1      19.955   9.419  39.176  0.00  0.00    +0.000 A 
ATOM     12  C   UNL     1      20.586   9.920  38.048  0.00  0.00    +0.000 A 
ATOM     13  C   UNL     1      19.972   9.979  36.823  0.00  0.00    +0.000 A 
ATOM     14  C   UNL     1      18.683   9.524  36.708  0.00  0.00    +0.000 A 
ATOM     15 BR   UNL     1      17.805   9.599  34.993  0.00  0.00    +0.000 Br
ATOM     16  C   UNL     1      18.056   9.029  37.814  0.00  0.00    +0.000 A 
ENDBRANCH   8  10
BRANCH   6  17
ATOM     17  C   UNL     1      16.559   7.647  42.426  0.00  0.00    +0.000 C 
ATOM     18  N   UNL     1      16.960   8.490  43.480  0.00  0.00    +0.000 NA
ATOM     19  O   UNL     1      15.365   7.682  42.035  0.00  0.00    +0.000 OA
ENDBRANCH   6  17
TORSDOF 2
ENDMDL
MODEL 6
REMARK VINA RESULT:      -5.3     31.981     33.742
REMARK  Name = 
REMARK  2 active torsions:
REMARK  status: ('A' for Active; 'I' for Inactive)
REMARK    1  A    between atoms: C_6  and  C_7
REMARK    2  A    between atoms: N_11  and  C_12
REMARK                            x       y       z     vdW  Elec       q    Type
REMARK                         _______ _______ _______ _____ _____    ______ ____
ROOT
ATOM      1  C   UNL     1      27.511  28.046  26.064  0.00  0.00    +0.000 C 
ATOM      2  C   UNL     1      27.759  27.049  24.978  0.00  0.00    +0.000 A 
ATOM      3  C   UNL     1      27.426  27.351  23.666  0.00  0.00    +0.000 A 
ATOM      4  C   UNL     1      27.654  26.435  22.662  0.00  0.00    +0.000 A 
ATOM      5  C   UNL     1      27.307  26.734  21.247  0.00  0.00    +0.000 C 
ATOM      6  C   UNL     1      28.212  25.233  22.998  0.00  0.00    +0.000 A 
ATOM      7  C   UNL     1      28.543  24.928  24.293  0.00  0.00    +0.000 A 
ATOM      8  N   UNL     1      29.113  23.671  24.562  0.00  0.00    +0.000 NA
ATOM      9  N   UNL     1      28.305  25.848  25.240  0.00  0.00    +0.000 NA
ENDROOT
BRANCH   8  10
ATOM     10  C   UNL     1      29.489  23.263  25.873  0.00  0.00    +0.000 A 
ATOM     11  C   UNL     1      30.824  23.071  26.162  0.00  0.00    +0.000 A 
ATOM     12  C   UNL     1      31.163  22.675  27.446  0.00  0.00    +0.000 A 
ATOM     13  C   UNL     1      30.225  22.470  28.426  0.00  0.00    +0.000 A 
ATOM     14  C   UNL     1      28.901  22.664  28.125  0.00  0.00    +0.000 A 
ATOM     15 BR   UNL     1      27.570  22.381  29.491  0.00  0.00    +0.000 Br
ATOM     16  C   UNL     1      28.561  23.055  26.863  0.00  0.00    +0.000 A 
ENDBRANCH   8  10
BRANCH   6  17
ATOM     17  C   UNL     1      28.460  24.244  21.929  0.00  0.00    +0.000 C 
ATOM     18  N   UNL     1      29.624  24.300  21.141  0.00  0.00    +0.000 NA
ATOM     19  O   UNL     1      27.619  23.334  21.715  0.00  0.00    +0.000 OA
ENDBRANCH   6  17
TORSDOF 2
ENDMDL
MODEL 7
REMARK VINA RESULT:      -5.3     31.967     33.658
REMARK  Name = 
REMARK  2 active torsions:
REMARK  status: ('A' for Active; 'I' for Inactive)
REMARK    1  A    between atoms: C_6  and  C_7
REMARK    2  A    between atoms: N_11  and  C_12
REMARK                            x       y       z     vdW  Elec       q    Type
REMARK                         _______ _______ _______ _____ _____    ______ ____
ROOT
ATOM      1  C   UNL     1      23.285  27.489  26.992  0.00  0.00    +0.000 C 
ATOM      2  C   UNL     1      24.132  26.578  27.822  0.00  0.00    +0.000 A 
ATOM      3  C   UNL     1      24.071  26.639  29.205  0.00  0.00    +0.000 A 
ATOM      4  C   UNL     1      24.849  25.801  29.973  0.00  0.00    +0.000 A 
ATOM      5  C   UNL     1      24.803  25.846  31.459  0.00  0.00    +0.000 C 
ATOM      6  C   UNL     1      25.673  24.917  29.334  0.00  0.00    +0.000 A 
ATOM      7  C   UNL     1      25.738  24.851  27.966  0.00  0.00    +0.000 A 
ATOM      8  N   UNL     1      26.610  23.916  27.379  0.00  0.00    +0.000 NA
ATOM      9  N   UNL     1      24.964  25.685  27.255  0.00  0.00    +0.000 NA
ENDROOT
BRANCH   8  10
ATOM     10  C   UNL     1      26.747  23.774  25.970  0.00  0.00    +0.000 A 
ATOM     11  C   UNL     1      25.714  23.216  25.245  0.00  0.00    +0.000 A 
ATOM     12  C   UNL     1      25.873  23.090  23.874  0.00  0.00    +0.000 A 
ATOM     13  C   UNL     1      27.011  23.497  23.223  0.00  0.00    +0.000 A 
ATOM     14  C   UNL     1      28.029  24.050  23.956  0.00  0.00    +0.000 A 
ATOM     15 BR   UNL     1      29.634  24.627  23.056  0.00  0.00    +0.000 Br
ATOM     16  C   UNL     1      27.879  24.177  25.306  0.00  0.00    +0.000 A 
ENDBRANCH   8  10
BRANCH   6  17
ATOM     17  C   UNL     1      26.512  24.014  30.149  0.00  0.00    +0.000 C 
ATOM     18  N   UNL     1      26.020  22.777  30.604  0.00  0.00    +0.000 NA
ATOM     19  O   UNL     1      27.687  24.352  30.443  0.00  0.00    +0.000 OA
ENDBRANCH   6  17
TORSDOF 2
ENDMDL
MODEL 8
REMARK VINA RESULT:      -5.3     13.628     15.230
REMARK  Name = 
REMARK  2 active torsions:
REMARK  status: ('A' for Active; 'I' for Inactive)
REMARK    1  A    between atoms: C_6  and  C_7
REMARK    2  A    between atoms: N_11  and  C_12
REMARK                            x       y       z     vdW  Elec       q    Type
REMARK                         _______ _______ _______ _____ _____    ______ ____
ROOT
ATOM      1  C   UNL     1      36.843  -7.312  34.143  0.00  0.00    +0.000 C 
ATOM      2  C   UNL     1      35.901  -6.150  34.112  0.00  0.00    +0.000 A 
ATOM      3  C   UNL     1      35.858  -5.260  35.174  0.00  0.00    +0.000 A 
ATOM      4  C   UNL     1      34.992  -4.189  35.149  0.00  0.00    +0.000 A 
ATOM      5  C   UNL     1      34.927  -3.219  36.276  0.00  0.00    +0.000 C 
ATOM      6  C   UNL     1      34.185  -4.035  34.057  0.00  0.00    +0.000 A 
ATOM      7  C   UNL     1      34.222  -4.911  33.003  0.00  0.00    +0.000 A 
ATOM      8  N   UNL     1      33.362  -4.688  31.913  0.00  0.00    +0.000 NA
ATOM      9  N   UNL     1      35.080  -5.941  33.067  0.00  0.00    +0.000 NA
ENDROOT
BRANCH   8  10
ATOM     10  C   UNL     1      33.327  -5.542  30.775  0.00  0.00    +0.000 A 
ATOM     11  C   UNL     1      34.144  -5.265  29.699  0.00  0.00    +0.000 A 
ATOM     12  C   UNL     1      34.091  -6.114  28.605  0.00  0.00    +0.000 A 
ATOM     13  C   UNL     1      33.261  -7.206  28.558  0.00  0.00    +0.000 A 
ATOM     14  C   UNL     1      32.454  -7.469  29.634  0.00  0.00    +0.000 A 
ATOM     15 BR   UNL     1      31.283  -8.999  29.584  0.00  0.00    +0.000 Br
ATOM     16  C   UNL     1      32.502  -6.638  30.715  0.00  0.00    +0.000 A 
ENDBRANCH   8  10
BRANCH   6  17
ATOM     17  C   UNL     1      33.253  -2.889  34.021  0.00  0.00    +0.000 C 
ATOM     18  N   UNL     1      31.993  -2.956  34.645  0.00  0.00    +0.000 NA
ATOM     19  O   UNL     1      33.585  -1.835  33.424  0.00  0.00    +0.000 OA
ENDBRANCH   6  17
TORSDOF 2
ENDMDL
MODEL 9
REMARK VINA RESULT:      -5.2     32.362     34.167
REMARK  Name = 
REMARK  2 active torsions:
REMARK  status: ('A' for Active; 'I' for Inactive)
REMARK    1  A    between atoms: C_6  and  C_7
REMARK    2  A    between atoms: N_11  and  C_12
REMARK                            x       y       z     vdW  Elec       q    Type
REMARK                         _______ _______ _______ _____ _____    ______ ____
ROOT
ATOM      1  C   UNL     1      28.050  27.961  26.159  0.00  0.00    +0.000 C 
ATOM      2  C   UNL     1      28.214  26.992  25.032  0.00  0.00    +0.000 A 
ATOM      3  C   UNL     1      27.653  27.264  23.793  0.00  0.00    +0.000 A 
ATOM      4  C   UNL     1      27.803  26.373  22.753  0.00  0.00    +0.000 A 
ATOM      5  C   UNL     1      27.212  26.640  21.414  0.00  0.00    +0.000 C 
ATOM      6  C   UNL     1      28.512  25.227  22.978  0.00  0.00    +0.000 A 
ATOM      7  C   UNL     1      29.069  24.952  24.201  0.00  0.00    +0.000 A 
ATOM      8  N   UNL     1      29.786  23.753  24.359  0.00  0.00    +0.000 NA
ATOM      9  N   UNL     1      28.900  25.846  25.188  0.00  0.00    +0.000 NA
ENDROOT
BRANCH   8  10
ATOM     10  C   UNL     1      30.398  23.380  25.588  0.00  0.00    +0.000 A 
ATOM     11  C   UNL     1      29.801  22.416  26.373  0.00  0.00    +0.000 A 
ATOM     12  C   UNL     1      30.418  22.071  27.565  0.00  0.00    +0.000 A 
ATOM     13  C   UNL     1      31.590  22.650  27.983  0.00  0.00    +0.000 A 
ATOM     14  C   UNL     1      32.173  23.607  27.193  0.00  0.00    +0.000 A 
ATOM     15 BR   UNL     1      33.819  24.430  27.766  0.00  0.00    +0.000 Br
ATOM     16  C   UNL     1      31.570  23.951  26.018  0.00  0.00    +0.000 A 
ENDBRANCH   8  10
BRANCH   6  17
ATOM     17  C   UNL     1      28.678  24.266  21.869  0.00  0.00    +0.000 C 
ATOM     18  N   UNL     1      29.681  24.440  20.898  0.00  0.00    +0.000 NA
ATOM     19  O   UNL     1      27.911  23.273  21.786  0.00  0.00    +0.000 OA
ENDBRANCH   6  17
TORSDOF 2
ENDMDL
MODEL 10
REMARK VINA RESULT:      -5.2     32.649     34.323
REMARK  Name = 
REMARK  2 active torsions:
REMARK  status: ('A' for Active; 'I' for Inactive)
REMARK    1  A    between atoms: C_6  and  C_7
REMARK    2  A    between atoms: N_11  and  C_12
REMARK                            x       y       z     vdW  Elec       q    Type
REMARK                         _______ _______ _______ _____ _____    ______ ____
ROOT
ATOM      1  C   UNL     1      28.339  29.160  24.086  0.00  0.00    +0.000 C 
ATOM      2  C   UNL     1      28.073  27.759  23.636  0.00  0.00    +0.000 A 
ATOM      3  C   UNL     1      28.772  27.228  22.563  0.00  0.00    +0.000 A 
ATOM      4  C   UNL     1      28.530  25.937  22.145  0.00  0.00    +0.000 A 
ATOM      5  C   UNL     1      29.266  25.343  20.997  0.00  0.00    +0.000 C 
ATOM      6  C   UNL     1      27.589  25.206  22.815  0.00  0.00    +0.000 A 
ATOM      7  C   UNL     1      26.894  25.725  23.877  0.00  0.00    +0.000 A 
ATOM      8  N   UNL     1      25.941  24.913  24.518  0.00  0.00    +0.000 NA
ATOM      9  N   UNL     1      27.160  26.986  24.252  0.00  0.00    +0.000 NA
ENDROOT
BRANCH   8  10
ATOM     10  C   UNL     1      25.170  25.363  25.626  0.00  0.00    +0.000 A 
ATOM     11  C   UNL     1      23.984  26.029  25.397  0.00  0.00    +0.000 A 
ATOM     12  C   UNL     1      23.253  26.454  26.494  0.00  0.00    +0.000 A 
ATOM     13  C   UNL     1      23.666  26.239  27.785  0.00  0.00    +0.000 A 
ATOM     14  C   UNL     1      24.847  25.575  27.998  0.00  0.00    +0.000 A 
ATOM     15 BR   UNL     1      25.441  25.263  29.806  0.00  0.00    +0.000 Br
ATOM     16  C   UNL     1      25.571  25.153  26.923  0.00  0.00    +0.000 A 
ENDBRANCH   8  10
BRANCH   6  17
ATOM     17  C   UNL     1      27.322  23.822  22.375  0.00  0.00    +0.000 C 
ATOM     18  N   UNL     1      26.274  23.531  21.483  0.00  0.00    +0.000 NA
ATOM     19  O   UNL     1      28.040  22.883  22.802  0.00  0.00    +0.000 OA
ENDBRANCH   6  17
TORSDOF 2
ENDMDL
