MODEL 1
REMARK VINA RESULT:      -6.7      0.000      0.000
REMARK  Name = 
REMARK  3 active torsions:
REMARK  status: ('A' for Active; 'I' for Inactive)
REMARK    1  A    between atoms: C_2  and  N_5
REMARK    2  A    between atoms: C_7  and  C_8
REMARK    3  A    between atoms: C_15  and  C_16
REMARK                            x       y       z     vdW  Elec       q    Type
REMARK                         _______ _______ _______ _____ _____    ______ ____
ROOT
ATOM      1  N   UNL     1      17.399  10.676  37.255  0.00  0.00    +0.000 N 
ATOM      2  N   UNL     1      17.244  11.159  36.043  0.00  0.00    +0.000 NA
ATOM      3  C   UNL     1      15.957  11.500  35.846  0.00  0.00    +0.000 A 
ATOM      4  C   UNL     1      15.257  11.211  37.019  0.00  0.00    +0.000 A 
ATOM      5  C   UNL     1      16.197  10.694  37.886  0.00  0.00    +0.000 A 
ATOM      6  N   UNL     1      15.900  10.262  39.219  0.00  0.00    +0.000 NA
ENDROOT
BRANCH   3   7
ATOM      7  C   UNL     1      15.339  12.067  34.665  0.00  0.00    +0.000 A 
ATOM      8  C   UNL     1      14.495  13.158  34.691  0.00  0.00    +0.000 A 
ATOM      9  C   UNL     1      13.933  13.658  33.535  0.00  0.00    +0.000 A 
ATOM     10  C   UNL     1      14.196  13.079  32.297  0.00  0.00    +0.000 A 
ATOM     11 CL   UNL     1      13.469  13.733  30.850  0.00  0.00    +0.000 Cl
ATOM     12  C   UNL     1      15.036  11.989  32.258  0.00  0.00    +0.000 A 
ATOM     13  C   UNL     1      15.591  11.504  33.432  0.00  0.00    +0.000 A 
ENDBRANCH   3   7
BRANCH   1  15
ATOM     14  C   UNL     1      18.487   8.970  38.647  0.00  0.00    +0.000 C 
ATOM     15  C   UNL     1      18.650  10.208  37.814  0.00  0.00    +0.000 C 
ATOM     16  C   UNL     1      19.544   9.845  36.637  0.00  0.00    +0.000 C 
ATOM     17  C   UNL     1      19.298  11.346  38.582  0.00  0.00    +0.000 C 
ENDBRANCH   1  15
BRANCH   4  18
ATOM     18  C   UNL     1      13.868  11.398  37.301  0.00  0.00    +0.000 C 
ATOM     19  N   UNL     1      12.739  11.565  37.521  0.00  0.00    +0.000 NA
ENDBRANCH   4  18
TORSDOF 3
ENDMDL
MODEL 2
REMARK VINA RESULT:      -5.9      2.763      4.778
REMARK  Name = 
REMARK  3 active torsions:
REMARK  status: ('A' for Active; 'I' for Inactive)
REMARK    1  A    between atoms: C_2  and  N_5
REMARK    2  A    between atoms: C_7  and  C_8
REMARK    3  A    between atoms: C_15  and  C_16
REMARK                            x       y       z     vdW  Elec       q    Type
REMARK                         _______ _______ _______ _____ _____    ______ ____
ROOT
ATOM      1  N   UNL     1      17.654   9.456  40.501  0.00  0.00    +0.000 N 
ATOM      2  N   UNL     1      17.002   9.565  39.366  0.00  0.00    +0.000 NA
ATOM      3  C   UNL     1      17.789  10.137  38.437  0.00  0.00    +0.000 A 
ATOM      4  C   UNL     1      19.022  10.406  39.033  0.00  0.00    +0.000 A 
ATOM      5  C   UNL     1      18.902   9.963  40.335  0.00  0.00    +0.000 A 
ATOM      6  N   UNL     1      19.951  10.050  41.306  0.00  0.00    +0.000 NA
ENDROOT
BRANCH   3   7
ATOM      7  C   UNL     1      17.484  10.449  37.056  0.00  0.00    +0.000 A 
ATOM      8  C   UNL     1      17.828   9.638  35.994  0.00  0.00    +0.000 A 
ATOM      9  C   UNL     1      17.512   9.983  34.696  0.00  0.00    +0.000 A 
ATOM     10  C   UNL     1      16.835  11.164  34.409  0.00  0.00    +0.000 A 
ATOM     11 CL   UNL     1      16.449  11.575  32.756  0.00  0.00    +0.000 Cl
ATOM     12  C   UNL     1      16.485  11.982  35.460  0.00  0.00    +0.000 A 
ATOM     13  C   UNL     1      16.813  11.614  36.757  0.00  0.00    +0.000 A 
ENDBRANCH   3   7
BRANCH   1  15
ATOM     14  C   UNL     1      17.133   9.855  42.868  0.00  0.00    +0.000 C 
ATOM     15  C   UNL     1      17.120   8.887  41.721  0.00  0.00    +0.000 C 
ATOM     16  C   UNL     1      15.664   8.542  41.440  0.00  0.00    +0.000 C 
ATOM     17  C   UNL     1      17.870   7.604  42.031  0.00  0.00    +0.000 C 
ENDBRANCH   1  15
BRANCH   4  18
ATOM     18  C   UNL     1      20.184  11.006  38.456  0.00  0.00    +0.000 C 
ATOM     19  N   UNL     1      21.128  11.482  37.973  0.00  0.00    +0.000 NA
ENDBRANCH   4  18
TORSDOF 3
ENDMDL
MODEL 3
REMARK VINA RESULT:      -5.8     19.340     20.555
REMARK  Name = 
REMARK  3 active torsions:
REMARK  status: ('A' for Active; 'I' for Inactive)
REMARK    1  A    between atoms: C_2  and  N_5
REMARK    2  A    between atoms: C_7  and  C_8
REMARK    3  A    between atoms: C_15  and  C_16
REMARK                            x       y       z     vdW  Elec       q    Type
REMARK                         _______ _______ _______ _____ _____    ______ ____
ROOT
ATOM      1  N   UNL     1      33.806   1.249  35.411  0.00  0.00    +0.000 N 
ATOM      2  N   UNL     1      34.101   2.432  34.919  0.00  0.00    +0.000 NA
ATOM      3  C   UNL     1      34.313   3.305  35.920  0.00  0.00    +0.000 A 
ATOM      4  C   UNL     1      34.140   2.621  37.124  0.00  0.00    +0.000 A 
ATOM      5  C   UNL     1      33.821   1.327  36.766  0.00  0.00    +0.000 A 
ATOM      6  N   UNL     1      33.559   0.281  37.708  0.00  0.00    +0.000 NA
ENDROOT
BRANCH   3   7
ATOM      7  C   UNL     1      34.661   4.709  35.841  0.00  0.00    +0.000 A 
ATOM      8  C   UNL     1      33.744   5.733  35.962  0.00  0.00    +0.000 A 
ATOM      9  C   UNL     1      34.129   7.055  35.878  0.00  0.00    +0.000 A 
ATOM     10  C   UNL     1      35.459   7.406  35.668  0.00  0.00    +0.000 A 
ATOM     11 CL   UNL     1      35.918   9.088  35.566  0.00  0.00    +0.000 Cl
ATOM     12  C   UNL     1      36.384   6.393  35.545  0.00  0.00    +0.000 A 
ATOM     13  C   UNL     1      35.974   5.072  35.633  0.00  0.00    +0.000 A 
ENDBRANCH   3   7
BRANCH   1  15
ATOM     14  C   UNL     1      32.155  -0.496  34.907  0.00  0.00    +0.000 C 
ATOM     15  C   UNL     1      33.517   0.067  34.627  0.00  0.00    +0.000 C 
ATOM     16  C   UNL     1      33.536   0.496  33.167  0.00  0.00    +0.000 C 
ATOM     17  C   UNL     1      34.625  -0.948  34.847  0.00  0.00    +0.000 C 
ENDBRANCH   1  15
BRANCH   4  18
ATOM     18  C   UNL     1      34.258   3.116  38.460  0.00  0.00    +0.000 C 
ATOM     19  N   UNL     1      34.340   3.510  39.551  0.00  0.00    +0.000 NA
ENDBRANCH   4  18
TORSDOF 3
ENDMDL
MODEL 4
REMARK VINA RESULT:      -5.8     21.251     24.080
REMARK  Name = 
REMARK  3 active torsions:
REMARK  status: ('A' for Active; 'I' for Inactive)
REMARK    1  A    between atoms: C_2  and  N_5
REMARK    2  A    between atoms: C_7  and  C_8
REMARK    3  A    between atoms: C_15  and  C_16
REMARK                            x       y       z     vdW  Elec       q    Type
REMARK                         _______ _______ _______ _____ _____    ______ ____
ROOT
ATOM      1  N   UNL     1      33.406  -2.291  33.958  0.00  0.00    +0.000 N 
ATOM      2  N   UNL     1      33.871  -2.801  32.840  0.00  0.00    +0.000 NA
ATOM      3  C   UNL     1      33.576  -4.113  32.776  0.00  0.00    +0.000 A 
ATOM      4  C   UNL     1      32.876  -4.447  33.936  0.00  0.00    +0.000 A 
ATOM      5  C   UNL     1      32.786  -3.275  34.658  0.00  0.00    +0.000 A 
ATOM      6  N   UNL     1      32.137  -3.171  35.931  0.00  0.00    +0.000 NA
ENDROOT
BRANCH   3   7
ATOM      7  C   UNL     1      33.893  -5.064  31.730  0.00  0.00    +0.000 A 
ATOM      8  C   UNL     1      34.963  -5.932  31.783  0.00  0.00    +0.000 A 
ATOM      9  C   UNL     1      35.220  -6.819  30.758  0.00  0.00    +0.000 A 
ATOM     10  C   UNL     1      34.407  -6.870  29.630  0.00  0.00    +0.000 A 
ATOM     11 CL   UNL     1      34.756  -8.003  28.347  0.00  0.00    +0.000 Cl
ATOM     12  C   UNL     1      33.335  -6.008  29.565  0.00  0.00    +0.000 A 
ATOM     13  C   UNL     1      33.096  -5.126  30.607  0.00  0.00    +0.000 A 
ENDBRANCH   3   7
BRANCH   1  15
ATOM     14  C   UNL     1      34.510  -0.724  35.492  0.00  0.00    +0.000 C 
ATOM     15  C   UNL     1      33.538  -0.908  34.363  0.00  0.00    +0.000 C 
ATOM     16  C   UNL     1      34.092  -0.153  33.164  0.00  0.00    +0.000 C 
ATOM     17  C   UNL     1      32.159  -0.360  34.686  0.00  0.00    +0.000 C 
ENDBRANCH   1  15
BRANCH   4  18
ATOM     18  C   UNL     1      32.347  -5.716  34.327  0.00  0.00    +0.000 C 
ATOM     19  N   UNL     1      31.932  -6.757  34.639  0.00  0.00    +0.000 NA
ENDBRANCH   4  18
TORSDOF 3
ENDMDL
MODEL 5
REMARK VINA RESULT:      -5.8     20.686     22.996
REMARK  Name = 
REMARK  3 active torsions:
REMARK  status: ('A' for Active; 'I' for Inactive)
REMARK    1  A    between atoms: C_2  and  N_5
REMARK    2  A    between atoms: C_7  and  C_8
REMARK    3  A    between atoms: C_15  and  C_16
REMARK                            x       y       z     vdW  Elec       q    Type
REMARK                         _______ _______ _______ _____ _____    ______ ____
ROOT
ATOM      1  N   UNL     1      33.909  -4.323  33.547  0.00  0.00    +0.000 N 
ATOM      2  N   UNL     1      33.636  -3.164  32.990  0.00  0.00    +0.000 NA
ATOM      3  C   UNL     1      33.926  -2.165  33.843  0.00  0.00    +0.000 A 
ATOM      4  C   UNL     1      34.416  -2.738  35.018  0.00  0.00    +0.000 A 
ATOM      5  C   UNL     1      34.393  -4.100  34.796  0.00  0.00    +0.000 A 
ATOM      6  N   UNL     1      34.818  -5.072  35.759  0.00  0.00    +0.000 NA
ENDROOT
BRANCH   3   7
ATOM      7  C   UNL     1      33.783  -0.736  33.650  0.00  0.00    +0.000 A 
ATOM      8  C   UNL     1      34.402  -0.035  32.637  0.00  0.00    +0.000 A 
ATOM      9  C   UNL     1      34.231   1.327  32.497  0.00  0.00    +0.000 A 
ATOM     10  C   UNL     1      33.427   2.045  33.377  0.00  0.00    +0.000 A 
ATOM     11 CL   UNL     1      33.230   3.769  33.177  0.00  0.00    +0.000 Cl
ATOM     12  C   UNL     1      32.803   1.356  34.393  0.00  0.00    +0.000 A 
ATOM     13  C   UNL     1      32.989  -0.012  34.513  0.00  0.00    +0.000 A 
ENDBRANCH   3   7
BRANCH   1  15
ATOM     14  C   UNL     1      32.634  -6.421  33.567  0.00  0.00    +0.000 C 
ATOM     15  C   UNL     1      33.723  -5.615  32.922  0.00  0.00    +0.000 C 
ATOM     16  C   UNL     1      33.295  -5.347  31.486  0.00  0.00    +0.000 C 
ATOM     17  C   UNL     1      35.055  -6.345  32.902  0.00  0.00    +0.000 C 
ENDBRANCH   1  15
BRANCH   4  18
ATOM     18  C   UNL     1      34.859  -2.091  36.213  0.00  0.00    +0.000 C 
ATOM     19  N   UNL     1      35.235  -1.562  37.177  0.00  0.00    +0.000 NA
ENDBRANCH   4  18
TORSDOF 3
ENDMDL
MODEL 6
REMARK VINA RESULT:      -5.6      3.171      5.183
REMARK  Name = 
REMARK  3 active torsions:
REMARK  status: ('A' for Active; 'I' for Inactive)
REMARK    1  A    between atoms: C_2  and  N_5
REMARK    2  A    between atoms: C_7  and  C_8
REMARK    3  A    between atoms: C_15  and  C_16
REMARK                            x       y       z     vdW  Elec       q    Type
REMARK                         _______ _______ _______ _____ _____    ______ ____
ROOT
ATOM      1  N   UNL     1      19.320   8.003  39.947  0.00  0.00    +0.000 N 
ATOM      2  N   UNL     1      18.430   8.245  39.012  0.00  0.00    +0.000 NA
ATOM      3  C   UNL     1      18.855   9.249  38.222  0.00  0.00    +0.000 A 
ATOM      4  C   UNL     1      20.100   9.664  38.696  0.00  0.00    +0.000 A 
ATOM      5  C   UNL     1      20.364   8.857  39.783  0.00  0.00    +0.000 A 
ATOM      6  N   UNL     1      21.554   8.949  40.574  0.00  0.00    +0.000 NA
ENDROOT
BRANCH   3   7
ATOM      7  C   UNL     1      18.197   9.841  37.075  0.00  0.00    +0.000 A 
ATOM      8  C   UNL     1      17.307  10.891  37.161  0.00  0.00    +0.000 A 
ATOM      9  C   UNL     1      16.708  11.419  36.036  0.00  0.00    +0.000 A 
ATOM     10  C   UNL     1      16.979  10.909  34.770  0.00  0.00    +0.000 A 
ATOM     11 CL   UNL     1      16.206  11.596  33.363  0.00  0.00    +0.000 Cl
ATOM     12  C   UNL     1      17.866   9.860  34.671  0.00  0.00    +0.000 A 
ATOM     13  C   UNL     1      18.456   9.347  35.815  0.00  0.00    +0.000 A 
ENDBRANCH   3   7
BRANCH   1  15
ATOM     14  C   UNL     1      19.261   7.560  42.361  0.00  0.00    +0.000 C 
ATOM     15  C   UNL     1      19.199   6.991  40.974  0.00  0.00    +0.000 C 
ATOM     16  C   UNL     1      17.824   6.362  40.806  0.00  0.00    +0.000 C 
ATOM     17  C   UNL     1      20.252   5.923  40.735  0.00  0.00    +0.000 C 
ENDBRANCH   1  15
BRANCH   4  18
ATOM     18  C   UNL     1      20.951  10.695  38.191  0.00  0.00    +0.000 C 
ATOM     19  N   UNL     1      21.635  11.546  37.792  0.00  0.00    +0.000 NA
ENDBRANCH   4  18
TORSDOF 3
ENDMDL
MODEL 7
REMARK VINA RESULT:      -5.6     30.343     32.183
REMARK  Name = 
REMARK  3 active torsions:
REMARK  status: ('A' for Active; 'I' for Inactive)
REMARK    1  A    between atoms: C_2  and  N_5
REMARK    2  A    between atoms: C_7  and  C_8
REMARK    3  A    between atoms: C_15  and  C_16
REMARK                            x       y       z     vdW  Elec       q    Type
REMARK                         _______ _______ _______ _____ _____    ______ ____
ROOT
ATOM      1  N   UNL     1      35.217  20.708  11.318  0.00  0.00    +0.000 N 
ATOM      2  N   UNL     1      33.969  20.643  11.724  0.00  0.00    +0.000 NA
ATOM      3  C   UNL     1      33.187  21.395  10.929  0.00  0.00    +0.000 A 
ATOM      4  C   UNL     1      34.003  21.973   9.955  0.00  0.00    +0.000 A 
ATOM      5  C   UNL     1      35.276  21.518  10.229  0.00  0.00    +0.000 A 
ATOM      6  N   UNL     1      36.432  21.874   9.463  0.00  0.00    +0.000 NA
ENDROOT
BRANCH   3   7
ATOM      7  C   UNL     1      31.757  21.614  11.007  0.00  0.00    +0.000 A 
ATOM      8  C   UNL     1      30.826  20.827  10.361  0.00  0.00    +0.000 A 
ATOM      9  C   UNL     1      29.474  21.080  10.469  0.00  0.00    +0.000 A 
ATOM     10  C   UNL     1      28.998  22.140  11.235  0.00  0.00    +0.000 A 
ATOM     11 CL   UNL     1      27.281  22.436  11.353  0.00  0.00    +0.000 Cl
ATOM     12  C   UNL     1      29.918  22.933  11.885  0.00  0.00    +0.000 A 
ATOM     13  C   UNL     1      31.271  22.660  11.762  0.00  0.00    +0.000 A 
ENDBRANCH   3   7
BRANCH   1  15
ATOM     14  C   UNL     1      37.358  20.971  12.491  0.00  0.00    +0.000 C 
ATOM     15  C   UNL     1      36.334  20.025  11.935  0.00  0.00    +0.000 C 
ATOM     16  C   UNL     1      35.768  19.235  13.106  0.00  0.00    +0.000 C 
ATOM     17  C   UNL     1      36.924  19.049  10.933  0.00  0.00    +0.000 C 
ENDBRANCH   1  15
BRANCH   4  18
ATOM     18  C   UNL     1      33.637  22.849   8.887  0.00  0.00    +0.000 C 
ATOM     19  N   UNL     1      33.325  23.565   8.026  0.00  0.00    +0.000 NA
ENDBRANCH   4  18
TORSDOF 3
ENDMDL
MODEL 8
REMARK VINA RESULT:      -5.5     21.653     23.121
REMARK  Name = 
REMARK  3 active torsions:
REMARK  status: ('A' for Active; 'I' for Inactive)
REMARK    1  A    between atoms: C_2  and  N_5
REMARK    2  A    between atoms: C_7  and  C_8
REMARK    3  A    between atoms: C_15  and  C_16
REMARK                            x       y       z     vdW  Elec       q    Type
REMARK                         _______ _______ _______ _____ _____    ______ ____
ROOT
ATOM      1  N   UNL     1      22.578  -8.111  24.536  0.00  0.00    +0.000 N 
ATOM      2  N   UNL     1      21.949  -8.890  25.387  0.00  0.00    +0.000 NA
ATOM      3  C   UNL     1      20.933  -8.220  25.961  0.00  0.00    +0.000 A 
ATOM      4  C   UNL     1      20.925  -6.928  25.431  0.00  0.00    +0.000 A 
ATOM      5  C   UNL     1      21.974  -6.894  24.536  0.00  0.00    +0.000 A 
ATOM      6  N   UNL     1      22.325  -5.741  23.763  0.00  0.00    +0.000 NA
ENDROOT
BRANCH   3   7
ATOM      7  C   UNL     1      19.983  -8.685  26.951  0.00  0.00    +0.000 A 
ATOM      8  C   UNL     1      18.647  -8.345  26.948  0.00  0.00    +0.000 A 
ATOM      9  C   UNL     1      17.784  -8.816  27.916  0.00  0.00    +0.000 A 
ATOM     10  C   UNL     1      18.232  -9.653  28.934  0.00  0.00    +0.000 A 
ATOM     11 CL   UNL     1      17.118 -10.234  30.146  0.00  0.00    +0.000 Cl
ATOM     12  C   UNL     1      19.565  -9.999  28.948  0.00  0.00    +0.000 A 
ATOM     13  C   UNL     1      20.413  -9.514  27.964  0.00  0.00    +0.000 A 
ENDBRANCH   3   7
BRANCH   1  15
ATOM     14  C   UNL     1      24.831  -7.488  23.787  0.00  0.00    +0.000 C 
ATOM     15  C   UNL     1      23.721  -8.496  23.737  0.00  0.00    +0.000 C 
ATOM     16  C   UNL     1      24.258  -9.787  24.338  0.00  0.00    +0.000 C 
ATOM     17  C   UNL     1      23.254  -8.779  22.320  0.00  0.00    +0.000 C 
ENDBRANCH   1  15
BRANCH   4  18
ATOM     18  C   UNL     1      20.037  -5.847  25.725  0.00  0.00    +0.000 C 
ATOM     19  N   UNL     1      19.313  -4.974  25.980  0.00  0.00    +0.000 NA
ENDBRANCH   4  18
TORSDOF 3
ENDMDL
MODEL 9
REMARK VINA RESULT:      -5.5     20.913     22.137
REMARK  Name = 
REMARK  3 active torsions:
REMARK  status: ('A' for Active; 'I' for Inactive)
REMARK    1  A    between atoms: C_2  and  N_5
REMARK    2  A    between atoms: C_7  and  C_8
REMARK    3  A    between atoms: C_15  and  C_16
REMARK                            x       y       z     vdW  Elec       q    Type
REMARK                         _______ _______ _______ _____ _____    ______ ____
ROOT
ATOM      1  N   UNL     1      29.582  23.733  25.969  0.00  0.00    +0.000 N 
ATOM      2  N   UNL     1      29.997  24.582  25.055  0.00  0.00    +0.000 NA
ATOM      3  C   UNL     1      29.120  24.625  24.036  0.00  0.00    +0.000 A 
ATOM      4  C   UNL     1      28.081  23.742  24.332  0.00  0.00    +0.000 A 
ATOM      5  C   UNL     1      28.404  23.197  25.558  0.00  0.00    +0.000 A 
ATOM      6  N   UNL     1      27.596  22.229  26.238  0.00  0.00    +0.000 NA
ENDROOT
BRANCH   3   7
ATOM      7  C   UNL     1      29.176  25.417  22.824  0.00  0.00    +0.000 A 
ATOM      8  C   UNL     1      29.386  24.883  21.570  0.00  0.00    +0.000 A 
ATOM      9  C   UNL     1      29.430  25.683  20.447  0.00  0.00    +0.000 A 
ATOM     10  C   UNL     1      29.266  27.062  20.538  0.00  0.00    +0.000 A 
ATOM     11 CL   UNL     1      29.327  28.050  19.100  0.00  0.00    +0.000 Cl
ATOM     12  C   UNL     1      29.055  27.607  21.785  0.00  0.00    +0.000 A 
ATOM     13  C   UNL     1      29.014  26.783  22.899  0.00  0.00    +0.000 A 
ENDBRANCH   3   7
BRANCH   1  15
ATOM     14  C   UNL     1      30.614  21.975  27.337  0.00  0.00    +0.000 C 
ATOM     15  C   UNL     1      30.273  23.430  27.204  0.00  0.00    +0.000 C 
ATOM     16  C   UNL     1      31.586  24.199  27.169  0.00  0.00    +0.000 C 
ATOM     17  C   UNL     1      29.442  23.944  28.367  0.00  0.00    +0.000 C 
ENDBRANCH   1  15
BRANCH   4  18
ATOM     18  C   UNL     1      26.916  23.439  23.560  0.00  0.00    +0.000 C 
ATOM     19  N   UNL     1      25.974  23.176  22.932  0.00  0.00    +0.000 NA
ENDBRANCH   4  18
TORSDOF 3
ENDMDL
MODEL 10
REMARK VINA RESULT:      -5.4     21.454     22.762
REMARK  Name = 
REMARK  3 active torsions:
REMARK  status: ('A' for Active; 'I' for Inactive)
REMARK    1  A    between atoms: C_2  and  N_5
REMARK    2  A    between atoms: C_7  and  C_8
REMARK    3  A    between atoms: C_15  and  C_16
REMARK                            x       y       z     vdW  Elec       q    Type
REMARK                         _______ _______ _______ _____ _____    ______ ____
ROOT
ATOM      1  N   UNL     1      18.644  -9.148  27.218  0.00  0.00    +0.000 N 
ATOM      2  N   UNL     1      19.822  -9.333  26.667  0.00  0.00    +0.000 NA
ATOM      3  C   UNL     1      20.275  -8.176  26.151  0.00  0.00    +0.000 A 
ATOM      4  C   UNL     1      19.312  -7.196  26.398  0.00  0.00    +0.000 A 
ATOM      5  C   UNL     1      18.298  -7.843  27.073  0.00  0.00    +0.000 A 
ATOM      6  N   UNL     1      17.100  -7.198  27.521  0.00  0.00    +0.000 NA
ENDROOT
BRANCH   3   7
ATOM      7  C   UNL     1      21.519  -7.918  25.456  0.00  0.00    +0.000 A 
ATOM      8  C   UNL     1      21.903  -6.670  25.011  0.00  0.00    +0.000 A 
ATOM      9  C   UNL     1      23.100  -6.479  24.353  0.00  0.00    +0.000 A 
ATOM     10  C   UNL     1      23.967  -7.541  24.113  0.00  0.00    +0.000 A 
ATOM     11 CL   UNL     1      25.476  -7.270  23.277  0.00  0.00    +0.000 Cl
ATOM     12  C   UNL     1      23.595  -8.792  24.552  0.00  0.00    +0.000 A 
ATOM     13  C   UNL     1      22.387  -8.960  25.211  0.00  0.00    +0.000 A 
ENDBRANCH   3   7
BRANCH   1  15
ATOM     14  C   UNL     1      16.508 -10.359  27.239  0.00  0.00    +0.000 C 
ATOM     15  C   UNL     1      17.856 -10.172  27.871  0.00  0.00    +0.000 C 
ATOM     16  C   UNL     1      18.616 -11.480  27.704  0.00  0.00    +0.000 C 
ATOM     17  C   UNL     1      17.767  -9.850  29.352  0.00  0.00    +0.000 C 
ENDBRANCH   1  15
BRANCH   4  18
ATOM     18  C   UNL     1      19.335  -5.811  26.046  0.00  0.00    +0.000 C 
ATOM     19  N   UNL     1      19.336  -4.683  25.765  0.00  0.00    +0.000 NA
ENDBRANCH   4  18
TORSDOF 3
ENDMDL
