MODEL 1
REMARK VINA RESULT:      -8.8      0.000      0.000
REMARK  Name = 
REMARK  8 active torsions:
REMARK  status: ('A' for Active; 'I' for Inactive)
REMARK    1  A    between atoms: O_2  and  C_3
REMARK    2  A    between atoms: C_3  and  C_5
REMARK    3  A    between atoms: N_8  and  C_9
REMARK    4  A    between atoms: C_9  and  C_10
REMARK    5  A    between atoms: C_10  and  O_11
REMARK    6  A    between atoms: O_11  and  C_12
REMARK    7  A    between atoms: C_15  and  C_16
REMARK    8  A    between atoms: C_16  and  C_19
REMARK                            x       y       z     vdW  Elec       q    Type
REMARK                         _______ _______ _______ _____ _____    ______ ____
ROOT
ATOM      1  C   UNL     1      39.001   2.878  14.895  0.00  0.00    +0.000 C 
ENDROOT
BRANCH   1   2
ATOM      2  C   UNL     1      38.158   2.009  13.997  0.00  0.00    +0.000 C 
BRANCH   2   6
ATOM      3  C   UNL     1      36.463  -0.470  16.057  0.00  0.00    +0.000 A 
ATOM      4  C   UNL     1      36.486   0.744  15.390  0.00  0.00    +0.000 A 
ATOM      5  C   UNL     1      35.344   1.716  15.349  0.00  0.00    +0.000 C 
ATOM      6  N   UNL     1      37.695   0.894  14.798  0.00  0.00    +0.000 N 
ATOM      7  C   UNL     1      38.454  -0.186  15.060  0.00  0.00    +0.000 A 
ATOM      8  C   UNL     1      39.752  -0.507  14.682  0.00  0.00    +0.000 A 
ATOM      9  C   UNL     1      40.333  -1.677  15.070  0.00  0.00    +0.000 A 
ATOM     10  C   UNL     1      39.602  -2.543  15.848  0.00  0.00    +0.000 A 
ATOM     11  O   UNL     1      40.195  -3.727  16.238  0.00  0.00    +0.000 OA
ATOM     12  C   UNL     1      38.305  -2.225  16.226  0.00  0.00    +0.000 A 
ATOM     13  C   UNL     1      37.710  -1.043  15.839  0.00  0.00    +0.000 A 
BRANCH   3  14
ATOM     14  C   UNL     1      35.367  -1.050  16.836  0.00  0.00    +0.000 C 
ATOM     15  O   UNL     1      34.725  -2.061  16.443  0.00  0.00    +0.000 OA
BRANCH  14  17
ATOM     16  C   UNL     1      35.935  -0.612  19.127  0.00  0.00    +0.000 C 
ATOM     17  O   UNL     1      35.028  -0.460  18.051  0.00  0.00    +0.000 OA
ENDBRANCH  14  17
ENDBRANCH   3  14
ENDBRANCH   2   6
ENDBRANCH   1   2
BRANCH   1  18
ATOM     18  O   UNL     1      38.204   3.521  15.898  0.00  0.00    +0.000 OA
BRANCH  18  19
ATOM     19  C   UNL     1      38.831   4.498  16.657  0.00  0.00    +0.000 A 
ATOM     20  C   UNL     1      38.588   4.606  18.010  0.00  0.00    +0.000 A 
ATOM     21  C   UNL     1      39.194   5.564  18.795  0.00  0.00    +0.000 A 
ATOM     22  C   UNL     1      40.085   6.476  18.259  0.00  0.00    +0.000 A 
ATOM     23  C   UNL     1      40.332   6.376  16.908  0.00  0.00    +0.000 A 
ATOM     24  C   UNL     1      39.721   5.410  16.124  0.00  0.00    +0.000 A 
BRANCH  22  25
ATOM     25  C   UNL     1      40.741   7.514  19.110  0.00  0.00    +0.000 C 
ATOM     26  C   UNL     1      39.841   7.711  20.337  0.00  0.00    +0.000 C 
ATOM     27  C   UNL     1      40.827   8.809  18.352  0.00  0.00    +0.000 C 
BRANCH  25  28
ATOM     28  C   UNL     1      42.056   7.030  19.601  0.00  0.00    +0.000 A 
ATOM     29  C   UNL     1      43.217   7.245  18.882  0.00  0.00    +0.000 A 
ATOM     30  C   UNL     1      44.421   6.784  19.363  0.00  0.00    +0.000 A 
ATOM     31  C   UNL     1      44.545   6.105  20.544  0.00  0.00    +0.000 A 
ATOM     32  C   UNL     1      43.380   5.884  21.277  0.00  0.00    +0.000 A 
ATOM     33  C   UNL     1      42.182   6.346  20.795  0.00  0.00    +0.000 A 
ENDBRANCH  25  28
ENDBRANCH  22  25
ENDBRANCH  18  19
ENDBRANCH   1  18
TORSDOF 8
ENDMDL
MODEL 2
REMARK VINA RESULT:      -8.7      1.122      1.244
REMARK  Name = 
REMARK  8 active torsions:
REMARK  status: ('A' for Active; 'I' for Inactive)
REMARK    1  A    between atoms: O_2  and  C_3
REMARK    2  A    between atoms: C_3  and  C_5
REMARK    3  A    between atoms: N_8  and  C_9
REMARK    4  A    between atoms: C_9  and  C_10
REMARK    5  A    between atoms: C_10  and  O_11
REMARK    6  A    between atoms: O_11  and  C_12
REMARK    7  A    between atoms: C_15  and  C_16
REMARK    8  A    between atoms: C_16  and  C_19
REMARK                            x       y       z     vdW  Elec       q    Type
REMARK                         _______ _______ _______ _____ _____    ______ ____
ROOT
ATOM      1  C   UNL     1      37.167   3.001  15.840  0.00  0.00    +0.000 C 
ENDROOT
BRANCH   1   2
ATOM      2  C   UNL     1      36.732   1.954  14.847  0.00  0.00    +0.000 C 
BRANCH   2   6
ATOM      3  C   UNL     1      37.011  -1.247  16.561  0.00  0.00    +0.000 A 
ATOM      4  C   UNL     1      36.319  -0.083  16.265  0.00  0.00    +0.000 A 
ATOM      5  C   UNL     1      34.967   0.267  16.814  0.00  0.00    +0.000 C 
ATOM      6  N   UNL     1      37.064   0.663  15.416  0.00  0.00    +0.000 N 
ATOM      7  C   UNL     1      38.215   0.019  15.152  0.00  0.00    +0.000 A 
ATOM      8  C   UNL     1      39.295   0.364  14.348  0.00  0.00    +0.000 A 
ATOM      9  C   UNL     1      40.376  -0.455  14.226  0.00  0.00    +0.000 A 
ATOM     10  C   UNL     1      40.378  -1.643  14.919  0.00  0.00    +0.000 A 
ATOM     11  O   UNL     1      41.476  -2.470  14.790  0.00  0.00    +0.000 OA
ATOM     12  C   UNL     1      39.301  -1.990  15.721  0.00  0.00    +0.000 A 
ATOM     13  C   UNL     1      38.202  -1.167  15.851  0.00  0.00    +0.000 A 
BRANCH   3  14
ATOM     14  C   UNL     1      36.594  -2.346  17.435  0.00  0.00    +0.000 C 
ATOM     15  O   UNL     1      36.064  -3.398  16.985  0.00  0.00    +0.000 OA
BRANCH  14  17
ATOM     16  C   UNL     1      38.072  -2.556  19.315  0.00  0.00    +0.000 C 
ATOM     17  O   UNL     1      36.794  -2.219  18.807  0.00  0.00    +0.000 OA
ENDBRANCH  14  17
ENDBRANCH   3  14
ENDBRANCH   2   6
ENDBRANCH   1   2
BRANCH   1  18
ATOM     18  O   UNL     1      38.427   3.578  15.473  0.00  0.00    +0.000 OA
BRANCH  18  19
ATOM     19  C   UNL     1      38.956   4.518  16.344  0.00  0.00    +0.000 A 
ATOM     20  C   UNL     1      38.541   4.577  17.658  0.00  0.00    +0.000 A 
ATOM     21  C   UNL     1      39.047   5.497  18.552  0.00  0.00    +0.000 A 
ATOM     22  C   UNL     1      40.006   6.418  18.172  0.00  0.00    +0.000 A 
ATOM     23  C   UNL     1      40.426   6.366  16.862  0.00  0.00    +0.000 A 
ATOM     24  C   UNL     1      39.915   5.439  15.968  0.00  0.00    +0.000 A 
BRANCH  22  25
ATOM     25  C   UNL     1      40.553   7.415  19.142  0.00  0.00    +0.000 C 
ATOM     26  C   UNL     1      39.605   7.422  20.347  0.00  0.00    +0.000 C 
ATOM     27  C   UNL     1      40.558   8.781  18.513  0.00  0.00    +0.000 C 
BRANCH  25  28
ATOM     28  C   UNL     1      41.888   6.986  19.632  0.00  0.00    +0.000 A 
ATOM     29  C   UNL     1      43.041   7.281  18.930  0.00  0.00    +0.000 A 
ATOM     30  C   UNL     1      44.263   6.869  19.411  0.00  0.00    +0.000 A 
ATOM     31  C   UNL     1      44.413   6.166  20.574  0.00  0.00    +0.000 A 
ATOM     32  C   UNL     1      43.255   5.864  21.289  0.00  0.00    +0.000 A 
ATOM     33  C   UNL     1      42.039   6.277  20.808  0.00  0.00    +0.000 A 
ENDBRANCH  25  28
ENDBRANCH  22  25
ENDBRANCH  18  19
ENDBRANCH   1  18
TORSDOF 8
ENDMDL
MODEL 3
REMARK VINA RESULT:      -8.7      1.138      2.717
REMARK  Name = 
REMARK  8 active torsions:
REMARK  status: ('A' for Active; 'I' for Inactive)
REMARK    1  A    between atoms: O_2  and  C_3
REMARK    2  A    between atoms: C_3  and  C_5
REMARK    3  A    between atoms: N_8  and  C_9
REMARK    4  A    between atoms: C_9  and  C_10
REMARK    5  A    between atoms: C_10  and  O_11
REMARK    6  A    between atoms: O_11  and  C_12
REMARK    7  A    between atoms: C_15  and  C_16
REMARK    8  A    between atoms: C_16  and  C_19
REMARK                            x       y       z     vdW  Elec       q    Type
REMARK                         _______ _______ _______ _____ _____    ______ ____
ROOT
ATOM      1  C   UNL     1      38.641   2.892  15.016  0.00  0.00    +0.000 C 
ENDROOT
BRANCH   1   2
ATOM      2  C   UNL     1      37.636   1.985  14.353  0.00  0.00    +0.000 C 
BRANCH   2   6
ATOM      3  C   UNL     1      36.294  -0.252  16.895  0.00  0.00    +0.000 A 
ATOM      4  C   UNL     1      36.236   0.915  16.150  0.00  0.00    +0.000 A 
ATOM      5  C   UNL     1      35.160   1.952  16.275  0.00  0.00    +0.000 C 
ATOM      6  N   UNL     1      37.298   0.951  15.311  0.00  0.00    +0.000 N 
ATOM      7  C   UNL     1      38.042  -0.156  15.490  0.00  0.00    +0.000 A 
ATOM      8  C   UNL     1      39.215  -0.581  14.876  0.00  0.00    +0.000 A 
ATOM      9  C   UNL     1      39.806  -1.758  15.220  0.00  0.00    +0.000 A 
ATOM     10  C   UNL     1      39.214  -2.528  16.193  0.00  0.00    +0.000 A 
ATOM     11  O   UNL     1      39.817  -3.721  16.537  0.00  0.00    +0.000 OA
ATOM     12  C   UNL     1      38.043  -2.106  16.806  0.00  0.00    +0.000 A 
ATOM     13  C   UNL     1      37.438  -0.915  16.466  0.00  0.00    +0.000 A 
BRANCH   3  14
ATOM     14  C   UNL     1      35.360  -0.713  17.923  0.00  0.00    +0.000 C 
ATOM     15  O   UNL     1      35.616  -0.620  19.154  0.00  0.00    +0.000 OA
BRANCH  14  17
ATOM     16  C   UNL     1      34.197  -2.494  16.808  0.00  0.00    +0.000 C 
ATOM     17  O   UNL     1      34.149  -1.271  17.522  0.00  0.00    +0.000 OA
ENDBRANCH  14  17
ENDBRANCH   3  14
ENDBRANCH   2   6
ENDBRANCH   1   2
BRANCH   1  18
ATOM     18  O   UNL     1      38.013   4.066  15.548  0.00  0.00    +0.000 OA
BRANCH  18  19
ATOM     19  C   UNL     1      38.727   4.773  16.503  0.00  0.00    +0.000 A 
ATOM     20  C   UNL     1      39.703   5.675  16.133  0.00  0.00    +0.000 A 
ATOM     21  C   UNL     1      40.431   6.395  17.055  0.00  0.00    +0.000 A 
ATOM     22  C   UNL     1      40.219   6.248  18.414  0.00  0.00    +0.000 A 
ATOM     23  C   UNL     1      39.247   5.350  18.792  0.00  0.00    +0.000 A 
ATOM     24  C   UNL     1      38.517   4.629  17.861  0.00  0.00    +0.000 A 
BRANCH  22  25
ATOM     25  C   UNL     1      41.009   7.030  19.413  0.00  0.00    +0.000 C 
ATOM     26  C   UNL     1      42.177   7.666  18.649  0.00  0.00    +0.000 C 
ATOM     27  C   UNL     1      41.556   6.101  20.462  0.00  0.00    +0.000 C 
BRANCH  25  28
ATOM     28  C   UNL     1      40.192   8.136  19.973  0.00  0.00    +0.000 A 
ATOM     29  C   UNL     1      38.851   7.966  20.262  0.00  0.00    +0.000 A 
ATOM     30  C   UNL     1      38.121   9.012  20.779  0.00  0.00    +0.000 A 
ATOM     31  C   UNL     1      38.654  10.245  21.033  0.00  0.00    +0.000 A 
ATOM     32  C   UNL     1      40.006  10.426  20.745  0.00  0.00    +0.000 A 
ATOM     33  C   UNL     1      40.731   9.382  20.230  0.00  0.00    +0.000 A 
ENDBRANCH  25  28
ENDBRANCH  22  25
ENDBRANCH  18  19
ENDBRANCH   1  18
TORSDOF 8
ENDMDL
MODEL 4
REMARK VINA RESULT:      -8.3      1.431      2.724
REMARK  Name = 
REMARK  8 active torsions:
REMARK  status: ('A' for Active; 'I' for Inactive)
REMARK    1  A    between atoms: O_2  and  C_3
REMARK    2  A    between atoms: C_3  and  C_5
REMARK    3  A    between atoms: N_8  and  C_9
REMARK    4  A    between atoms: C_9  and  C_10
REMARK    5  A    between atoms: C_10  and  O_11
REMARK    6  A    between atoms: O_11  and  C_12
REMARK    7  A    between atoms: C_15  and  C_16
REMARK    8  A    between atoms: C_16  and  C_19
REMARK                            x       y       z     vdW  Elec       q    Type
REMARK                         _______ _______ _______ _____ _____    ______ ____
ROOT
ATOM      1  C   UNL     1      37.093   2.972  16.077  0.00  0.00    +0.000 C 
ENDROOT
BRANCH   1   2
ATOM      2  C   UNL     1      36.812   2.014  14.948  0.00  0.00    +0.000 C 
BRANCH   2   6
ATOM      3  C   UNL     1      37.133  -1.314  16.392  0.00  0.00    +0.000 A 
ATOM      4  C   UNL     1      36.417  -0.148  16.174  0.00  0.00    +0.000 A 
ATOM      5  C   UNL     1      35.040   0.118  16.707  0.00  0.00    +0.000 C 
ATOM      6  N   UNL     1      37.164   0.688  15.416  0.00  0.00    +0.000 N 
ATOM      7  C   UNL     1      38.342   0.099  15.136  0.00  0.00    +0.000 A 
ATOM      8  C   UNL     1      39.435   0.542  14.399  0.00  0.00    +0.000 A 
ATOM      9  C   UNL     1      40.542  -0.235  14.243  0.00  0.00    +0.000 A 
ATOM     10  C   UNL     1      40.558  -1.478  14.831  0.00  0.00    +0.000 A 
ATOM     11  O   UNL     1      41.683  -2.262  14.669  0.00  0.00    +0.000 OA
ATOM     12  C   UNL     1      39.468  -1.921  15.566  0.00  0.00    +0.000 A 
ATOM     13  C   UNL     1      38.342  -1.142  15.730  0.00  0.00    +0.000 A 
BRANCH   3  14
ATOM     14  C   UNL     1      36.723  -2.495  17.155  0.00  0.00    +0.000 C 
ATOM     15  O   UNL     1      35.788  -3.250  16.774  0.00  0.00    +0.000 OA
BRANCH  14  17
ATOM     16  C   UNL     1      37.418  -1.786  19.342  0.00  0.00    +0.000 C 
ATOM     17  O   UNL     1      37.393  -2.787  18.340  0.00  0.00    +0.000 OA
ENDBRANCH  14  17
ENDBRANCH   3  14
ENDBRANCH   2   6
ENDBRANCH   1   2
BRANCH   1  18
ATOM     18  O   UNL     1      37.743   4.160  15.606  0.00  0.00    +0.000 OA
BRANCH  18  19
ATOM     19  C   UNL     1      38.532   4.841  16.520  0.00  0.00    +0.000 A 
ATOM     20  C   UNL     1      39.451   5.779  16.101  0.00  0.00    +0.000 A 
ATOM     21  C   UNL     1      40.251   6.475  16.982  0.00  0.00    +0.000 A 
ATOM     22  C   UNL     1      40.171   6.265  18.346  0.00  0.00    +0.000 A 
ATOM     23  C   UNL     1      39.256   5.330  18.774  0.00  0.00    +0.000 A 
ATOM     24  C   UNL     1      38.454   4.633  17.884  0.00  0.00    +0.000 A 
BRANCH  22  25
ATOM     25  C   UNL     1      41.038   7.021  19.301  0.00  0.00    +0.000 C 
ATOM     26  C   UNL     1      42.294   7.433  18.522  0.00  0.00    +0.000 C 
ATOM     27  C   UNL     1      41.438   6.123  20.438  0.00  0.00    +0.000 C 
BRANCH  25  28
ATOM     28  C   UNL     1      40.364   8.268  19.742  0.00  0.00    +0.000 A 
ATOM     29  C   UNL     1      40.871   9.513  19.420  0.00  0.00    +0.000 A 
ATOM     30  C   UNL     1      40.223  10.650  19.845  0.00  0.00    +0.000 A 
ATOM     31  C   UNL     1      39.076  10.626  20.588  0.00  0.00    +0.000 A 
ATOM     32  C   UNL     1      38.557   9.374  20.918  0.00  0.00    +0.000 A 
ATOM     33  C   UNL     1      39.204   8.243  20.493  0.00  0.00    +0.000 A 
ENDBRANCH  25  28
ENDBRANCH  22  25
ENDBRANCH  18  19
ENDBRANCH   1  18
TORSDOF 8
ENDMDL
MODEL 5
REMARK VINA RESULT:      -8.2      1.452      3.890
REMARK  Name = 
REMARK  8 active torsions:
REMARK  status: ('A' for Active; 'I' for Inactive)
REMARK    1  A    between atoms: O_2  and  C_3
REMARK    2  A    between atoms: C_3  and  C_5
REMARK    3  A    between atoms: N_8  and  C_9
REMARK    4  A    between atoms: C_9  and  C_10
REMARK    5  A    between atoms: C_10  and  O_11
REMARK    6  A    between atoms: O_11  and  C_12
REMARK    7  A    between atoms: C_15  and  C_16
REMARK    8  A    between atoms: C_16  and  C_19
REMARK                            x       y       z     vdW  Elec       q    Type
REMARK                         _______ _______ _______ _____ _____    ______ ____
ROOT
ATOM      1  C   UNL     1      38.842   2.351  14.667  0.00  0.00    +0.000 C 
ENDROOT
BRANCH   1   2
ATOM      2  C   UNL     1      37.945   1.329  14.015  0.00  0.00    +0.000 C 
BRANCH   2   6
ATOM      3  C   UNL     1      38.265  -1.820  15.815  0.00  0.00    +0.000 A 
ATOM      4  C   UNL     1      38.593  -0.986  14.758  0.00  0.00    +0.000 A 
ATOM      5  C   UNL     1      39.550  -1.340  13.659  0.00  0.00    +0.000 C 
ATOM      6  N   UNL     1      37.910   0.175  14.890  0.00  0.00    +0.000 N 
ATOM      7  C   UNL     1      37.151   0.119  16.001  0.00  0.00    +0.000 A 
ATOM      8  C   UNL     1      36.283   1.046  16.565  0.00  0.00    +0.000 A 
ATOM      9  C   UNL     1      35.606   0.772  17.714  0.00  0.00    +0.000 A 
ATOM     10  C   UNL     1      35.801  -0.450  18.313  0.00  0.00    +0.000 A 
ATOM     11  O   UNL     1      35.113  -0.722  19.479  0.00  0.00    +0.000 OA
ATOM     12  C   UNL     1      36.668  -1.376  17.752  0.00  0.00    +0.000 A 
ATOM     13  C   UNL     1      37.357  -1.109  16.588  0.00  0.00    +0.000 A 
BRANCH   3  14
ATOM     14  C   UNL     1      38.760  -3.172  16.083  0.00  0.00    +0.000 C 
ATOM     15  O   UNL     1      39.977  -3.410  16.310  0.00  0.00    +0.000 OA
BRANCH  14  17
ATOM     16  C   UNL     1      37.939  -5.165  17.143  0.00  0.00    +0.000 C 
ATOM     17  O   UNL     1      37.849  -4.226  16.086  0.00  0.00    +0.000 OA
ENDBRANCH  14  17
ENDBRANCH   3  14
ENDBRANCH   2   6
ENDBRANCH   1   2
BRANCH   1  18
ATOM     18  O   UNL     1      38.098   3.496  15.105  0.00  0.00    +0.000 OA
BRANCH  18  19
ATOM     19  C   UNL     1      38.723   4.330  16.019  0.00  0.00    +0.000 A 
ATOM     20  C   UNL     1      38.349   4.331  17.346  0.00  0.00    +0.000 A 
ATOM     21  C   UNL     1      38.949   5.146  18.282  0.00  0.00    +0.000 A 
ATOM     22  C   UNL     1      39.968   6.014  17.933  0.00  0.00    +0.000 A 
ATOM     23  C   UNL     1      40.346   6.020  16.610  0.00  0.00    +0.000 A 
ATOM     24  C   UNL     1      39.740   5.198  15.673  0.00  0.00    +0.000 A 
BRANCH  22  25
ATOM     25  C   UNL     1      40.618   6.898  18.949  0.00  0.00    +0.000 C 
ATOM     26  C   UNL     1      41.865   7.491  18.281  0.00  0.00    +0.000 C 
ATOM     27  C   UNL     1      41.040   6.078  20.136  0.00  0.00    +0.000 C 
BRANCH  25  28
ATOM     28  C   UNL     1      39.725   8.031  19.301  0.00  0.00    +0.000 A 
ATOM     29  C   UNL     1      38.925   7.993  20.428  0.00  0.00    +0.000 A 
ATOM     30  C   UNL     1      38.108   9.059  20.728  0.00  0.00    +0.000 A 
ATOM     31  C   UNL     1      38.035  10.187  19.958  0.00  0.00    +0.000 A 
ATOM     32  C   UNL     1      38.838  10.234  18.819  0.00  0.00    +0.000 A 
ATOM     33  C   UNL     1      39.652   9.170  18.524  0.00  0.00    +0.000 A 
ENDBRANCH  25  28
ENDBRANCH  22  25
ENDBRANCH  18  19
ENDBRANCH   1  18
TORSDOF 8
ENDMDL
MODEL 6
REMARK VINA RESULT:      -8.0      5.136      8.287
REMARK  Name = 
REMARK  8 active torsions:
REMARK  status: ('A' for Active; 'I' for Inactive)
REMARK    1  A    between atoms: O_2  and  C_3
REMARK    2  A    between atoms: C_3  and  C_5
REMARK    3  A    between atoms: N_8  and  C_9
REMARK    4  A    between atoms: C_9  and  C_10
REMARK    5  A    between atoms: C_10  and  O_11
REMARK    6  A    between atoms: O_11  and  C_12
REMARK    7  A    between atoms: C_15  and  C_16
REMARK    8  A    between atoms: C_16  and  C_19
REMARK                            x       y       z     vdW  Elec       q    Type
REMARK                         _______ _______ _______ _____ _____    ______ ____
ROOT
ATOM      1  C   UNL     1      39.555   1.781  12.020  0.00  0.00    +0.000 C 
ENDROOT
BRANCH   1   2
ATOM      2  C   UNL     1      39.701   2.688  13.215  0.00  0.00    +0.000 C 
BRANCH   2   6
ATOM      3  C   UNL     1      36.688   4.731  13.298  0.00  0.00    +0.000 A 
ATOM      4  C   UNL     1      37.959   4.459  12.816  0.00  0.00    +0.000 A 
ATOM      5  C   UNL     1      38.680   5.290  11.797  0.00  0.00    +0.000 C 
ATOM      6  N   UNL     1      38.421   3.337  13.416  0.00  0.00    +0.000 N 
ATOM      7  C   UNL     1      37.490   2.874  14.271  0.00  0.00    +0.000 A 
ATOM      8  C   UNL     1      37.486   1.767  15.110  0.00  0.00    +0.000 A 
ATOM      9  C   UNL     1      36.416   1.485  15.903  0.00  0.00    +0.000 A 
ATOM     10  C   UNL     1      35.327   2.324  15.856  0.00  0.00    +0.000 A 
ATOM     11  O   UNL     1      34.245   2.033  16.662  0.00  0.00    +0.000 OA
ATOM     12  C   UNL     1      35.329   3.429  15.018  0.00  0.00    +0.000 A 
ATOM     13  C   UNL     1      36.408   3.723  14.212  0.00  0.00    +0.000 A 
BRANCH   3  14
ATOM     14  C   UNL     1      35.805   5.842  12.935  0.00  0.00    +0.000 C 
ATOM     15  O   UNL     1      35.282   5.938  11.792  0.00  0.00    +0.000 OA
BRANCH  14  17
ATOM     16  C   UNL     1      35.705   8.173  13.502  0.00  0.00    +0.000 C 
ATOM     17  O   UNL     1      35.539   6.820  13.889  0.00  0.00    +0.000 OA
ENDBRANCH  14  17
ENDBRANCH   3  14
ENDBRANCH   2   6
ENDBRANCH   1   2
BRANCH   1  18
ATOM     18  O   UNL     1      40.203   0.521  12.237  0.00  0.00    +0.000 OA
BRANCH  18  19
ATOM     19  C   UNL     1      39.631  -0.317  13.182  0.00  0.00    +0.000 A 
ATOM     20  C   UNL     1      38.401  -0.900  12.958  0.00  0.00    +0.000 A 
ATOM     21  C   UNL     1      37.803  -1.738  13.874  0.00  0.00    +0.000 A 
ATOM     22  C   UNL     1      38.412  -2.041  15.078  0.00  0.00    +0.000 A 
ATOM     23  C   UNL     1      39.640  -1.462  15.311  0.00  0.00    +0.000 A 
ATOM     24  C   UNL     1      40.237  -0.621  14.386  0.00  0.00    +0.000 A 
BRANCH  22  25
ATOM     25  C   UNL     1      37.763  -2.950  16.071  0.00  0.00    +0.000 C 
ATOM     26  C   UNL     1      38.894  -3.588  16.888  0.00  0.00    +0.000 C 
ATOM     27  C   UNL     1      37.009  -4.031  15.349  0.00  0.00    +0.000 C 
BRANCH  25  28
ATOM     28  C   UNL     1      36.920  -2.173  17.016  0.00  0.00    +0.000 A 
ATOM     29  C   UNL     1      37.460  -1.582  18.143  0.00  0.00    +0.000 A 
ATOM     30  C   UNL     1      36.653  -0.869  18.999  0.00  0.00    +0.000 A 
ATOM     31  C   UNL     1      35.310  -0.703  18.800  0.00  0.00    +0.000 A 
ATOM     32  C   UNL     1      34.757  -1.295  17.665  0.00  0.00    +0.000 A 
ATOM     33  C   UNL     1      35.564  -2.004  16.814  0.00  0.00    +0.000 A 
ENDBRANCH  25  28
ENDBRANCH  22  25
ENDBRANCH  18  19
ENDBRANCH   1  18
TORSDOF 8
ENDMDL
MODEL 7
REMARK VINA RESULT:      -8.0      1.483      3.315
REMARK  Name = 
REMARK  8 active torsions:
REMARK  status: ('A' for Active; 'I' for Inactive)
REMARK    1  A    between atoms: O_2  and  C_3
REMARK    2  A    between atoms: C_3  and  C_5
REMARK    3  A    between atoms: N_8  and  C_9
REMARK    4  A    between atoms: C_9  and  C_10
REMARK    5  A    between atoms: C_10  and  O_11
REMARK    6  A    between atoms: O_11  and  C_12
REMARK    7  A    between atoms: C_15  and  C_16
REMARK    8  A    between atoms: C_16  and  C_19
REMARK                            x       y       z     vdW  Elec       q    Type
REMARK                         _______ _______ _______ _____ _____    ______ ____
ROOT
ATOM      1  C   UNL     1      40.211   2.542  13.703  0.00  0.00    +0.000 C 
ENDROOT
BRANCH   1   2
ATOM      2  C   UNL     1      39.180   1.685  13.014  0.00  0.00    +0.000 C 
BRANCH   2   6
ATOM      3  C   UNL     1      37.315   0.002  15.650  0.00  0.00    +0.000 A 
ATOM      4  C   UNL     1      38.404   0.089  14.797  0.00  0.00    +0.000 A 
ATOM      5  C   UNL     1      39.527  -0.904  14.747  0.00  0.00    +0.000 C 
ATOM      6  N   UNL     1      38.275   1.201  14.037  0.00  0.00    +0.000 N 
ATOM      7  C   UNL     1      37.137   1.838  14.371  0.00  0.00    +0.000 A 
ATOM      8  C   UNL     1      36.567   3.009  13.886  0.00  0.00    +0.000 A 
ATOM      9  C   UNL     1      35.387   3.477  14.380  0.00  0.00    +0.000 A 
ATOM     10  C   UNL     1      34.765   2.762  15.376  0.00  0.00    +0.000 A 
ATOM     11  O   UNL     1      33.570   3.241  15.873  0.00  0.00    +0.000 OA
ATOM     12  C   UNL     1      35.333   1.593  15.861  0.00  0.00    +0.000 A 
ATOM     13  C   UNL     1      36.527   1.112  15.368  0.00  0.00    +0.000 A 
BRANCH   3  14
ATOM     14  C   UNL     1      37.030  -1.032  16.647  0.00  0.00    +0.000 C 
ATOM     15  O   UNL     1      36.183  -1.944  16.446  0.00  0.00    +0.000 OA
BRANCH  14  17
ATOM     16  C   UNL     1      36.962  -1.080  19.046  0.00  0.00    +0.000 C 
ATOM     17  O   UNL     1      37.722  -1.001  17.854  0.00  0.00    +0.000 OA
ENDBRANCH  14  17
ENDBRANCH   3  14
ENDBRANCH   2   6
ENDBRANCH   1   2
BRANCH   1  18
ATOM     18  O   UNL     1      39.897   3.935  13.584  0.00  0.00    +0.000 OA
BRANCH  18  19
ATOM     19  C   UNL     1      40.000   4.696  14.739  0.00  0.00    +0.000 A 
ATOM     20  C   UNL     1      39.234   4.405  15.848  0.00  0.00    +0.000 A 
ATOM     21  C   UNL     1      39.312   5.138  17.013  0.00  0.00    +0.000 A 
ATOM     22  C   UNL     1      40.171   6.216  17.129  0.00  0.00    +0.000 A 
ATOM     23  C   UNL     1      40.939   6.514  16.026  0.00  0.00    +0.000 A 
ATOM     24  C   UNL     1      40.857   5.772  14.858  0.00  0.00    +0.000 A 
BRANCH  22  25
ATOM     25  C   UNL     1      40.254   7.011  18.392  0.00  0.00    +0.000 C 
ATOM     26  C   UNL     1      39.167   6.466  19.327  0.00  0.00    +0.000 C 
ATOM     27  C   UNL     1      39.969   8.457  18.098  0.00  0.00    +0.000 C 
BRANCH  25  28
ATOM     28  C   UNL     1      41.562   6.791  19.060  0.00  0.00    +0.000 A 
ATOM     29  C   UNL     1      41.638   6.295  20.348  0.00  0.00    +0.000 A 
ATOM     30  C   UNL     1      42.865   6.102  20.941  0.00  0.00    +0.000 A 
ATOM     31  C   UNL     1      44.050   6.380  20.317  0.00  0.00    +0.000 A 
ATOM     32  C   UNL     1      43.983   6.881  19.018  0.00  0.00    +0.000 A 
ATOM     33  C   UNL     1      42.759   7.071  18.430  0.00  0.00    +0.000 A 
ENDBRANCH  25  28
ENDBRANCH  22  25
ENDBRANCH  18  19
ENDBRANCH   1  18
TORSDOF 8
ENDMDL
MODEL 8
REMARK VINA RESULT:      -7.9      1.699      3.415
REMARK  Name = 
REMARK  8 active torsions:
REMARK  status: ('A' for Active; 'I' for Inactive)
REMARK    1  A    between atoms: O_2  and  C_3
REMARK    2  A    between atoms: C_3  and  C_5
REMARK    3  A    between atoms: N_8  and  C_9
REMARK    4  A    between atoms: C_9  and  C_10
REMARK    5  A    between atoms: C_10  and  O_11
REMARK    6  A    between atoms: O_11  and  C_12
REMARK    7  A    between atoms: C_15  and  C_16
REMARK    8  A    between atoms: C_16  and  C_19
REMARK                            x       y       z     vdW  Elec       q    Type
REMARK                         _______ _______ _______ _____ _____    ______ ____
ROOT
ATOM      1  C   UNL     1      36.808   2.354  16.327  0.00  0.00    +0.000 C 
ENDROOT
BRANCH   1   2
ATOM      2  C   UNL     1      36.486   1.285  15.314  0.00  0.00    +0.000 C 
BRANCH   2   6
ATOM      3  C   UNL     1      39.633  -0.386  14.559  0.00  0.00    +0.000 A 
ATOM      4  C   UNL     1      38.727   0.645  14.365  0.00  0.00    +0.000 A 
ATOM      5  C   UNL     1      38.918   1.775  13.397  0.00  0.00    +0.000 C 
ATOM      6  N   UNL     1      37.666   0.454  15.184  0.00  0.00    +0.000 N 
ATOM      7  C   UNL     1      37.857  -0.668  15.902  0.00  0.00    +0.000 A 
ATOM      8  C   UNL     1      37.067  -1.283  16.867  0.00  0.00    +0.000 A 
ATOM      9  C   UNL     1      37.464  -2.435  17.475  0.00  0.00    +0.000 A 
ATOM     10  C   UNL     1      38.673  -2.982  17.114  0.00  0.00    +0.000 A 
ATOM     11  O   UNL     1      39.071  -4.150  17.735  0.00  0.00    +0.000 OA
ATOM     12  C   UNL     1      39.463  -2.370  16.152  0.00  0.00    +0.000 A 
ATOM     13  C   UNL     1      39.069  -1.204  15.530  0.00  0.00    +0.000 A 
BRANCH   3  14
ATOM     14  C   UNL     1      40.920  -0.593  13.892  0.00  0.00    +0.000 C 
ATOM     15  O   UNL     1      41.929   0.121  14.143  0.00  0.00    +0.000 OA
BRANCH  14  17
ATOM     16  C   UNL     1      42.008  -2.610  13.177  0.00  0.00    +0.000 C 
ATOM     17  O   UNL     1      41.027  -1.614  12.952  0.00  0.00    +0.000 OA
ENDBRANCH  14  17
ENDBRANCH   3  14
ENDBRANCH   2   6
ENDBRANCH   1   2
BRANCH   1  18
ATOM     18  O   UNL     1      37.212   3.573  15.690  0.00  0.00    +0.000 OA
BRANCH  18  19
ATOM     19  C   UNL     1      37.841   4.514  16.492  0.00  0.00    +0.000 A 
ATOM     20  C   UNL     1      37.994   5.816  16.066  0.00  0.00    +0.000 A 
ATOM     21  C   UNL     1      38.613   6.777  16.837  0.00  0.00    +0.000 A 
ATOM     22  C   UNL     1      39.118   6.480  18.090  0.00  0.00    +0.000 A 
ATOM     23  C   UNL     1      38.970   5.182  18.522  0.00  0.00    +0.000 A 
ATOM     24  C   UNL     1      38.346   4.220  17.743  0.00  0.00    +0.000 A 
BRANCH  22  25
ATOM     25  C   UNL     1      39.789   7.522  18.925  0.00  0.00    +0.000 C 
ATOM     26  C   UNL     1      39.105   7.494  20.298  0.00  0.00    +0.000 C 
ATOM     27  C   UNL     1      39.586   8.876  18.303  0.00  0.00    +0.000 C 
BRANCH  25  28
ATOM     28  C   UNL     1      41.218   7.179  19.137  0.00  0.00    +0.000 A 
ATOM     29  C   UNL     1      41.694   6.819  20.384  0.00  0.00    +0.000 A 
ATOM     30  C   UNL     1      43.024   6.507  20.549  0.00  0.00    +0.000 A 
ATOM     31  C   UNL     1      43.932   6.532  19.527  0.00  0.00    +0.000 A 
ATOM     32  C   UNL     1      43.461   6.894  18.265  0.00  0.00    +0.000 A 
ATOM     33  C   UNL     1      42.135   7.204  18.104  0.00  0.00    +0.000 A 
ENDBRANCH  25  28
ENDBRANCH  22  25
ENDBRANCH  18  19
ENDBRANCH   1  18
TORSDOF 8
ENDMDL
MODEL 9
REMARK VINA RESULT:      -7.9     24.514     28.039
REMARK  Name = 
REMARK  8 active torsions:
REMARK  status: ('A' for Active; 'I' for Inactive)
REMARK    1  A    between atoms: O_2  and  C_3
REMARK    2  A    between atoms: C_3  and  C_5
REMARK    3  A    between atoms: N_8  and  C_9
REMARK    4  A    between atoms: C_9  and  C_10
REMARK    5  A    between atoms: C_10  and  O_11
REMARK    6  A    between atoms: O_11  and  C_12
REMARK    7  A    between atoms: C_15  and  C_16
REMARK    8  A    between atoms: C_16  and  C_19
REMARK                            x       y       z     vdW  Elec       q    Type
REMARK                         _______ _______ _______ _____ _____    ______ ____
ROOT
ATOM      1  C   UNL     1      24.476  17.605  37.795  0.00  0.00    +0.000 C 
ENDROOT
BRANCH   1   2
ATOM      2  C   UNL     1      25.688  17.911  36.953  0.00  0.00    +0.000 C 
BRANCH   2   6
ATOM      3  C   UNL     1      24.448  18.375  33.561  0.00  0.00    +0.000 A 
ATOM      4  C   UNL     1      24.684  18.845  34.843  0.00  0.00    +0.000 A 
ATOM      5  C   UNL     1      24.338  20.223  35.322  0.00  0.00    +0.000 C 
ATOM      6  N   UNL     1      25.268  17.861  35.567  0.00  0.00    +0.000 N 
ATOM      7  C   UNL     1      25.417  16.770  34.794  0.00  0.00    +0.000 A 
ATOM      8  C   UNL     1      25.956  15.518  35.069  0.00  0.00    +0.000 A 
ATOM      9  C   UNL     1      26.005  14.545  34.118  0.00  0.00    +0.000 A 
ATOM     10  C   UNL     1      25.508  14.827  32.867  0.00  0.00    +0.000 A 
ATOM     11  O   UNL     1      25.562  13.837  31.907  0.00  0.00    +0.000 OA
ATOM     12  C   UNL     1      24.970  16.076  32.590  0.00  0.00    +0.000 A 
ATOM     13  C   UNL     1      24.915  17.067  33.547  0.00  0.00    +0.000 A 
BRANCH   3  14
ATOM     14  C   UNL     1      23.835  19.088  32.438  0.00  0.00    +0.000 C 
ATOM     15  O   UNL     1      22.591  19.080  32.236  0.00  0.00    +0.000 OA
BRANCH  14  17
ATOM     16  C   UNL     1      24.700  21.206  31.709  0.00  0.00    +0.000 C 
ATOM     17  O   UNL     1      24.660  19.797  31.569  0.00  0.00    +0.000 OA
ENDBRANCH  14  17
ENDBRANCH   3  14
ENDBRANCH   2   6
ENDBRANCH   1   2
BRANCH   1  18
ATOM     18  O   UNL     1      24.263  16.192  37.909  0.00  0.00    +0.000 OA
BRANCH  18  19
ATOM     19  C   UNL     1      24.994  15.530  38.884  0.00  0.00    +0.000 A 
ATOM     20  C   UNL     1      24.455  15.288  40.130  0.00  0.00    +0.000 A 
ATOM     21  C   UNL     1      25.152  14.633  41.122  0.00  0.00    +0.000 A 
ATOM     22  C   UNL     1      26.442  14.180  40.916  0.00  0.00    +0.000 A 
ATOM     23  C   UNL     1      26.989  14.418  39.675  0.00  0.00    +0.000 A 
ATOM     24  C   UNL     1      26.283  15.076  38.681  0.00  0.00    +0.000 A 
BRANCH  22  25
ATOM     25  C   UNL     1      27.198  13.469  41.992  0.00  0.00    +0.000 C 
ATOM     26  C   UNL     1      26.180  13.117  43.085  0.00  0.00    +0.000 C 
ATOM     27  C   UNL     1      28.239  14.388  42.569  0.00  0.00    +0.000 C 
BRANCH  25  28
ATOM     28  C   UNL     1      27.756  12.192  41.480  0.00  0.00    +0.000 A 
ATOM     29  C   UNL     1      26.951  11.089  41.268  0.00  0.00    +0.000 A 
ATOM     30  C   UNL     1      27.498   9.918  40.793  0.00  0.00    +0.000 A 
ATOM     31  C   UNL     1      28.828   9.774  40.510  0.00  0.00    +0.000 A 
ATOM     32  C   UNL     1      29.648  10.882  40.721  0.00  0.00    +0.000 A 
ATOM     33  C   UNL     1      29.100  12.046  41.194  0.00  0.00    +0.000 A 
ENDBRANCH  25  28
ENDBRANCH  22  25
ENDBRANCH  18  19
ENDBRANCH   1  18
TORSDOF 8
ENDMDL
MODEL 10
REMARK VINA RESULT:      -7.8     25.152     28.428
REMARK  Name = 
REMARK  8 active torsions:
REMARK  status: ('A' for Active; 'I' for Inactive)
REMARK    1  A    between atoms: O_2  and  C_3
REMARK    2  A    between atoms: C_3  and  C_5
REMARK    3  A    between atoms: N_8  and  C_9
REMARK    4  A    between atoms: C_9  and  C_10
REMARK    5  A    between atoms: C_10  and  O_11
REMARK    6  A    between atoms: O_11  and  C_12
REMARK    7  A    between atoms: C_15  and  C_16
REMARK    8  A    between atoms: C_16  and  C_19
REMARK                            x       y       z     vdW  Elec       q    Type
REMARK                         _______ _______ _______ _____ _____    ______ ____
ROOT
ATOM      1  C   UNL     1      26.303  13.412  41.182  0.00  0.00    +0.000 C 
ENDROOT
BRANCH   1   2
ATOM      2  C   UNL     1      26.074  12.975  42.606  0.00  0.00    +0.000 C 
BRANCH   2   6
ATOM      3  C   UNL     1      25.584   9.373  42.828  0.00  0.00    +0.000 A 
ATOM      4  C   UNL     1      25.119  10.673  42.953  0.00  0.00    +0.000 A 
ATOM      5  C   UNL     1      23.734  11.043  43.393  0.00  0.00    +0.000 C 
ATOM      6  N   UNL     1      26.115  11.526  42.619  0.00  0.00    +0.000 N 
ATOM      7  C   UNL     1      27.210  10.820  42.280  0.00  0.00    +0.000 A 
ATOM      8  C   UNL     1      28.472  11.229  41.866  0.00  0.00    +0.000 A 
ATOM      9  C   UNL     1      29.446  10.325  41.570  0.00  0.00    +0.000 A 
ATOM     10  C   UNL     1      29.153   8.986  41.687  0.00  0.00    +0.000 A 
ATOM     11  O   UNL     1      30.144   8.074  41.384  0.00  0.00    +0.000 OA
ATOM     12  C   UNL     1      27.894   8.576  42.099  0.00  0.00    +0.000 A 
ATOM     13  C   UNL     1      26.902   9.484  42.402  0.00  0.00    +0.000 A 
BRANCH   3  14
ATOM     14  C   UNL     1      24.858   8.127  43.083  0.00  0.00    +0.000 C 
ATOM     15  O   UNL     1      24.022   7.656  42.265  0.00  0.00    +0.000 OA
BRANCH  14  17
ATOM     16  C   UNL     1      24.049   7.369  45.213  0.00  0.00    +0.000 C 
ATOM     17  O   UNL     1      25.105   7.444  44.271  0.00  0.00    +0.000 OA
ENDBRANCH  14  17
ENDBRANCH   3  14
ENDBRANCH   2   6
ENDBRANCH   1   2
BRANCH   1  18
ATOM     18  O   UNL     1      25.131  14.026  40.630  0.00  0.00    +0.000 OA
BRANCH  18  19
ATOM     19  C   UNL     1      25.313  14.801  39.494  0.00  0.00    +0.000 A 
ATOM     20  C   UNL     1      24.232  15.292  38.792  0.00  0.00    +0.000 A 
ATOM     21  C   UNL     1      24.376  16.066  37.661  0.00  0.00    +0.000 A 
ATOM     22  C   UNL     1      25.625  16.393  37.166  0.00  0.00    +0.000 A 
ATOM     23  C   UNL     1      26.710  15.907  37.861  0.00  0.00    +0.000 A 
ATOM     24  C   UNL     1      26.559  15.130  38.998  0.00  0.00    +0.000 A 
BRANCH  22  25
ATOM     25  C   UNL     1      25.780  17.232  35.939  0.00  0.00    +0.000 C 
ATOM     26  C   UNL     1      27.239  17.706  35.912  0.00  0.00    +0.000 C 
ATOM     27  C   UNL     1      24.876  18.430  36.029  0.00  0.00    +0.000 C 
BRANCH  25  28
ATOM     28  C   UNL     1      25.559  16.417  34.719  0.00  0.00    +0.000 A 
ATOM     29  C   UNL     1      24.942  16.946  33.601  0.00  0.00    +0.000 A 
ATOM     30  C   UNL     1      24.750  16.164  32.485  0.00  0.00    +0.000 A 
ATOM     31  C   UNL     1      25.144  14.857  32.410  0.00  0.00    +0.000 A 
ATOM     32  C   UNL     1      25.767  14.314  33.532  0.00  0.00    +0.000 A 
ATOM     33  C   UNL     1      25.957  15.096  34.643  0.00  0.00    +0.000 A 
ENDBRANCH  25  28
ENDBRANCH  22  25
ENDBRANCH  18  19
ENDBRANCH   1  18
TORSDOF 8
ENDMDL
