MODEL 1
REMARK VINA RESULT:      -6.8      0.000      0.000
REMARK  Name = 
REMARK  3 active torsions:
REMARK  status: ('A' for Active; 'I' for Inactive)
REMARK    1  A    between atoms: C_2  and  C_4
REMARK    2  A    between atoms: N_6  and  C_7
REMARK    3  A    between atoms: C_10  and  N_11
REMARK                            x       y       z     vdW  Elec       q    Type
REMARK                         _______ _______ _______ _____ _____    ______ ____
ROOT
ATOM      1  C   UNL     1      17.652   9.895  39.259  0.00  0.00    +0.000 A 
ATOM      2  N   UNL     1      16.829  10.147  38.189  0.00  0.00    +0.000 NA
ATOM      3  N   UNL     1      17.537  10.221  37.061  0.00  0.00    +0.000 N 
ATOM      4  C   UNL     1      18.852  10.012  37.436  0.00  0.00    +0.000 A 
ATOM      5  C   UNL     1      18.900   9.810  38.782  0.00  0.00    +0.000 A 
ATOM      6  C   UNL     1      20.327   9.593  39.235  0.00  0.00    +0.000 C 
ATOM      7  C   UNL     1      21.138   9.795  37.958  0.00  0.00    +0.000 C 
ATOM      8  N   UNL     1      20.149   9.932  36.858  0.00  0.00    +0.000 NA
ENDROOT
BRANCH   3   9
ATOM      9  C   UNL     1      17.172  10.380  35.691  0.00  0.00    +0.000 A 
ATOM     10  C   UNL     1      17.670   9.809  34.593  0.00  0.00    +0.000 A 
ATOM     11  C   UNL     1      17.208  10.185  33.311  0.00  0.00    +0.000 A 
ATOM     12  C   UNL     1      16.269  11.107  33.114  0.00  0.00    +0.000 A 
ATOM     13  C   UNL     1      15.731  11.714  34.254  0.00  0.00    +0.000 A 
ATOM     14  C   UNL     1      16.167  11.361  35.483  0.00  0.00    +0.000 A 
BRANCH  12  15
ATOM     15  N   UNL     1      15.817  11.553  31.841  0.00  0.00    +0.000 N 
ATOM     16  O   UNL     1      16.251  12.546  31.316  0.00  0.00    +0.000 OA
ATOM     17  O   UNL     1      14.815  10.858  31.171  0.00  0.00    +0.000 OA
ENDBRANCH  12  15
ENDBRANCH   3   9
BRANCH   1  19
ATOM     18  C   UNL     1      15.600   9.547  40.678  0.00  0.00    +0.000 C 
ATOM     19  C   UNL     1      17.182   9.528  40.665  0.00  0.00    +0.000 C 
ATOM     20  C   UNL     1      17.421   7.909  40.626  0.00  0.00    +0.000 C 
ENDBRANCH   1  19
TORSDOF 3
ENDMDL
MODEL 2
REMARK VINA RESULT:      -6.3      0.944      3.189
REMARK  Name = 
REMARK  3 active torsions:
REMARK  status: ('A' for Active; 'I' for Inactive)
REMARK    1  A    between atoms: C_2  and  C_4
REMARK    2  A    between atoms: N_6  and  C_7
REMARK    3  A    between atoms: C_10  and  N_11
REMARK                            x       y       z     vdW  Elec       q    Type
REMARK                         _______ _______ _______ _____ _____    ______ ____
ROOT
ATOM      1  C   UNL     1      19.894   9.725  38.289  0.00  0.00    +0.000 A 
ATOM      2  N   UNL     1      19.548  10.075  37.008  0.00  0.00    +0.000 NA
ATOM      3  N   UNL     1      18.233  10.283  36.919  0.00  0.00    +0.000 N 
ATOM      4  C   UNL     1      17.736  10.052  38.189  0.00  0.00    +0.000 A 
ATOM      5  C   UNL     1      18.767   9.717  39.012  0.00  0.00    +0.000 A 
ATOM      6  C   UNL     1      18.261   9.440  40.410  0.00  0.00    +0.000 C 
ATOM      7  C   UNL     1      16.747   9.568  40.269  0.00  0.00    +0.000 C 
ATOM      8  N   UNL     1      16.501  10.068  38.893  0.00  0.00    +0.000 NA
ENDROOT
BRANCH   3   9
ATOM      9  C   UNL     1      17.388  10.734  35.861  0.00  0.00    +0.000 A 
ATOM     10  C   UNL     1      16.365  11.590  35.879  0.00  0.00    +0.000 A 
ATOM     11  C   UNL     1      15.603  11.827  34.712  0.00  0.00    +0.000 A 
ATOM     12  C   UNL     1      15.845  11.231  33.546  0.00  0.00    +0.000 A 
ATOM     13  C   UNL     1      16.917  10.334  33.507  0.00  0.00    +0.000 A 
ATOM     14  C   UNL     1      17.651  10.101  34.617  0.00  0.00    +0.000 A 
BRANCH  12  15
ATOM     15  N   UNL     1      15.069  11.399  32.366  0.00  0.00    +0.000 N 
ATOM     16  O   UNL     1      14.907  10.509  31.571  0.00  0.00    +0.000 OA
ATOM     17  O   UNL     1      14.493  12.632  32.077  0.00  0.00    +0.000 OA
ENDBRANCH  12  15
ENDBRANCH   3   9
BRANCH   1  19
ATOM     18  C   UNL     1      22.309   9.599  37.583  0.00  0.00    +0.000 C 
ATOM     19  C   UNL     1      21.323   9.625  38.820  0.00  0.00    +0.000 C 
ATOM     20  C   UNL     1      21.552  11.173  39.301  0.00  0.00    +0.000 C 
ENDBRANCH   1  19
TORSDOF 3
ENDMDL
MODEL 3
REMARK VINA RESULT:      -6.2      3.590      5.816
REMARK  Name = 
REMARK  3 active torsions:
REMARK  status: ('A' for Active; 'I' for Inactive)
REMARK    1  A    between atoms: C_2  and  C_4
REMARK    2  A    between atoms: N_6  and  C_7
REMARK    3  A    between atoms: C_10  and  N_11
REMARK                            x       y       z     vdW  Elec       q    Type
REMARK                         _______ _______ _______ _____ _____    ______ ____
ROOT
ATOM      1  C   UNL     1      14.719  11.412  37.197  0.00  0.00    +0.000 A 
ATOM      2  N   UNL     1      15.856  11.054  37.878  0.00  0.00    +0.000 NA
ATOM      3  N   UNL     1      16.911  11.062  37.062  0.00  0.00    +0.000 N 
ATOM      4  C   UNL     1      16.419  11.434  35.824  0.00  0.00    +0.000 A 
ATOM      5  C   UNL     1      15.078  11.647  35.929  0.00  0.00    +0.000 A 
ATOM      6  C   UNL     1      14.497  12.042  34.589  0.00  0.00    +0.000 C 
ATOM      7  C   UNL     1      15.690  11.935  33.642  0.00  0.00    +0.000 C 
ATOM      8  N   UNL     1      16.874  11.670  34.498  0.00  0.00    +0.000 NA
ENDROOT
BRANCH   3   9
ATOM      9  C   UNL     1      18.306  10.852  37.273  0.00  0.00    +0.000 A 
ATOM     10  C   UNL     1      19.172  11.511  38.045  0.00  0.00    +0.000 A 
ATOM     11  C   UNL     1      20.547  11.180  38.034  0.00  0.00    +0.000 A 
ATOM     12  C   UNL     1      21.060  10.214  37.276  0.00  0.00    +0.000 A 
ATOM     13  C   UNL     1      20.167   9.507  36.464  0.00  0.00    +0.000 A 
ATOM     14  C   UNL     1      18.852   9.817  36.468  0.00  0.00    +0.000 A 
BRANCH  12  15
ATOM     15  N   UNL     1      22.442   9.887  37.194  0.00  0.00    +0.000 N 
ATOM     16  O   UNL     1      23.050   9.428  38.127  0.00  0.00    +0.000 OA
ATOM     17  O   UNL     1      23.149  10.126  36.020  0.00  0.00    +0.000 OA
ENDBRANCH  12  15
ENDBRANCH   3   9
BRANCH   1  19
ATOM     18  C   UNL     1      12.242  10.992  37.005  0.00  0.00    +0.000 C 
ATOM     19  C   UNL     1      13.369  11.725  37.840  0.00  0.00    +0.000 C 
ATOM     20  C   UNL     1      13.432  10.718  39.129  0.00  0.00    +0.000 C 
ENDBRANCH   1  19
TORSDOF 3
ENDMDL
MODEL 4
REMARK VINA RESULT:      -6.1      4.062      5.524
REMARK  Name = 
REMARK  3 active torsions:
REMARK  status: ('A' for Active; 'I' for Inactive)
REMARK    1  A    between atoms: C_2  and  C_4
REMARK    2  A    between atoms: N_6  and  C_7
REMARK    3  A    between atoms: C_10  and  N_11
REMARK                            x       y       z     vdW  Elec       q    Type
REMARK                         _______ _______ _______ _____ _____    ______ ____
ROOT
ATOM      1  C   UNL     1      16.705   9.625  39.903  0.00  0.00    +0.000 A 
ATOM      2  N   UNL     1      18.048   9.425  39.698  0.00  0.00    +0.000 NA
ATOM      3  N   UNL     1      18.444  10.025  38.573  0.00  0.00    +0.000 N 
ATOM      4  C   UNL     1      17.309  10.620  38.053  0.00  0.00    +0.000 A 
ATOM      5  C   UNL     1      16.258  10.368  38.883  0.00  0.00    +0.000 A 
ATOM      6  C   UNL     1      14.991  10.990  38.340  0.00  0.00    +0.000 C 
ATOM      7  C   UNL     1      15.431  11.573  36.999  0.00  0.00    +0.000 C 
ATOM      8  N   UNL     1      16.906  11.412  36.943  0.00  0.00    +0.000 NA
ENDROOT
BRANCH   3   9
ATOM      9  C   UNL     1      19.718  10.191  37.955  0.00  0.00    +0.000 A 
ATOM     10  C   UNL     1      20.205   9.673  36.826  0.00  0.00    +0.000 A 
ATOM     11  C   UNL     1      21.546   9.908  36.443  0.00  0.00    +0.000 A 
ATOM     12  C   UNL     1      22.393  10.642  37.160  0.00  0.00    +0.000 A 
ATOM     13  C   UNL     1      21.899  11.199  38.345  0.00  0.00    +0.000 A 
ATOM     14  C   UNL     1      20.620  10.979  38.719  0.00  0.00    +0.000 A 
BRANCH  12  15
ATOM     15  N   UNL     1      23.762  10.856  36.839  0.00  0.00    +0.000 N 
ATOM     16  O   UNL     1      24.333  11.882  37.110  0.00  0.00    +0.000 OA
ATOM     17  O   UNL     1      24.483   9.879  36.161  0.00  0.00    +0.000 OA
ENDBRANCH  12  15
ENDBRANCH   3   9
BRANCH   1  19
ATOM     18  C   UNL     1      15.978   7.708  41.367  0.00  0.00    +0.000 C 
ATOM     19  C   UNL     1      15.950   9.280  41.184  0.00  0.00    +0.000 C 
ATOM     20  C   UNL     1      17.080   9.689  42.295  0.00  0.00    +0.000 C 
ENDBRANCH   1  19
TORSDOF 3
ENDMDL
MODEL 5
REMARK VINA RESULT:      -6.1      1.559      2.096
REMARK  Name = 
REMARK  3 active torsions:
REMARK  status: ('A' for Active; 'I' for Inactive)
REMARK    1  A    between atoms: C_2  and  C_4
REMARK    2  A    between atoms: N_6  and  C_7
REMARK    3  A    between atoms: C_10  and  N_11
REMARK                            x       y       z     vdW  Elec       q    Type
REMARK                         _______ _______ _______ _____ _____    ______ ____
ROOT
ATOM      1  C   UNL     1      19.167   9.319  39.395  0.00  0.00    +0.000 A 
ATOM      2  N   UNL     1      18.276   9.151  38.364  0.00  0.00    +0.000 NA
ATOM      3  N   UNL     1      18.214  10.253  37.615  0.00  0.00    +0.000 N 
ATOM      4  C   UNL     1      19.095  11.146  38.197  0.00  0.00    +0.000 A 
ATOM      5  C   UNL     1      19.671  10.554  39.281  0.00  0.00    +0.000 A 
ATOM      6  C   UNL     1      20.632  11.507  39.957  0.00  0.00    +0.000 C 
ATOM      7  C   UNL     1      20.466  12.799  39.162  0.00  0.00    +0.000 C 
ATOM      8  N   UNL     1      19.588  12.467  38.012  0.00  0.00    +0.000 NA
ENDROOT
BRANCH   3   9
ATOM      9  C   UNL     1      17.524  10.572  36.408  0.00  0.00    +0.000 A 
ATOM     10  C   UNL     1      16.451  11.338  36.203  0.00  0.00    +0.000 A 
ATOM     11  C   UNL     1      15.876  11.446  34.916  0.00  0.00    +0.000 A 
ATOM     12  C   UNL     1      16.351  10.810  33.847  0.00  0.00    +0.000 A 
ATOM     13  C   UNL     1      17.480  10.006  34.041  0.00  0.00    +0.000 A 
ATOM     14  C   UNL     1      18.035   9.897  35.267  0.00  0.00    +0.000 A 
BRANCH  12  15
ATOM     15  N   UNL     1      15.770  10.848  32.549  0.00  0.00    +0.000 N 
ATOM     16  O   UNL     1      16.177  11.580  31.684  0.00  0.00    +0.000 OA
ATOM     17  O   UNL     1      14.673  10.046  32.250  0.00  0.00    +0.000 OA
ENDBRANCH  12  15
ENDBRANCH   3   9
BRANCH   1  19
ATOM     18  C   UNL     1      19.108   8.494  41.774  0.00  0.00    +0.000 C 
ATOM     19  C   UNL     1      19.663   8.210  40.320  0.00  0.00    +0.000 C 
ATOM     20  C   UNL     1      18.644   7.005  39.885  0.00  0.00    +0.000 C 
ENDBRANCH   1  19
TORSDOF 3
ENDMDL
MODEL 6
REMARK VINA RESULT:      -6.0     18.713     20.234
REMARK  Name = 
REMARK  3 active torsions:
REMARK  status: ('A' for Active; 'I' for Inactive)
REMARK    1  A    between atoms: C_2  and  C_4
REMARK    2  A    between atoms: N_6  and  C_7
REMARK    3  A    between atoms: C_10  and  N_11
REMARK                            x       y       z     vdW  Elec       q    Type
REMARK                         _______ _______ _______ _____ _____    ______ ____
ROOT
ATOM      1  C   UNL     1      31.081  22.561  29.365  0.00  0.00    +0.000 A 
ATOM      2  N   UNL     1      31.134  22.717  28.002  0.00  0.00    +0.000 NA
ATOM      3  N   UNL     1      29.905  22.852  27.498  0.00  0.00    +0.000 N 
ATOM      4  C   UNL     1      29.051  22.774  28.583  0.00  0.00    +0.000 A 
ATOM      5  C   UNL     1      29.789  22.601  29.715  0.00  0.00    +0.000 A 
ATOM      6  C   UNL     1      28.888  22.495  30.925  0.00  0.00    +0.000 C 
ATOM      7  C   UNL     1      27.485  22.535  30.325  0.00  0.00    +0.000 C 
ATOM      8  N   UNL     1      27.662  22.830  28.881  0.00  0.00    +0.000 NA
ENDROOT
BRANCH   3   9
ATOM      9  C   UNL     1      29.415  23.115  26.185  0.00  0.00    +0.000 A 
ATOM     10  C   UNL     1      28.166  23.124  25.715  0.00  0.00    +0.000 A 
ATOM     11  C   UNL     1      27.914  23.329  24.339  0.00  0.00    +0.000 A 
ATOM     12  C   UNL     1      28.877  23.522  23.440  0.00  0.00    +0.000 A 
ATOM     13  C   UNL     1      30.193  23.521  23.915  0.00  0.00    +0.000 A 
ATOM     14  C   UNL     1      30.443  23.327  25.228  0.00  0.00    +0.000 A 
BRANCH  12  15
ATOM     15  N   UNL     1      28.670  23.676  22.041  0.00  0.00    +0.000 N 
ATOM     16  O   UNL     1      27.637  23.363  21.506  0.00  0.00    +0.000 OA
ATOM     17  O   UNL     1      29.688  24.170  21.233  0.00  0.00    +0.000 OA
ENDBRANCH  12  15
ENDBRANCH   3   9
BRANCH   1  19
ATOM     18  C   UNL     1      32.374  21.207  31.050  0.00  0.00    +0.000 C 
ATOM     19  C   UNL     1      32.285  22.599  30.303  0.00  0.00    +0.000 C 
ATOM     20  C   UNL     1      33.492  22.386  29.218  0.00  0.00    +0.000 C 
ENDBRANCH   1  19
TORSDOF 3
ENDMDL
MODEL 7
REMARK VINA RESULT:      -6.0      3.927      6.222
REMARK  Name = 
REMARK  3 active torsions:
REMARK  status: ('A' for Active; 'I' for Inactive)
REMARK    1  A    between atoms: C_2  and  C_4
REMARK    2  A    between atoms: N_6  and  C_7
REMARK    3  A    between atoms: C_10  and  N_11
REMARK                            x       y       z     vdW  Elec       q    Type
REMARK                         _______ _______ _______ _____ _____    ______ ____
ROOT
ATOM      1  C   UNL     1      16.976  10.763  37.561  0.00  0.00    +0.000 A 
ATOM      2  N   UNL     1      18.199  11.106  37.039  0.00  0.00    +0.000 NA
ATOM      3  N   UNL     1      19.176  10.797  37.893  0.00  0.00    +0.000 N 
ATOM      4  C   UNL     1      18.544  10.243  38.992  0.00  0.00    +0.000 A 
ATOM      5  C   UNL     1      17.200  10.228  38.767  0.00  0.00    +0.000 A 
ATOM      6  C   UNL     1      16.470   9.643  39.956  0.00  0.00    +0.000 C 
ATOM      7  C   UNL     1      17.584   9.400  40.970  0.00  0.00    +0.000 C 
ATOM      8  N   UNL     1      18.857   9.683  40.261  0.00  0.00    +0.000 NA
ENDROOT
BRANCH   3   9
ATOM      9  C   UNL     1      20.598  10.867  37.813  0.00  0.00    +0.000 A 
ATOM     10  C   UNL     1      21.457  11.696  38.409  0.00  0.00    +0.000 A 
ATOM     11  C   UNL     1      22.838  11.640  38.113  0.00  0.00    +0.000 A 
ATOM     12  C   UNL     1      23.365  10.780  37.244  0.00  0.00    +0.000 A 
ATOM     13  C   UNL     1      22.481   9.898  36.613  0.00  0.00    +0.000 A 
ATOM     14  C   UNL     1      21.160   9.945  36.890  0.00  0.00    +0.000 A 
BRANCH  12  15
ATOM     15  N   UNL     1      24.739  10.727  36.877  0.00  0.00    +0.000 N 
ATOM     16  O   UNL     1      25.102  10.320  35.803  0.00  0.00    +0.000 OA
ATOM     17  O   UNL     1      25.720  11.123  37.780  0.00  0.00    +0.000 OA
ENDBRANCH  12  15
ENDBRANCH   3   9
BRANCH   1  19
ATOM     18  C   UNL     1      14.731  11.895  37.394  0.00  0.00    +0.000 C 
ATOM     19  C   UNL     1      15.658  10.763  36.790  0.00  0.00    +0.000 C 
ATOM     20  C   UNL     1      16.134  11.523  35.421  0.00  0.00    +0.000 C 
ENDBRANCH   1  19
TORSDOF 3
ENDMDL
MODEL 8
REMARK VINA RESULT:      -5.8      4.742      7.069
REMARK  Name = 
REMARK  3 active torsions:
REMARK  status: ('A' for Active; 'I' for Inactive)
REMARK    1  A    between atoms: C_2  and  C_4
REMARK    2  A    between atoms: N_6  and  C_7
REMARK    3  A    between atoms: C_10  and  N_11
REMARK                            x       y       z     vdW  Elec       q    Type
REMARK                         _______ _______ _______ _____ _____    ______ ____
ROOT
ATOM      1  C   UNL     1      17.733  11.452  37.319  0.00  0.00    +0.000 A 
ATOM      2  N   UNL     1      17.151  10.305  37.801  0.00  0.00    +0.000 NA
ATOM      3  N   UNL     1      17.861   9.813  38.818  0.00  0.00    +0.000 N 
ATOM      4  C   UNL     1      18.928  10.679  38.978  0.00  0.00    +0.000 A 
ATOM      5  C   UNL     1      18.828  11.676  38.055  0.00  0.00    +0.000 A 
ATOM      6  C   UNL     1      19.987  12.638  38.186  0.00  0.00    +0.000 C 
ATOM      7  C   UNL     1      20.851  12.004  39.273  0.00  0.00    +0.000 C 
ATOM      8  N   UNL     1      20.072  10.856  39.802  0.00  0.00    +0.000 NA
ENDROOT
BRANCH   3   9
ATOM      9  C   UNL     1      17.660   8.713  39.703  0.00  0.00    +0.000 A 
ATOM     10  C   UNL     1      16.817   8.574  40.729  0.00  0.00    +0.000 A 
ATOM     11  C   UNL     1      16.849   7.413  41.536  0.00  0.00    +0.000 A 
ATOM     12  C   UNL     1      17.695   6.405  41.335  0.00  0.00    +0.000 A 
ATOM     13  C   UNL     1      18.582   6.531  40.260  0.00  0.00    +0.000 A 
ATOM     14  C   UNL     1      18.559   7.637  39.485  0.00  0.00    +0.000 A 
BRANCH  12  15
ATOM     15  N   UNL     1      17.797   5.247  42.155  0.00  0.00    +0.000 N 
ATOM     16  O   UNL     1      18.492   4.309  41.859  0.00  0.00    +0.000 OA
ATOM     17  O   UNL     1      17.054   5.153  43.328  0.00  0.00    +0.000 OA
ENDBRANCH  12  15
ENDBRANCH   3   9
BRANCH   1  19
ATOM     18  C   UNL     1      16.880  11.624  34.954  0.00  0.00    +0.000 C 
ATOM     19  C   UNL     1      17.094  12.407  36.313  0.00  0.00    +0.000 C 
ATOM     20  C   UNL     1      15.551  12.400  36.860  0.00  0.00    +0.000 C 
ENDBRANCH   1  19
TORSDOF 3
ENDMDL
MODEL 9
REMARK VINA RESULT:      -5.8     17.942     19.528
REMARK  Name = 
REMARK  3 active torsions:
REMARK  status: ('A' for Active; 'I' for Inactive)
REMARK    1  A    between atoms: C_2  and  C_4
REMARK    2  A    between atoms: N_6  and  C_7
REMARK    3  A    between atoms: C_10  and  N_11
REMARK                            x       y       z     vdW  Elec       q    Type
REMARK                         _______ _______ _______ _____ _____    ______ ____
ROOT
ATOM      1  C   UNL     1      34.058   2.886  36.607  0.00  0.00    +0.000 A 
ATOM      2  N   UNL     1      33.938   1.541  36.855  0.00  0.00    +0.000 NA
ATOM      3  N   UNL     1      33.718   0.874  35.720  0.00  0.00    +0.000 N 
ATOM      4  C   UNL     1      33.697   1.835  34.725  0.00  0.00    +0.000 A 
ATOM      5  C   UNL     1      33.912   3.057  35.287  0.00  0.00    +0.000 A 
ATOM      6  C   UNL     1      33.880   4.139  34.231  0.00  0.00    +0.000 C 
ATOM      7  C   UNL     1      33.515   3.380  32.958  0.00  0.00    +0.000 C 
ATOM      8  N   UNL     1      33.536   1.940  33.316  0.00  0.00    +0.000 NA
ENDROOT
BRANCH   3   9
ATOM      9  C   UNL     1      33.602  -0.514  35.414  0.00  0.00    +0.000 A 
ATOM     10  C   UNL     1      34.535  -1.403  35.071  0.00  0.00    +0.000 A 
ATOM     11  C   UNL     1      34.178  -2.726  34.722  0.00  0.00    +0.000 A 
ATOM     12  C   UNL     1      32.922  -3.166  34.712  0.00  0.00    +0.000 A 
ATOM     13  C   UNL     1      31.929  -2.249  35.075  0.00  0.00    +0.000 A 
ATOM     14  C   UNL     1      32.262  -0.983  35.409  0.00  0.00    +0.000 A 
BRANCH  12  15
ATOM     15  N   UNL     1      32.515  -4.470  34.315  0.00  0.00    +0.000 N 
ATOM     16  O   UNL     1      33.023  -5.046  33.387  0.00  0.00    +0.000 OA
ATOM     17  O   UNL     1      31.477  -5.113  34.981  0.00  0.00    +0.000 OA
ENDBRANCH  12  15
ENDBRANCH   3   9
BRANCH   1  19
ATOM     18  C   UNL     1      33.372   4.995  37.803  0.00  0.00    +0.000 C 
ATOM     19  C   UNL     1      34.528   3.930  37.618  0.00  0.00    +0.000 C 
ATOM     20  C   UNL     1      34.325   3.086  39.006  0.00  0.00    +0.000 C 
ENDBRANCH   1  19
TORSDOF 3
ENDMDL
MODEL 10
REMARK VINA RESULT:      -5.7     20.570     22.656
REMARK  Name = 
REMARK  3 active torsions:
REMARK  status: ('A' for Active; 'I' for Inactive)
REMARK    1  A    between atoms: C_2  and  C_4
REMARK    2  A    between atoms: N_6  and  C_7
REMARK    3  A    between atoms: C_10  and  N_11
REMARK                            x       y       z     vdW  Elec       q    Type
REMARK                         _______ _______ _______ _____ _____    ______ ____
ROOT
ATOM      1  C   UNL     1      33.265  -2.227  34.386  0.00  0.00    +0.000 A 
ATOM      2  N   UNL     1      33.609  -2.688  33.139  0.00  0.00    +0.000 NA
ATOM      3  N   UNL     1      33.740  -4.016  33.152  0.00  0.00    +0.000 N 
ATOM      4  C   UNL     1      33.470  -4.401  34.453  0.00  0.00    +0.000 A 
ATOM      5  C   UNL     1      33.178  -3.293  35.190  0.00  0.00    +0.000 A 
ATOM      6  C   UNL     1      32.892  -3.671  36.626  0.00  0.00    +0.000 C 
ATOM      7  C   UNL     1      33.157  -5.175  36.655  0.00  0.00    +0.000 C 
ATOM      8  N   UNL     1      33.394  -5.579  35.246  0.00  0.00    +0.000 NA
ENDROOT
BRANCH   3   9
ATOM      9  C   UNL     1      33.999  -4.979  32.132  0.00  0.00    +0.000 A 
ATOM     10  C   UNL     1      35.087  -5.715  31.896  0.00  0.00    +0.000 A 
ATOM     11  C   UNL     1      35.158  -6.554  30.760  0.00  0.00    +0.000 A 
ATOM     12  C   UNL     1      34.173  -6.667  29.872  0.00  0.00    +0.000 A 
ATOM     13  C   UNL     1      33.022  -5.907  30.106  0.00  0.00    +0.000 A 
ATOM     14  C   UNL     1      32.946  -5.103  31.188  0.00  0.00    +0.000 A 
BRANCH  12  15
ATOM     15  N   UNL     1      34.227  -7.455  28.689  0.00  0.00    +0.000 N 
ATOM     16  O   UNL     1      33.457  -7.297  27.776  0.00  0.00    +0.000 OA
ATOM     17  O   UNL     1      35.168  -8.472  28.568  0.00  0.00    +0.000 OA
ENDBRANCH  12  15
ENDBRANCH   3   9
BRANCH   1  19
ATOM     18  C   UNL     1      33.725  -0.249  35.877  0.00  0.00    +0.000 C 
ATOM     19  C   UNL     1      32.818  -0.802  34.704  0.00  0.00    +0.000 C 
ATOM     20  C   UNL     1      33.505  -0.006  33.450  0.00  0.00    +0.000 C 
ENDBRANCH   1  19
TORSDOF 3
ENDMDL
