MODEL 1
REMARK VINA RESULT:      -7.4      0.000      0.000
REMARK  Name = 
REMARK  8 active torsions:
REMARK  status: ('A' for Active; 'I' for Inactive)
REMARK    1  A    between atoms: C_3  and  C_4
REMARK    2  A    between atoms: N_6  and  C_7
REMARK    3  A    between atoms: C_7  and  C_8
REMARK    4  A    between atoms: C_15  and  O_16
REMARK    5  A    between atoms: O_16  and  C_17
REMARK    6  A    between atoms: C_17  and  C_18
REMARK    7  A    between atoms: N_27  and  C_28
REMARK    8  A    between atoms: C_28  and  C_29
REMARK                            x       y       z     vdW  Elec       q    Type
REMARK                         _______ _______ _______ _____ _____    ______ ____
ROOT
ATOM      1  C   UNL     1      40.151   4.630  14.332  0.00  0.00    +0.000 C 
ATOM      2  C   UNL     1      39.047   3.765  14.806  0.00  0.00    +0.000 A 
ATOM      3  C   UNL     1      38.900   2.424  14.542  0.00  0.00    +0.000 A 
ATOM      4  C   UNL     1      37.737   2.044  15.182  0.00  0.00    +0.000 A 
ATOM      5  C   UNL     1      37.083   0.810  15.270  0.00  0.00    +0.000 A 
ATOM      6  C   UNL     1      35.911   0.663  15.978  0.00  0.00    +0.000 A 
ATOM      7  C   UNL     1      35.424   1.797  16.592  0.00  0.00    +0.000 A 
ATOM      8  C   UNL     1      36.053   3.013  16.515  0.00  0.00    +0.000 A 
ATOM      9  C   UNL     1      37.236   3.152  15.797  0.00  0.00    +0.000 A 
ATOM     10  N   UNL     1      38.038   4.215  15.569  0.00  0.00    +0.000 N 
ENDROOT
BRANCH   3  11
ATOM     11  C   UNL     1      39.781   1.555  13.747  0.00  0.00    +0.000 C 
ATOM     12  O   UNL     1      39.825   1.635  12.495  0.00  0.00    +0.000 OA
ATOM     13  N   UNL     1      40.610   0.601  14.334  0.00  0.00    +0.000 NA
BRANCH  13  14
ATOM     14  C   UNL     1      41.496  -0.324  13.955  0.00  0.00    +0.000 C 
BRANCH  14  15
ATOM     15  C   UNL     1      41.014  -1.849  13.781  0.00  0.00    +0.000 C 
ATOM     16  C   UNL     1      39.693  -1.757  14.776  0.00  0.00    +0.000 C 
ATOM     17  C   UNL     1      38.904  -2.846  14.065  0.00  0.00    +0.000 C 
ATOM     18  C   UNL     1      39.405  -2.756  12.648  0.00  0.00    +0.000 C 
ATOM     19  O   UNL     1      40.167  -1.602  12.577  0.00  0.00    +0.000 OA
ENDBRANCH  14  15
ENDBRANCH  13  14
ENDBRANCH   3  11
BRANCH   6  20
ATOM     20  O   UNL     1      35.222  -0.533  16.099  0.00  0.00    +0.000 OA
BRANCH  20  21
ATOM     21  C   UNL     1      34.983  -1.146  17.353  0.00  0.00    +0.000 C 
BRANCH  21  22
ATOM     22  C   UNL     1      36.227  -1.862  17.731  0.00  0.00    +0.000 A 
ATOM     23  C   UNL     1      37.024  -1.412  18.746  0.00  0.00    +0.000 A 
ATOM     24  C   UNL     1      38.168  -2.071  19.094  0.00  0.00    +0.000 A 
ATOM     25  C   UNL     1      38.496  -3.216  18.383  0.00  0.00    +0.000 A 
ATOM     26  C   UNL     1      37.717  -3.697  17.357  0.00  0.00    +0.000 A 
ATOM     27  C   UNL     1      36.570  -2.997  17.041  0.00  0.00    +0.000 A 
ENDBRANCH  21  22
ENDBRANCH  20  21
ENDBRANCH   6  20
BRANCH  10  28
ATOM     28  C   UNL     1      37.740   5.498  16.103  0.00  0.00    +0.000 C 
BRANCH  28  29
ATOM     29  C   UNL     1      38.572   5.905  17.241  0.00  0.00    +0.000 A 
ATOM     30  C   UNL     1      38.931   5.151  18.330  0.00  0.00    +0.000 A 
ATOM     31  C   UNL     1      39.733   5.915  19.188  0.00  0.00    +0.000 A 
ATOM     32  C   UNL     1      39.807   7.135  18.527  0.00  0.00    +0.000 A 
ATOM     33  O   UNL     1      39.119   7.075  17.410  0.00  0.00    +0.000 OA
ENDBRANCH  28  29
ENDBRANCH  10  28
TORSDOF 8
ENDMDL
MODEL 2
REMARK VINA RESULT:      -7.2      2.681      7.446
REMARK  Name = 
REMARK  8 active torsions:
REMARK  status: ('A' for Active; 'I' for Inactive)
REMARK    1  A    between atoms: C_3  and  C_4
REMARK    2  A    between atoms: N_6  and  C_7
REMARK    3  A    between atoms: C_7  and  C_8
REMARK    4  A    between atoms: C_15  and  O_16
REMARK    5  A    between atoms: O_16  and  C_17
REMARK    6  A    between atoms: C_17  and  C_18
REMARK    7  A    between atoms: N_27  and  C_28
REMARK    8  A    between atoms: C_28  and  C_29
REMARK                            x       y       z     vdW  Elec       q    Type
REMARK                         _______ _______ _______ _____ _____    ______ ____
ROOT
ATOM      1  C   UNL     1      36.489   0.512  15.744  0.00  0.00    +0.000 C 
ATOM      2  C   UNL     1      37.829  -0.009  15.392  0.00  0.00    +0.000 A 
ATOM      3  C   UNL     1      38.845   0.708  14.804  0.00  0.00    +0.000 A 
ATOM      4  C   UNL     1      39.894  -0.179  14.667  0.00  0.00    +0.000 A 
ATOM      5  C   UNL     1      41.181  -0.024  14.139  0.00  0.00    +0.000 A 
ATOM      6  C   UNL     1      42.078  -1.069  14.104  0.00  0.00    +0.000 A 
ATOM      7  C   UNL     1      41.634  -2.269  14.618  0.00  0.00    +0.000 A 
ATOM      8  C   UNL     1      40.377  -2.436  15.138  0.00  0.00    +0.000 A 
ATOM      9  C   UNL     1      39.478  -1.375  15.168  0.00  0.00    +0.000 A 
ATOM     10  N   UNL     1      38.208  -1.277  15.617  0.00  0.00    +0.000 N 
ENDROOT
BRANCH   3  11
ATOM     11  C   UNL     1      38.839   2.121  14.397  0.00  0.00    +0.000 C 
ATOM     12  O   UNL     1      38.861   2.455  13.187  0.00  0.00    +0.000 OA
ATOM     13  N   UNL     1      38.810   3.161  15.324  0.00  0.00    +0.000 NA
BRANCH  13  14
ATOM     14  C   UNL     1      38.802   4.497  15.329  0.00  0.00    +0.000 C 
BRANCH  14  15
ATOM     15  C   UNL     1      39.479   5.282  16.559  0.00  0.00    +0.000 C 
ATOM     16  C   UNL     1      38.284   6.412  16.758  0.00  0.00    +0.000 C 
ATOM     17  C   UNL     1      38.536   6.626  18.243  0.00  0.00    +0.000 C 
ATOM     18  C   UNL     1      39.076   5.293  18.689  0.00  0.00    +0.000 C 
ATOM     19  O   UNL     1      38.889   4.423  17.628  0.00  0.00    +0.000 OA
ENDBRANCH  14  15
ENDBRANCH  13  14
ENDBRANCH   3  11
BRANCH   6  20
ATOM     20  O   UNL     1      43.362  -0.972  13.595  0.00  0.00    +0.000 OA
BRANCH  20  21
ATOM     21  C   UNL     1      44.319  -0.069  14.119  0.00  0.00    +0.000 C 
BRANCH  21  22
ATOM     22  C   UNL     1      44.950  -0.732  15.288  0.00  0.00    +0.000 A 
ATOM     23  C   UNL     1      45.232  -0.038  16.430  0.00  0.00    +0.000 A 
ATOM     24  C   UNL     1      45.812  -0.648  17.505  0.00  0.00    +0.000 A 
ATOM     25  C   UNL     1      46.105  -1.999  17.401  0.00  0.00    +0.000 A 
ATOM     26  C   UNL     1      45.834  -2.729  16.267  0.00  0.00    +0.000 A 
ATOM     27  C   UNL     1      45.248  -2.069  15.205  0.00  0.00    +0.000 A 
ENDBRANCH  21  22
ENDBRANCH  20  21
ENDBRANCH   6  20
BRANCH  10  28
ATOM     28  C   UNL     1      37.535  -2.389  16.192  0.00  0.00    +0.000 C 
BRANCH  28  29
ATOM     29  C   UNL     1      37.779  -2.588  17.625  0.00  0.00    +0.000 A 
ATOM     30  C   UNL     1      37.171  -1.948  18.677  0.00  0.00    +0.000 A 
ATOM     31  C   UNL     1      37.691  -2.431  19.885  0.00  0.00    +0.000 A 
ATOM     32  C   UNL     1      38.621  -3.373  19.460  0.00  0.00    +0.000 A 
ATOM     33  O   UNL     1      38.631  -3.423  18.147  0.00  0.00    +0.000 OA
ENDBRANCH  28  29
ENDBRANCH  10  28
TORSDOF 8
ENDMDL
MODEL 3
REMARK VINA RESULT:      -7.2      2.722      7.913
REMARK  Name = 
REMARK  8 active torsions:
REMARK  status: ('A' for Active; 'I' for Inactive)
REMARK    1  A    between atoms: C_3  and  C_4
REMARK    2  A    between atoms: N_6  and  C_7
REMARK    3  A    between atoms: C_7  and  C_8
REMARK    4  A    between atoms: C_15  and  O_16
REMARK    5  A    between atoms: O_16  and  C_17
REMARK    6  A    between atoms: C_17  and  C_18
REMARK    7  A    between atoms: N_27  and  C_28
REMARK    8  A    between atoms: C_28  and  C_29
REMARK                            x       y       z     vdW  Elec       q    Type
REMARK                         _______ _______ _______ _____ _____    ______ ____
ROOT
ATOM      1  C   UNL     1      35.444   0.122  16.516  0.00  0.00    +0.000 C 
ATOM      2  C   UNL     1      36.757  -0.436  16.120  0.00  0.00    +0.000 A 
ATOM      3  C   UNL     1      37.726   0.215  15.394  0.00  0.00    +0.000 A 
ATOM      4  C   UNL     1      38.764  -0.685  15.267  0.00  0.00    +0.000 A 
ATOM      5  C   UNL     1      40.010  -0.588  14.636  0.00  0.00    +0.000 A 
ATOM      6  C   UNL     1      40.904  -1.636  14.638  0.00  0.00    +0.000 A 
ATOM      7  C   UNL     1      40.501  -2.779  15.295  0.00  0.00    +0.000 A 
ATOM      8  C   UNL     1      39.285  -2.889  15.918  0.00  0.00    +0.000 A 
ATOM      9  C   UNL     1      38.388  -1.826  15.911  0.00  0.00    +0.000 A 
ATOM     10  N   UNL     1      37.153  -1.679  16.438  0.00  0.00    +0.000 N 
ENDROOT
BRANCH   3  11
ATOM     11  C   UNL     1      37.687   1.583  14.854  0.00  0.00    +0.000 C 
ATOM     12  O   UNL     1      37.045   1.859  13.812  0.00  0.00    +0.000 OA
ATOM     13  N   UNL     1      38.358   2.642  15.464  0.00  0.00    +0.000 NA
BRANCH  13  14
ATOM     14  C   UNL     1      38.548   3.950  15.270  0.00  0.00    +0.000 C 
BRANCH  14  15
ATOM     15  C   UNL     1      39.287   4.813  16.409  0.00  0.00    +0.000 C 
ATOM     16  C   UNL     1      38.192   6.055  16.462  0.00  0.00    +0.000 C 
ATOM     17  C   UNL     1      38.460   6.418  17.915  0.00  0.00    +0.000 C 
ATOM     18  C   UNL     1      38.885   5.105  18.518  0.00  0.00    +0.000 C 
ATOM     19  O   UNL     1      38.626   4.136  17.563  0.00  0.00    +0.000 OA
ENDBRANCH  14  15
ENDBRANCH  13  14
ENDBRANCH   3  11
BRANCH   6  20
ATOM     20  O   UNL     1      42.148  -1.595  14.030  0.00  0.00    +0.000 OA
BRANCH  20  21
ATOM     21  C   UNL     1      43.023  -0.490  14.170  0.00  0.00    +0.000 C 
BRANCH  21  22
ATOM     22  C   UNL     1      44.204  -0.964  14.933  0.00  0.00    +0.000 A 
ATOM     23  C   UNL     1      44.696  -2.228  14.766  0.00  0.00    +0.000 A 
ATOM     24  C   UNL     1      45.783  -2.664  15.468  0.00  0.00    +0.000 A 
ATOM     25  C   UNL     1      46.375  -1.780  16.358  0.00  0.00    +0.000 A 
ATOM     26  C   UNL     1      45.906  -0.501  16.551  0.00  0.00    +0.000 A 
ATOM     27  C   UNL     1      44.805  -0.105  15.819  0.00  0.00    +0.000 A 
ENDBRANCH  21  22
ENDBRANCH  20  21
ENDBRANCH   6  20
BRANCH  10  28
ATOM     28  C   UNL     1      36.526  -2.727  17.164  0.00  0.00    +0.000 C 
BRANCH  28  29
ATOM     29  C   UNL     1      35.746  -3.666  16.350  0.00  0.00    +0.000 A 
ATOM     30  C   UNL     1      34.685  -3.382  15.526  0.00  0.00    +0.000 A 
ATOM     31  C   UNL     1      34.223  -4.563  14.930  0.00  0.00    +0.000 A 
ATOM     32  C   UNL     1      35.076  -5.524  15.460  0.00  0.00    +0.000 A 
ATOM     33  O   UNL     1      35.936  -4.953  16.273  0.00  0.00    +0.000 OA
ENDBRANCH  28  29
ENDBRANCH  10  28
TORSDOF 8
ENDMDL
MODEL 4
REMARK VINA RESULT:      -7.1      2.293      7.915
REMARK  Name = 
REMARK  8 active torsions:
REMARK  status: ('A' for Active; 'I' for Inactive)
REMARK    1  A    between atoms: C_3  and  C_4
REMARK    2  A    between atoms: N_6  and  C_7
REMARK    3  A    between atoms: C_7  and  C_8
REMARK    4  A    between atoms: C_15  and  O_16
REMARK    5  A    between atoms: O_16  and  C_17
REMARK    6  A    between atoms: C_17  and  C_18
REMARK    7  A    between atoms: N_27  and  C_28
REMARK    8  A    between atoms: C_28  and  C_29
REMARK                            x       y       z     vdW  Elec       q    Type
REMARK                         _______ _______ _______ _____ _____    ______ ____
ROOT
ATOM      1  C   UNL     1      35.488   0.216  16.412  0.00  0.00    +0.000 C 
ATOM      2  C   UNL     1      36.784  -0.407  16.060  0.00  0.00    +0.000 A 
ATOM      3  C   UNL     1      37.797   0.185  15.342  0.00  0.00    +0.000 A 
ATOM      4  C   UNL     1      38.797  -0.762  15.260  0.00  0.00    +0.000 A 
ATOM      5  C   UNL     1      40.060  -0.734  14.657  0.00  0.00    +0.000 A 
ATOM      6  C   UNL     1      40.907  -1.819  14.703  0.00  0.00    +0.000 A 
ATOM      7  C   UNL     1      40.441  -2.927  15.378  0.00  0.00    +0.000 A 
ATOM      8  C   UNL     1      39.207  -2.970  15.974  0.00  0.00    +0.000 A 
ATOM      9  C   UNL     1      38.357  -1.870  15.921  0.00  0.00    +0.000 A 
ATOM     10  N   UNL     1      37.119  -1.658  16.415  0.00  0.00    +0.000 N 
ENDROOT
BRANCH   3  11
ATOM     11  C   UNL     1      37.830   1.539  14.769  0.00  0.00    +0.000 C 
ATOM     12  O   UNL     1      37.476   1.760  13.585  0.00  0.00    +0.000 OA
ATOM     13  N   UNL     1      38.253   2.646  15.503  0.00  0.00    +0.000 NA
BRANCH  13  14
ATOM     14  C   UNL     1      38.417   3.960  15.328  0.00  0.00    +0.000 C 
BRANCH  14  15
ATOM     15  C   UNL     1      39.238   4.803  16.424  0.00  0.00    +0.000 C 
ATOM     16  C   UNL     1      38.190   6.082  16.521  0.00  0.00    +0.000 C 
ATOM     17  C   UNL     1      38.538   6.443  17.957  0.00  0.00    +0.000 C 
ATOM     18  C   UNL     1      38.946   5.119  18.548  0.00  0.00    +0.000 C 
ATOM     19  O   UNL     1      38.610   4.156  17.613  0.00  0.00    +0.000 OA
ENDBRANCH  14  15
ENDBRANCH  13  14
ENDBRANCH   3  11
BRANCH   6  20
ATOM     20  O   UNL     1      42.165  -1.846  14.125  0.00  0.00    +0.000 OA
BRANCH  20  21
ATOM     21  C   UNL     1      42.461  -1.158  12.923  0.00  0.00    +0.000 C 
BRANCH  21  22
ATOM     22  C   UNL     1      41.932  -1.983  11.808  0.00  0.00    +0.000 A 
ATOM     23  C   UNL     1      42.389  -3.250  11.585  0.00  0.00    +0.000 A 
ATOM     24  C   UNL     1      41.902  -4.009  10.560  0.00  0.00    +0.000 A 
ATOM     25  C   UNL     1      40.925  -3.450   9.750  0.00  0.00    +0.000 A 
ATOM     26  C   UNL     1      40.442  -2.178   9.946  0.00  0.00    +0.000 A 
ATOM     27  C   UNL     1      40.964  -1.448  10.995  0.00  0.00    +0.000 A 
ENDBRANCH  21  22
ENDBRANCH  20  21
ENDBRANCH   6  20
BRANCH  10  28
ATOM     28  C   UNL     1      36.431  -2.660  17.151  0.00  0.00    +0.000 C 
BRANCH  28  29
ATOM     29  C   UNL     1      35.659  -3.606  16.338  0.00  0.00    +0.000 A 
ATOM     30  C   UNL     1      34.527  -3.354  15.603  0.00  0.00    +0.000 A 
ATOM     31  C   UNL     1      34.103  -4.531  14.973  0.00  0.00    +0.000 A 
ATOM     32  C   UNL     1      35.052  -5.457  15.390  0.00  0.00    +0.000 A 
ATOM     33  O   UNL     1      35.926  -4.871  16.176  0.00  0.00    +0.000 OA
ENDBRANCH  28  29
ENDBRANCH  10  28
TORSDOF 8
ENDMDL
MODEL 5
REMARK VINA RESULT:      -7.0      2.627      3.320
REMARK  Name = 
REMARK  8 active torsions:
REMARK  status: ('A' for Active; 'I' for Inactive)
REMARK    1  A    between atoms: C_3  and  C_4
REMARK    2  A    between atoms: N_6  and  C_7
REMARK    3  A    between atoms: C_7  and  C_8
REMARK    4  A    between atoms: C_15  and  O_16
REMARK    5  A    between atoms: O_16  and  C_17
REMARK    6  A    between atoms: C_17  and  C_18
REMARK    7  A    between atoms: N_27  and  C_28
REMARK    8  A    between atoms: C_28  and  C_29
REMARK                            x       y       z     vdW  Elec       q    Type
REMARK                         _______ _______ _______ _____ _____    ______ ____
ROOT
ATOM      1  C   UNL     1      37.773   3.882  11.883  0.00  0.00    +0.000 C 
ATOM      2  C   UNL     1      37.124   3.174  13.010  0.00  0.00    +0.000 A 
ATOM      3  C   UNL     1      36.977   1.812  13.131  0.00  0.00    +0.000 A 
ATOM      4  C   UNL     1      36.320   1.615  14.328  0.00  0.00    +0.000 A 
ATOM      5  C   UNL     1      35.900   0.449  14.979  0.00  0.00    +0.000 A 
ATOM      6  C   UNL     1      35.248   0.492  16.191  0.00  0.00    +0.000 A 
ATOM      7  C   UNL     1      35.036   1.747  16.723  0.00  0.00    +0.000 A 
ATOM      8  C   UNL     1      35.441   2.898  16.099  0.00  0.00    +0.000 A 
ATOM      9  C   UNL     1      36.098   2.843  14.873  0.00  0.00    +0.000 A 
ATOM     10  N   UNL     1      36.591   3.808  14.067  0.00  0.00    +0.000 N 
ENDROOT
BRANCH   3  11
ATOM     11  C   UNL     1      37.418   0.767  12.196  0.00  0.00    +0.000 C 
ATOM     12  O   UNL     1      36.778   0.512  11.146  0.00  0.00    +0.000 OA
ATOM     13  N   UNL     1      38.563   0.004  12.420  0.00  0.00    +0.000 NA
BRANCH  13  14
ATOM     14  C   UNL     1      39.238  -0.986  11.829  0.00  0.00    +0.000 C 
BRANCH  14  15
ATOM     15  C   UNL     1      40.678  -1.410  12.406  0.00  0.00    +0.000 C 
ATOM     16  C   UNL     1      40.353  -1.105  14.001  0.00  0.00    +0.000 C 
ATOM     17  C   UNL     1      41.336  -2.130  14.546  0.00  0.00    +0.000 C 
ATOM     18  C   UNL     1      41.374  -3.172  13.459  0.00  0.00    +0.000 C 
ATOM     19  O   UNL     1      40.350  -2.855  12.581  0.00  0.00    +0.000 OA
ENDBRANCH  14  15
ENDBRANCH  13  14
ENDBRANCH   3  11
BRANCH   6  20
ATOM     20  O   UNL     1      34.811  -0.628  16.879  0.00  0.00    +0.000 OA
BRANCH  20  21
ATOM     21  C   UNL     1      35.501  -1.143  18.003  0.00  0.00    +0.000 C 
BRANCH  21  22
ATOM     22  C   UNL     1      36.531  -2.081  17.489  0.00  0.00    +0.000 A 
ATOM     23  C   UNL     1      37.863  -1.844  17.678  0.00  0.00    +0.000 A 
ATOM     24  C   UNL     1      38.811  -2.706  17.206  0.00  0.00    +0.000 A 
ATOM     25  C   UNL     1      38.376  -3.835  16.526  0.00  0.00    +0.000 A 
ATOM     26  C   UNL     1      37.044  -4.104  16.317  0.00  0.00    +0.000 A 
ATOM     27  C   UNL     1      36.122  -3.203  16.813  0.00  0.00    +0.000 A 
ENDBRANCH  21  22
ENDBRANCH  20  21
ENDBRANCH   6  20
BRANCH  10  28
ATOM     28  C   UNL     1      36.491   5.184  14.407  0.00  0.00    +0.000 C 
BRANCH  28  29
ATOM     29  C   UNL     1      35.379   5.900  13.772  0.00  0.00    +0.000 A 
ATOM     30  C   UNL     1      35.296   6.341  12.474  0.00  0.00    +0.000 A 
ATOM     31  C   UNL     1      34.066   6.979  12.271  0.00  0.00    +0.000 A 
ATOM     32  C   UNL     1      33.462   6.876  13.518  0.00  0.00    +0.000 A 
ATOM     33  O   UNL     1      34.262   6.246  14.347  0.00  0.00    +0.000 OA
ENDBRANCH  28  29
ENDBRANCH  10  28
TORSDOF 8
ENDMDL
MODEL 6
REMARK VINA RESULT:      -7.0      2.622      6.132
REMARK  Name = 
REMARK  8 active torsions:
REMARK  status: ('A' for Active; 'I' for Inactive)
REMARK    1  A    between atoms: C_3  and  C_4
REMARK    2  A    between atoms: N_6  and  C_7
REMARK    3  A    between atoms: C_7  and  C_8
REMARK    4  A    between atoms: C_15  and  O_16
REMARK    5  A    between atoms: O_16  and  C_17
REMARK    6  A    between atoms: C_17  and  C_18
REMARK    7  A    between atoms: N_27  and  C_28
REMARK    8  A    between atoms: C_28  and  C_29
REMARK                            x       y       z     vdW  Elec       q    Type
REMARK                         _______ _______ _______ _____ _____    ______ ____
ROOT
ATOM      1  C   UNL     1      42.663   1.375  13.001  0.00  0.00    +0.000 C 
ATOM      2  C   UNL     1      41.765   0.421  13.690  0.00  0.00    +0.000 A 
ATOM      3  C   UNL     1      40.474   0.671  14.091  0.00  0.00    +0.000 A 
ATOM      4  C   UNL     1      40.036  -0.496  14.683  0.00  0.00    +0.000 A 
ATOM      5  C   UNL     1      38.814  -0.839  15.274  0.00  0.00    +0.000 A 
ATOM      6  C   UNL     1      38.597  -2.088  15.812  0.00  0.00    +0.000 A 
ATOM      7  C   UNL     1      39.649  -2.976  15.733  0.00  0.00    +0.000 A 
ATOM      8  C   UNL     1      40.851  -2.655  15.158  0.00  0.00    +0.000 A 
ATOM      9  C   UNL     1      41.061  -1.390  14.618  0.00  0.00    +0.000 A 
ATOM     10  N   UNL     1      42.129  -0.832  14.007  0.00  0.00    +0.000 N 
ENDROOT
BRANCH   3  11
ATOM     11  C   UNL     1      39.702   1.913  13.935  0.00  0.00    +0.000 C 
ATOM     12  O   UNL     1      39.496   2.420  12.806  0.00  0.00    +0.000 OA
ATOM     13  N   UNL     1      39.160   2.593  15.024  0.00  0.00    +0.000 NA
BRANCH  13  14
ATOM     14  C   UNL     1      38.443   3.696  15.260  0.00  0.00    +0.000 C 
BRANCH  14  15
ATOM     15  C   UNL     1      36.992   3.559  15.942  0.00  0.00    +0.000 C 
ATOM     16  C   UNL     1      36.223   2.879  14.642  0.00  0.00    +0.000 C 
ATOM     17  C   UNL     1      35.189   2.127  15.466  0.00  0.00    +0.000 C 
ATOM     18  C   UNL     1      35.913   1.868  16.761  0.00  0.00    +0.000 C 
ATOM     19  O   UNL     1      37.236   2.215  16.543  0.00  0.00    +0.000 OA
ENDBRANCH  14  15
ENDBRANCH  13  14
ENDBRANCH   3  11
BRANCH   6  20
ATOM     20  O   UNL     1      37.410  -2.481  16.407  0.00  0.00    +0.000 OA
BRANCH  20  21
ATOM     21  C   UNL     1      37.210  -3.791  16.906  0.00  0.00    +0.000 C 
BRANCH  21  22
ATOM     22  C   UNL     1      36.013  -4.340  16.220  0.00  0.00    +0.000 A 
ATOM     23  C   UNL     1      35.101  -3.519  15.620  0.00  0.00    +0.000 A 
ATOM     24  C   UNL     1      34.000  -4.023  14.989  0.00  0.00    +0.000 A 
ATOM     25  C   UNL     1      33.837  -5.401  14.977  0.00  0.00    +0.000 A 
ATOM     26  C   UNL     1      34.736  -6.257  15.571  0.00  0.00    +0.000 A 
ATOM     27  C   UNL     1      35.833  -5.700  16.196  0.00  0.00    +0.000 A 
ENDBRANCH  21  22
ENDBRANCH  20  21
ENDBRANCH   6  20
BRANCH  10  28
ATOM     28  C   UNL     1      43.335  -1.557  13.810  0.00  0.00    +0.000 C 
BRANCH  28  29
ATOM     29  C   UNL     1      44.322  -1.424  14.887  0.00  0.00    +0.000 A 
ATOM     30  C   UNL     1      44.676  -0.285  15.566  0.00  0.00    +0.000 A 
ATOM     31  C   UNL     1      45.656  -0.589  16.519  0.00  0.00    +0.000 A 
ATOM     32  C   UNL     1      45.838  -1.955  16.341  0.00  0.00    +0.000 A 
ATOM     33  O   UNL     1      45.044  -2.387  15.387  0.00  0.00    +0.000 OA
ENDBRANCH  28  29
ENDBRANCH  10  28
TORSDOF 8
ENDMDL
MODEL 7
REMARK VINA RESULT:      -7.0      2.256      6.417
REMARK  Name = 
REMARK  8 active torsions:
REMARK  status: ('A' for Active; 'I' for Inactive)
REMARK    1  A    between atoms: C_3  and  C_4
REMARK    2  A    between atoms: N_6  and  C_7
REMARK    3  A    between atoms: C_7  and  C_8
REMARK    4  A    between atoms: C_15  and  O_16
REMARK    5  A    between atoms: O_16  and  C_17
REMARK    6  A    between atoms: C_17  and  C_18
REMARK    7  A    between atoms: N_27  and  C_28
REMARK    8  A    between atoms: C_28  and  C_29
REMARK                            x       y       z     vdW  Elec       q    Type
REMARK                         _______ _______ _______ _____ _____    ______ ____
ROOT
ATOM      1  C   UNL     1      42.327   1.729  12.982  0.00  0.00    +0.000 C 
ATOM      2  C   UNL     1      41.600   0.612  13.627  0.00  0.00    +0.000 A 
ATOM      3  C   UNL     1      40.315   0.657  14.113  0.00  0.00    +0.000 A 
ATOM      4  C   UNL     1      40.064  -0.602  14.618  0.00  0.00    +0.000 A 
ATOM      5  C   UNL     1      38.934  -1.150  15.236  0.00  0.00    +0.000 A 
ATOM      6  C   UNL     1      38.909  -2.457  15.669  0.00  0.00    +0.000 A 
ATOM      7  C   UNL     1      40.058  -3.190  15.459  0.00  0.00    +0.000 A 
ATOM      8  C   UNL     1      41.173  -2.668  14.856  0.00  0.00    +0.000 A 
ATOM      9  C   UNL     1      41.188  -1.346  14.422  0.00  0.00    +0.000 A 
ATOM     10  N   UNL     1      42.138  -0.605  13.812  0.00  0.00    +0.000 N 
ENDROOT
BRANCH   3  11
ATOM     11  C   UNL     1      39.384   1.796  14.107  0.00  0.00    +0.000 C 
ATOM     12  O   UNL     1      38.650   2.039  13.119  0.00  0.00    +0.000 OA
ATOM     13  N   UNL     1      39.266   2.664  15.191  0.00  0.00    +0.000 NA
BRANCH  13  14
ATOM     14  C   UNL     1      38.571   3.753  15.530  0.00  0.00    +0.000 C 
BRANCH  14  15
ATOM     15  C   UNL     1      39.265   4.873  16.454  0.00  0.00    +0.000 C 
ATOM     16  C   UNL     1      38.023   5.968  16.408  0.00  0.00    +0.000 C 
ATOM     17  C   UNL     1      38.336   6.594  17.759  0.00  0.00    +0.000 C 
ATOM     18  C   UNL     1      38.966   5.457  18.520  0.00  0.00    +0.000 C 
ATOM     19  O   UNL     1      38.774   4.321  17.751  0.00  0.00    +0.000 OA
ENDBRANCH  14  15
ENDBRANCH  13  14
ENDBRANCH   3  11
BRANCH   6  20
ATOM     20  O   UNL     1      37.819  -3.050  16.285  0.00  0.00    +0.000 OA
BRANCH  20  21
ATOM     21  C   UNL     1      37.581  -2.937  17.676  0.00  0.00    +0.000 C 
BRANCH  21  22
ATOM     22  C   UNL     1      36.700  -1.759  17.873  0.00  0.00    +0.000 A 
ATOM     23  C   UNL     1      36.894  -0.894  18.911  0.00  0.00    +0.000 A 
ATOM     24  C   UNL     1      36.083   0.190  19.092  0.00  0.00    +0.000 A 
ATOM     25  C   UNL     1      35.053   0.386  18.183  0.00  0.00    +0.000 A 
ATOM     26  C   UNL     1      34.829  -0.466  17.126  0.00  0.00    +0.000 A 
ATOM     27  C   UNL     1      35.675  -1.548  16.984  0.00  0.00    +0.000 A 
ENDBRANCH  21  22
ENDBRANCH  20  21
ENDBRANCH   6  20
BRANCH  10  28
ATOM     28  C   UNL     1      43.411  -1.147  13.490  0.00  0.00    +0.000 C 
BRANCH  28  29
ATOM     29  C   UNL     1      44.352  -1.229  14.613  0.00  0.00    +0.000 A 
ATOM     30  C   UNL     1      44.695  -0.236  15.497  0.00  0.00    +0.000 A 
ATOM     31  C   UNL     1      45.627  -0.727  16.420  0.00  0.00    +0.000 A 
ATOM     32  C   UNL     1      45.792  -2.045  16.012  0.00  0.00    +0.000 A 
ATOM     33  O   UNL     1      45.034  -2.283  14.965  0.00  0.00    +0.000 OA
ENDBRANCH  28  29
ENDBRANCH  10  28
TORSDOF 8
ENDMDL
MODEL 8
REMARK VINA RESULT:      -6.9      2.334      6.949
REMARK  Name = 
REMARK  8 active torsions:
REMARK  status: ('A' for Active; 'I' for Inactive)
REMARK    1  A    between atoms: C_3  and  C_4
REMARK    2  A    between atoms: N_6  and  C_7
REMARK    3  A    between atoms: C_7  and  C_8
REMARK    4  A    between atoms: C_15  and  O_16
REMARK    5  A    between atoms: O_16  and  C_17
REMARK    6  A    between atoms: C_17  and  C_18
REMARK    7  A    between atoms: N_27  and  C_28
REMARK    8  A    between atoms: C_28  and  C_29
REMARK                            x       y       z     vdW  Elec       q    Type
REMARK                         _______ _______ _______ _____ _____    ______ ____
ROOT
ATOM      1  C   UNL     1      41.745  -2.638  13.933  0.00  0.00    +0.000 C 
ATOM      2  C   UNL     1      41.299  -1.226  13.902  0.00  0.00    +0.000 A 
ATOM      3  C   UNL     1      40.119  -0.740  14.414  0.00  0.00    +0.000 A 
ATOM      4  C   UNL     1      40.134   0.616  14.158  0.00  0.00    +0.000 A 
ATOM      5  C   UNL     1      39.210   1.627  14.444  0.00  0.00    +0.000 A 
ATOM      6  C   UNL     1      39.439   2.938  14.086  0.00  0.00    +0.000 A 
ATOM      7  C   UNL     1      40.627   3.191  13.435  0.00  0.00    +0.000 A 
ATOM      8  C   UNL     1      41.542   2.212  13.148  0.00  0.00    +0.000 A 
ATOM      9  C   UNL     1      41.301   0.891  13.513  0.00  0.00    +0.000 A 
ATOM     10  N   UNL     1      42.024  -0.239  13.352  0.00  0.00    +0.000 N 
ENDROOT
BRANCH   3  11
ATOM     11  C   UNL     1      39.051  -1.488  15.094  0.00  0.00    +0.000 C 
ATOM     12  O   UNL     1      38.228  -2.186  14.453  0.00  0.00    +0.000 OA
ATOM     13  N   UNL     1      38.892  -1.463  16.479  0.00  0.00    +0.000 NA
BRANCH  13  14
ATOM     14  C   UNL     1      38.078  -1.983  17.402  0.00  0.00    +0.000 C 
BRANCH  14  15
ATOM     15  C   UNL     1      36.593  -1.385  17.566  0.00  0.00    +0.000 C 
ATOM     16  C   UNL     1      36.653  -1.146  19.204  0.00  0.00    +0.000 C 
ATOM     17  C   UNL     1      35.659   0.006  19.216  0.00  0.00    +0.000 C 
ATOM     18  C   UNL     1      35.849   0.629  17.859  0.00  0.00    +0.000 C 
ATOM     19  O   UNL     1      36.975   0.035  17.312  0.00  0.00    +0.000 OA
ENDBRANCH  14  15
ENDBRANCH  13  14
ENDBRANCH   3  11
BRANCH   6  20
ATOM     20  O   UNL     1      38.561   3.977  14.344  0.00  0.00    +0.000 OA
BRANCH  20  21
ATOM     21  C   UNL     1      37.870   4.098  15.574  0.00  0.00    +0.000 C 
BRANCH  21  22
ATOM     22  C   UNL     1      38.763   4.830  16.505  0.00  0.00    +0.000 A 
ATOM     23  C   UNL     1      39.810   5.577  16.044  0.00  0.00    +0.000 A 
ATOM     24  C   UNL     1      40.631   6.252  16.901  0.00  0.00    +0.000 A 
ATOM     25  C   UNL     1      40.368   6.155  18.259  0.00  0.00    +0.000 A 
ATOM     26  C   UNL     1      39.323   5.413  18.758  0.00  0.00    +0.000 A 
ATOM     27  C   UNL     1      38.519   4.748  17.854  0.00  0.00    +0.000 A 
ENDBRANCH  21  22
ENDBRANCH  20  21
ENDBRANCH   6  20
BRANCH  10  28
ATOM     28  C   UNL     1      43.289  -0.226  12.706  0.00  0.00    +0.000 C 
BRANCH  28  29
ATOM     29  C   UNL     1      44.441  -0.079  13.602  0.00  0.00    +0.000 A 
ATOM     30  C   UNL     1      44.467  -0.220  14.968  0.00  0.00    +0.000 A 
ATOM     31  C   UNL     1      45.766   0.003  15.440  0.00  0.00    +0.000 A 
ATOM     32  C   UNL     1      46.470   0.276  14.274  0.00  0.00    +0.000 A 
ATOM     33  O   UNL     1      45.658   0.216  13.243  0.00  0.00    +0.000 OA
ENDBRANCH  28  29
ENDBRANCH  10  28
TORSDOF 8
ENDMDL
MODEL 9
REMARK VINA RESULT:      -6.9      2.462      6.750
REMARK  Name = 
REMARK  8 active torsions:
REMARK  status: ('A' for Active; 'I' for Inactive)
REMARK    1  A    between atoms: C_3  and  C_4
REMARK    2  A    between atoms: N_6  and  C_7
REMARK    3  A    between atoms: C_7  and  C_8
REMARK    4  A    between atoms: C_15  and  O_16
REMARK    5  A    between atoms: O_16  and  C_17
REMARK    6  A    between atoms: C_17  and  C_18
REMARK    7  A    between atoms: N_27  and  C_28
REMARK    8  A    between atoms: C_28  and  C_29
REMARK                            x       y       z     vdW  Elec       q    Type
REMARK                         _______ _______ _______ _____ _____    ______ ____
ROOT
ATOM      1  C   UNL     1      42.159   0.917  13.052  0.00  0.00    +0.000 C 
ATOM      2  C   UNL     1      41.305   0.004  13.845  0.00  0.00    +0.000 A 
ATOM      3  C   UNL     1      40.047   0.287  14.324  0.00  0.00    +0.000 A 
ATOM      4  C   UNL     1      39.643  -0.847  14.997  0.00  0.00    +0.000 A 
ATOM      5  C   UNL     1      38.463  -1.150  15.687  0.00  0.00    +0.000 A 
ATOM      6  C   UNL     1      38.274  -2.371  16.295  0.00  0.00    +0.000 A 
ATOM      7  C   UNL     1      39.311  -3.274  16.183  0.00  0.00    +0.000 A 
ATOM      8  C   UNL     1      40.472  -2.992  15.511  0.00  0.00    +0.000 A 
ATOM      9  C   UNL     1      40.654  -1.755  14.901  0.00  0.00    +0.000 A 
ATOM     10  N   UNL     1      41.680  -1.237  14.192  0.00  0.00    +0.000 N 
ENDROOT
BRANCH   3  11
ATOM     11  C   UNL     1      39.276   1.529  14.166  0.00  0.00    +0.000 C 
ATOM     12  O   UNL     1      38.863   1.907  13.043  0.00  0.00    +0.000 OA
ATOM     13  N   UNL     1      38.963   2.352  15.247  0.00  0.00    +0.000 NA
BRANCH  13  14
ATOM     14  C   UNL     1      38.320   3.500  15.478  0.00  0.00    +0.000 C 
BRANCH  14  15
ATOM     15  C   UNL     1      36.946   3.477  16.314  0.00  0.00    +0.000 C 
ATOM     16  C   UNL     1      35.931   3.248  15.025  0.00  0.00    +0.000 C 
ATOM     17  C   UNL     1      34.851   2.529  15.820  0.00  0.00    +0.000 C 
ATOM     18  C   UNL     1      35.631   1.866  16.925  0.00  0.00    +0.000 C 
ATOM     19  O   UNL     1      36.969   2.012  16.598  0.00  0.00    +0.000 OA
ENDBRANCH  14  15
ENDBRANCH  13  14
ENDBRANCH   3  11
BRANCH   6  20
ATOM     20  O   UNL     1      37.129  -2.724  16.989  0.00  0.00    +0.000 OA
BRANCH  20  21
ATOM     21  C   UNL     1      35.831  -2.393  16.528  0.00  0.00    +0.000 C 
BRANCH  21  22
ATOM     22  C   UNL     1      35.209  -3.649  16.041  0.00  0.00    +0.000 A 
ATOM     23  C   UNL     1      35.839  -4.853  16.178  0.00  0.00    +0.000 A 
ATOM     24  C   UNL     1      35.266  -6.008  15.731  0.00  0.00    +0.000 A 
ATOM     25  C   UNL     1      34.019  -5.921  15.130  0.00  0.00    +0.000 A 
ATOM     26  C   UNL     1      33.356  -4.726  14.976  0.00  0.00    +0.000 A 
ATOM     27  C   UNL     1      33.974  -3.584  15.444  0.00  0.00    +0.000 A 
ENDBRANCH  21  22
ENDBRANCH  20  21
ENDBRANCH   6  20
BRANCH  10  28
ATOM     28  C   UNL     1      42.863  -1.984  13.944  0.00  0.00    +0.000 C 
BRANCH  28  29
ATOM     29  C   UNL     1      42.905  -2.666  12.645  0.00  0.00    +0.000 A 
ATOM     30  C   UNL     1      41.890  -3.348  12.021  0.00  0.00    +0.000 A 
ATOM     31  C   UNL     1      42.343  -3.850  10.795  0.00  0.00    +0.000 A 
ATOM     32  C   UNL     1      43.663  -3.417  10.760  0.00  0.00    +0.000 A 
ATOM     33  O   UNL     1      43.936  -2.739  11.852  0.00  0.00    +0.000 OA
ENDBRANCH  28  29
ENDBRANCH  10  28
TORSDOF 8
ENDMDL
MODEL 10
REMARK VINA RESULT:      -6.9      1.964      7.015
REMARK  Name = 
REMARK  8 active torsions:
REMARK  status: ('A' for Active; 'I' for Inactive)
REMARK    1  A    between atoms: C_3  and  C_4
REMARK    2  A    between atoms: N_6  and  C_7
REMARK    3  A    between atoms: C_7  and  C_8
REMARK    4  A    between atoms: C_15  and  O_16
REMARK    5  A    between atoms: O_16  and  C_17
REMARK    6  A    between atoms: C_17  and  C_18
REMARK    7  A    between atoms: N_27  and  C_28
REMARK    8  A    between atoms: C_28  and  C_29
REMARK                            x       y       z     vdW  Elec       q    Type
REMARK                         _______ _______ _______ _____ _____    ______ ____
ROOT
ATOM      1  C   UNL     1      40.826   1.501  12.058  0.00  0.00    +0.000 C 
ATOM      2  C   UNL     1      40.525   0.455  13.061  0.00  0.00    +0.000 A 
ATOM      3  C   UNL     1      39.562   0.527  14.040  0.00  0.00    +0.000 A 
ATOM      4  C   UNL     1      39.645  -0.665  14.731  0.00  0.00    +0.000 A 
ATOM      5  C   UNL     1      38.924  -1.160  15.824  0.00  0.00    +0.000 A 
ATOM      6  C   UNL     1      39.184  -2.402  16.359  0.00  0.00    +0.000 A 
ATOM      7  C   UNL     1      40.193  -3.125  15.757  0.00  0.00    +0.000 A 
ATOM      8  C   UNL     1      40.908  -2.654  14.686  0.00  0.00    +0.000 A 
ATOM      9  C   UNL     1      40.638  -1.397  14.153  0.00  0.00    +0.000 A 
ATOM     10  N   UNL     1      41.184  -0.714  13.124  0.00  0.00    +0.000 N 
ENDROOT
BRANCH   3  11
ATOM     11  C   UNL     1      38.630   1.631  14.314  0.00  0.00    +0.000 C 
ATOM     12  O   UNL     1      37.509   1.697  13.752  0.00  0.00    +0.000 OA
ATOM     13  N   UNL     1      38.935   2.658  15.204  0.00  0.00    +0.000 NA
BRANCH  13  14
ATOM     14  C   UNL     1      38.372   3.773  15.678  0.00  0.00    +0.000 C 
BRANCH  14  15
ATOM     15  C   UNL     1      39.239   4.758  16.609  0.00  0.00    +0.000 C 
ATOM     16  C   UNL     1      38.173   6.025  16.608  0.00  0.00    +0.000 C 
ATOM     17  C   UNL     1      38.596   6.569  17.965  0.00  0.00    +0.000 C 
ATOM     18  C   UNL     1      39.064   5.335  18.691  0.00  0.00    +0.000 C 
ATOM     19  O   UNL     1      38.693   4.257  17.905  0.00  0.00    +0.000 OA
ENDBRANCH  14  15
ENDBRANCH  13  14
ENDBRANCH   3  11
BRANCH   6  20
ATOM     20  O   UNL     1      38.503  -2.941  17.437  0.00  0.00    +0.000 OA
BRANCH  20  21
ATOM     21  C   UNL     1      37.121  -3.246  17.383  0.00  0.00    +0.000 C 
BRANCH  21  22
ATOM     22  C   UNL     1      36.386  -1.992  17.684  0.00  0.00    +0.000 A 
ATOM     23  C   UNL     1      36.615  -1.296  18.837  0.00  0.00    +0.000 A 
ATOM     24  C   UNL     1      35.940  -0.142  19.113  0.00  0.00    +0.000 A 
ATOM     25  C   UNL     1      35.012   0.303  18.183  0.00  0.00    +0.000 A 
ATOM     26  C   UNL     1      34.757  -0.373  17.013  0.00  0.00    +0.000 A 
ATOM     27  C   UNL     1      35.464  -1.535  16.777  0.00  0.00    +0.000 A 
ENDBRANCH  21  22
ENDBRANCH  20  21
ENDBRANCH   6  20
BRANCH  10  28
ATOM     28  C   UNL     1      42.243  -1.258  12.350  0.00  0.00    +0.000 C 
BRANCH  28  29
ATOM     29  C   UNL     1      41.827  -2.196  11.302  0.00  0.00    +0.000 A 
ATOM     30  C   UNL     1      40.871  -2.005  10.334  0.00  0.00    +0.000 A 
ATOM     31  C   UNL     1      40.780  -3.148   9.530  0.00  0.00    +0.000 A 
ATOM     32  C   UNL     1      41.731  -3.991  10.092  0.00  0.00    +0.000 A 
ATOM     33  O   UNL     1      42.305  -3.393  11.111  0.00  0.00    +0.000 OA
ENDBRANCH  28  29
ENDBRANCH  10  28
TORSDOF 8
ENDMDL
