MODEL 1
REMARK VINA RESULT:      -6.8      0.000      0.000
REMARK  Name = 
REMARK  3 active torsions:
REMARK  status: ('A' for Active; 'I' for Inactive)
REMARK    1  A    between atoms: N_7  and  C_8
REMARK    2  A    between atoms: C_8  and  N_9
REMARK    3  A    between atoms: N_9  and  C_10
REMARK                            x       y       z     vdW  Elec       q    Type
REMARK                         _______ _______ _______ _____ _____    ______ ____
ROOT
ATOM      1  N   UNL     1      28.370  22.108  27.757  0.00  0.00    +0.000 NA
ENDROOT
BRANCH   1   2
ATOM      2  C   UNL     1      28.921  22.424  26.512  0.00  0.00    +0.000 A 
ATOM      3  C   UNL     1      30.262  22.408  26.231  0.00  0.00    +0.000 A 
ATOM      4  C   UNL     1      30.746  22.734  24.971  0.00  0.00    +0.000 A 
ATOM      5  C   UNL     1      29.878  23.089  23.945  0.00  0.00    +0.000 A 
ATOM      6  C   UNL     1      28.522  23.106  24.225  0.00  0.00    +0.000 A 
ATOM      7  C   UNL     1      27.651  23.462  23.194  0.00  0.00    +0.000 A 
ATOM      8  C   UNL     1      26.292  23.493  23.425  0.00  0.00    +0.000 A 
ATOM      9  C   UNL     1      25.858  23.165  24.682  0.00  0.00    +0.000 A 
ATOM     10  C   UNL     1      26.715  22.810  25.707  0.00  0.00    +0.000 A 
ATOM     11  C   UNL     1      28.074  22.782  25.468  0.00  0.00    +0.000 A 
ENDBRANCH   1   2
BRANCH   1  12
ATOM     12  C   UNL     1      28.528  22.707  29.020  0.00  0.00    +0.000 C 
BRANCH  12  19
ATOM     13  C   UNL     1      24.987  25.049  28.082  0.00  0.00    +0.000 C 
ATOM     14  C   UNL     1      25.742  25.229  29.359  0.00  0.00    +0.000 C 
ATOM     15  C   UNL     1      24.922  25.829  30.470  0.00  0.00    +0.000 C 
ATOM     16  N   UNL     1      26.945  26.067  29.173  0.00  0.00    +0.000 NA
ATOM     17  C   UNL     1      28.019  25.206  28.819  0.00  0.00    +0.000 C 
ATOM     18  O   UNL     1      29.115  25.517  28.255  0.00  0.00    +0.000 OA
ATOM     19  N   UNL     1      27.676  23.873  29.205  0.00  0.00    +0.000 N 
ATOM     20  C   UNL     1      26.386  23.936  29.797  0.00  0.00    +0.000 C 
ATOM     21  O   UNL     1      25.851  23.094  30.549  0.00  0.00    +0.000 OA
ENDBRANCH  12  19
ENDBRANCH   1  12
TORSDOF 3
ENDMDL
MODEL 2
REMARK VINA RESULT:      -6.6      0.966      1.958
REMARK  Name = 
REMARK  3 active torsions:
REMARK  status: ('A' for Active; 'I' for Inactive)
REMARK    1  A    between atoms: N_7  and  C_8
REMARK    2  A    between atoms: C_8  and  N_9
REMARK    3  A    between atoms: N_9  and  C_10
REMARK                            x       y       z     vdW  Elec       q    Type
REMARK                         _______ _______ _______ _____ _____    ______ ____
ROOT
ATOM      1  N   UNL     1      28.239  22.071  27.836  0.00  0.00    +0.000 NA
ENDROOT
BRANCH   1   2
ATOM      2  C   UNL     1      28.827  22.371  26.603  0.00  0.00    +0.000 A 
ATOM      3  C   UNL     1      30.174  22.315  26.353  0.00  0.00    +0.000 A 
ATOM      4  C   UNL     1      30.696  22.628  25.105  0.00  0.00    +0.000 A 
ATOM      5  C   UNL     1      29.862  23.011  24.061  0.00  0.00    +0.000 A 
ATOM      6  C   UNL     1      28.501  23.068  24.309  0.00  0.00    +0.000 A 
ATOM      7  C   UNL     1      27.665  23.452  23.259  0.00  0.00    +0.000 A 
ATOM      8  C   UNL     1      26.303  23.523  23.460  0.00  0.00    +0.000 A 
ATOM      9  C   UNL     1      25.831  23.206  24.706  0.00  0.00    +0.000 A 
ATOM     10  C   UNL     1      26.653  22.825  25.750  0.00  0.00    +0.000 A 
ATOM     11  C   UNL     1      28.016  22.756  25.541  0.00  0.00    +0.000 A 
ENDBRANCH   1   2
BRANCH   1  12
ATOM     12  C   UNL     1      28.448  22.608  29.119  0.00  0.00    +0.000 C 
BRANCH  12  19
ATOM     13  C   UNL     1      27.111  26.106  31.327  0.00  0.00    +0.000 C 
ATOM     14  C   UNL     1      26.375  25.593  30.133  0.00  0.00    +0.000 C 
ATOM     15  C   UNL     1      25.522  26.631  29.452  0.00  0.00    +0.000 C 
ATOM     16  N   UNL     1      25.512  24.442  30.472  0.00  0.00    +0.000 NA
ATOM     17  C   UNL     1      26.291  23.263  30.329  0.00  0.00    +0.000 C 
ATOM     18  O   UNL     1      26.067  22.113  30.825  0.00  0.00    +0.000 OA
ATOM     19  N   UNL     1      27.421  23.564  29.507  0.00  0.00    +0.000 N 
ATOM     20  C   UNL     1      27.317  24.937  29.153  0.00  0.00    +0.000 C 
ATOM     21  O   UNL     1      27.886  25.526  28.210  0.00  0.00    +0.000 OA
ENDBRANCH  12  19
ENDBRANCH   1  12
TORSDOF 3
ENDMDL
MODEL 3
REMARK VINA RESULT:      -6.4      2.981      5.958
REMARK  Name = 
REMARK  3 active torsions:
REMARK  status: ('A' for Active; 'I' for Inactive)
REMARK    1  A    between atoms: N_7  and  C_8
REMARK    2  A    between atoms: C_8  and  N_9
REMARK    3  A    between atoms: N_9  and  C_10
REMARK                            x       y       z     vdW  Elec       q    Type
REMARK                         _______ _______ _______ _____ _____    ______ ____
ROOT
ATOM      1  N   UNL     1      25.677  23.521  25.853  0.00  0.00    +0.000 NA
ENDROOT
BRANCH   1   2
ATOM      2  C   UNL     1      26.784  23.196  26.643  0.00  0.00    +0.000 A 
ATOM      3  C   UNL     1      27.891  22.528  26.188  0.00  0.00    +0.000 A 
ATOM      4  C   UNL     1      28.959  22.234  27.026  0.00  0.00    +0.000 A 
ATOM      5  C   UNL     1      28.938  22.612  28.364  0.00  0.00    +0.000 A 
ATOM      6  C   UNL     1      27.821  23.287  28.827  0.00  0.00    +0.000 A 
ATOM      7  C   UNL     1      27.802  23.665  30.170  0.00  0.00    +0.000 A 
ATOM      8  C   UNL     1      26.712  24.339  30.676  0.00  0.00    +0.000 A 
ATOM      9  C   UNL     1      25.681  24.609  29.815  0.00  0.00    +0.000 A 
ATOM     10  C   UNL     1      25.693  24.237  28.484  0.00  0.00    +0.000 A 
ATOM     11  C   UNL     1      26.789  23.562  27.985  0.00  0.00    +0.000 A 
ENDBRANCH   1   2
BRANCH   1  12
ATOM     12  C   UNL     1      25.495  24.514  24.874  0.00  0.00    +0.000 C 
BRANCH  12  19
ATOM     13  C   UNL     1      27.407  26.051  21.284  0.00  0.00    +0.000 C 
ATOM     14  C   UNL     1      27.995  24.930  22.078  0.00  0.00    +0.000 C 
ATOM     15  C   UNL     1      29.479  24.763  21.887  0.00  0.00    +0.000 C 
ATOM     16  N   UNL     1      27.345  23.639  21.771  0.00  0.00    +0.000 NA
ATOM     17  C   UNL     1      26.235  23.497  22.646  0.00  0.00    +0.000 C 
ATOM     18  O   UNL     1      25.229  22.730  22.514  0.00  0.00    +0.000 OA
ATOM     19  N   UNL     1      26.416  24.381  23.755  0.00  0.00    +0.000 N 
ATOM     20  C   UNL     1      27.647  25.059  23.542  0.00  0.00    +0.000 C 
ATOM     21  O   UNL     1      28.342  25.661  24.387  0.00  0.00    +0.000 OA
ENDBRANCH  12  19
ENDBRANCH   1  12
TORSDOF 3
ENDMDL
MODEL 4
REMARK VINA RESULT:      -6.4      2.972      6.135
REMARK  Name = 
REMARK  3 active torsions:
REMARK  status: ('A' for Active; 'I' for Inactive)
REMARK    1  A    between atoms: N_7  and  C_8
REMARK    2  A    between atoms: C_8  and  N_9
REMARK    3  A    between atoms: N_9  and  C_10
REMARK                            x       y       z     vdW  Elec       q    Type
REMARK                         _______ _______ _______ _____ _____    ______ ____
ROOT
ATOM      1  N   UNL     1      27.202  22.594  26.041  0.00  0.00    +0.000 NA
ENDROOT
BRANCH   1   2
ATOM      2  C   UNL     1      27.455  22.868  27.389  0.00  0.00    +0.000 A 
ATOM      3  C   UNL     1      26.511  23.307  28.281  0.00  0.00    +0.000 A 
ATOM      4  C   UNL     1      26.828  23.563  29.608  0.00  0.00    +0.000 A 
ATOM      5  C   UNL     1      28.123  23.381  30.079  0.00  0.00    +0.000 A 
ATOM      6  C   UNL     1      29.079  22.937  29.181  0.00  0.00    +0.000 A 
ATOM      7  C   UNL     1      30.379  22.754  29.655  0.00  0.00    +0.000 A 
ATOM      8  C   UNL     1      31.365  22.313  28.797  0.00  0.00    +0.000 A 
ATOM      9  C   UNL     1      31.009  22.073  27.497  0.00  0.00    +0.000 A 
ATOM     10  C   UNL     1      29.724  22.252  27.021  0.00  0.00    +0.000 A 
ATOM     11  C   UNL     1      28.742  22.693  27.885  0.00  0.00    +0.000 A 
ENDBRANCH   1   2
BRANCH   1  12
ATOM     12  C   UNL     1      26.228  23.097  25.159  0.00  0.00    +0.000 C 
BRANCH  12  19
ATOM     13  C   UNL     1      27.304  26.150  22.257  0.00  0.00    +0.000 C 
ATOM     14  C   UNL     1      27.913  24.786  22.237  0.00  0.00    +0.000 C 
ATOM     15  C   UNL     1      29.250  24.728  21.545  0.00  0.00    +0.000 C 
ATOM     16  N   UNL     1      27.022  23.796  21.596  0.00  0.00    +0.000 NA
ATOM     17  C   UNL     1      26.182  23.256  22.606  0.00  0.00    +0.000 C 
ATOM     18  O   UNL     1      25.076  22.645  22.459  0.00  0.00    +0.000 OA
ATOM     19  N   UNL     1      26.783  23.509  23.879  0.00  0.00    +0.000 N 
ATOM     20  C   UNL     1      27.996  24.206  23.628  0.00  0.00    +0.000 C 
ATOM     21  O   UNL     1      28.974  24.334  24.395  0.00  0.00    +0.000 OA
ENDBRANCH  12  19
ENDBRANCH   1  12
TORSDOF 3
ENDMDL
MODEL 5
REMARK VINA RESULT:      -6.4     19.717     21.862
REMARK  Name = 
REMARK  3 active torsions:
REMARK  status: ('A' for Active; 'I' for Inactive)
REMARK    1  A    between atoms: N_7  and  C_8
REMARK    2  A    between atoms: C_8  and  N_9
REMARK    3  A    between atoms: N_9  and  C_10
REMARK                            x       y       z     vdW  Elec       q    Type
REMARK                         _______ _______ _______ _____ _____    ______ ____
ROOT
ATOM      1  N   UNL     1      18.986   9.510  39.121  0.00  0.00    +0.000 NA
ENDROOT
BRANCH   1   2
ATOM      2  C   UNL     1      17.959   8.962  39.896  0.00  0.00    +0.000 A 
ATOM      3  C   UNL     1      16.808   9.624  40.237  0.00  0.00    +0.000 A 
ATOM      4  C   UNL     1      15.825   9.022  41.012  0.00  0.00    +0.000 A 
ATOM      5  C   UNL     1      15.979   7.719  41.471  0.00  0.00    +0.000 A 
ATOM      6  C   UNL     1      17.140   7.047  41.128  0.00  0.00    +0.000 A 
ATOM      7  C   UNL     1      17.292   5.738  41.588  0.00  0.00    +0.000 A 
ATOM      8  C   UNL     1      18.432   5.030  41.272  0.00  0.00    +0.000 A 
ATOM      9  C   UNL     1      19.375   5.661  40.506  0.00  0.00    +0.000 A 
ATOM     10  C   UNL     1      19.231   6.956  40.046  0.00  0.00    +0.000 A 
ATOM     11  C   UNL     1      18.087   7.659  40.367  0.00  0.00    +0.000 A 
ENDBRANCH   1   2
BRANCH   1  12
ATOM     12  C   UNL     1      19.187   9.531  37.729  0.00  0.00    +0.000 C 
BRANCH  12  19
ATOM     13  C   UNL     1      15.217  11.292  37.526  0.00  0.00    +0.000 C 
ATOM     14  C   UNL     1      16.303  11.672  36.573  0.00  0.00    +0.000 C 
ATOM     15  C   UNL     1      16.114  13.027  35.944  0.00  0.00    +0.000 C 
ATOM     16  N   UNL     1      16.453  10.680  35.487  0.00  0.00    +0.000 NA
ATOM     17  C   UNL     1      17.374   9.693  35.931  0.00  0.00    +0.000 C 
ATOM     18  O   UNL     1      17.537   8.516  35.477  0.00  0.00    +0.000 OA
ATOM     19  N   UNL     1      18.132  10.235  37.015  0.00  0.00    +0.000 N 
ATOM     20  C   UNL     1      17.661  11.560  37.223  0.00  0.00    +0.000 C 
ATOM     21  O   UNL     1      18.239  12.488  37.826  0.00  0.00    +0.000 OA
ENDBRANCH  12  19
ENDBRANCH   1  12
TORSDOF 3
ENDMDL
MODEL 6
REMARK VINA RESULT:      -6.3     17.412     18.997
REMARK  Name = 
REMARK  3 active torsions:
REMARK  status: ('A' for Active; 'I' for Inactive)
REMARK    1  A    between atoms: N_7  and  C_8
REMARK    2  A    between atoms: C_8  and  N_9
REMARK    3  A    between atoms: N_9  and  C_10
REMARK                            x       y       z     vdW  Elec       q    Type
REMARK                         _______ _______ _______ _____ _____    ______ ____
ROOT
ATOM      1  N   UNL     1      17.972   9.474  37.753  0.00  0.00    +0.000 NA
ENDROOT
BRANCH   1   2
ATOM      2  C   UNL     1      17.569   9.922  36.491  0.00  0.00    +0.000 A 
ATOM      3  C   UNL     1      18.200   9.601  35.317  0.00  0.00    +0.000 A 
ATOM      4  C   UNL     1      17.749  10.081  34.094  0.00  0.00    +0.000 A 
ATOM      5  C   UNL     1      16.634  10.909  34.022  0.00  0.00    +0.000 A 
ATOM      6  C   UNL     1      15.995  11.234  35.206  0.00  0.00    +0.000 A 
ATOM      7  C   UNL     1      14.875  12.065  35.131  0.00  0.00    +0.000 A 
ATOM      8  C   UNL     1      14.206  12.416  36.284  0.00  0.00    +0.000 A 
ATOM      9  C   UNL     1      14.684  11.921  37.468  0.00  0.00    +0.000 A 
ATOM     10  C   UNL     1      15.791  11.098  37.549  0.00  0.00    +0.000 A 
ATOM     11  C   UNL     1      16.457  10.750  36.390  0.00  0.00    +0.000 A 
ENDBRANCH   1   2
BRANCH   1  12
ATOM     12  C   UNL     1      19.227   9.054  38.230  0.00  0.00    +0.000 C 
BRANCH  12  19
ATOM     13  C   UNL     1      20.212  13.289  38.247  0.00  0.00    +0.000 C 
ATOM     14  C   UNL     1      21.090  12.268  38.894  0.00  0.00    +0.000 C 
ATOM     15  C   UNL     1      21.983  12.827  39.970  0.00  0.00    +0.000 C 
ATOM     16  N   UNL     1      21.943  11.572  37.907  0.00  0.00    +0.000 NA
ATOM     17  C   UNL     1      21.218  10.447  37.429  0.00  0.00    +0.000 C 
ATOM     18  O   UNL     1      21.418   9.785  36.362  0.00  0.00    +0.000 OA
ATOM     19  N   UNL     1      20.177  10.149  38.363  0.00  0.00    +0.000 N 
ATOM     20  C   UNL     1      20.281  11.103  39.411  0.00  0.00    +0.000 C 
ATOM     21  O   UNL     1      19.803  11.025  40.562  0.00  0.00    +0.000 OA
ENDBRANCH  12  19
ENDBRANCH   1  12
TORSDOF 3
ENDMDL
MODEL 7
REMARK VINA RESULT:      -6.2     19.906     21.657
REMARK  Name = 
REMARK  3 active torsions:
REMARK  status: ('A' for Active; 'I' for Inactive)
REMARK    1  A    between atoms: N_7  and  C_8
REMARK    2  A    between atoms: C_8  and  N_9
REMARK    3  A    between atoms: N_9  and  C_10
REMARK                            x       y       z     vdW  Elec       q    Type
REMARK                         _______ _______ _______ _____ _____    ______ ____
ROOT
ATOM      1  N   UNL     1      17.488  10.066  38.992  0.00  0.00    +0.000 NA
ENDROOT
BRANCH   1   2
ATOM      2  C   UNL     1      17.521  10.044  37.594  0.00  0.00    +0.000 A 
ATOM      3  C   UNL     1      18.445   9.356  36.852  0.00  0.00    +0.000 A 
ATOM      4  C   UNL     1      18.424   9.376  35.463  0.00  0.00    +0.000 A 
ATOM      5  C   UNL     1      17.457  10.101  34.777  0.00  0.00    +0.000 A 
ATOM      6  C   UNL     1      16.521  10.797  35.523  0.00  0.00    +0.000 A 
ATOM      7  C   UNL     1      15.550  11.523  34.832  0.00  0.00    +0.000 A 
ATOM      8  C   UNL     1      14.597  12.231  35.534  0.00  0.00    +0.000 A 
ATOM      9  C   UNL     1      14.655  12.184  36.901  0.00  0.00    +0.000 A 
ATOM     10  C   UNL     1      15.613  11.467  37.591  0.00  0.00    +0.000 A 
ATOM     11  C   UNL     1      16.564  10.760  36.883  0.00  0.00    +0.000 A 
ENDBRANCH   1   2
BRANCH   1  12
ATOM     12  C   UNL     1      18.400   9.586  39.949  0.00  0.00    +0.000 C 
BRANCH  12  19
ATOM     13  C   UNL     1      18.229   7.462  43.739  0.00  0.00    +0.000 C 
ATOM     14  C   UNL     1      17.067   7.505  42.800  0.00  0.00    +0.000 C 
ATOM     15  C   UNL     1      15.738   7.263  43.467  0.00  0.00    +0.000 C 
ATOM     16  N   UNL     1      17.213   6.530  41.700  0.00  0.00    +0.000 NA
ATOM     17  C   UNL     1      17.914   7.172  40.645  0.00  0.00    +0.000 C 
ATOM     18  O   UNL     1      18.536   6.631  39.676  0.00  0.00    +0.000 OA
ATOM     19  N   UNL     1      17.819   8.587  40.833  0.00  0.00    +0.000 N 
ATOM     20  C   UNL     1      17.052   8.793  42.012  0.00  0.00    +0.000 C 
ATOM     21  O   UNL     1      16.459   9.834  42.362  0.00  0.00    +0.000 OA
ENDBRANCH  12  19
ENDBRANCH   1  12
TORSDOF 3
ENDMDL
MODEL 8
REMARK VINA RESULT:      -6.0     31.606     33.019
REMARK  Name = 
REMARK  3 active torsions:
REMARK  status: ('A' for Active; 'I' for Inactive)
REMARK    1  A    between atoms: N_7  and  C_8
REMARK    2  A    between atoms: C_8  and  N_9
REMARK    3  A    between atoms: N_9  and  C_10
REMARK                            x       y       z     vdW  Elec       q    Type
REMARK                         _______ _______ _______ _____ _____    ______ ____
ROOT
ATOM      1  N   UNL     1      21.247  -9.029  25.321  0.00  0.00    +0.000 NA
ENDROOT
BRANCH   1   2
ATOM      2  C   UNL     1      20.143  -8.877  26.164  0.00  0.00    +0.000 A 
ATOM      3  C   UNL     1      19.530  -9.905  26.832  0.00  0.00    +0.000 A 
ATOM      4  C   UNL     1      18.433  -9.687  27.655  0.00  0.00    +0.000 A 
ATOM      5  C   UNL     1      17.918  -8.408  27.830  0.00  0.00    +0.000 A 
ATOM      6  C   UNL     1      18.534  -7.367  27.157  0.00  0.00    +0.000 A 
ATOM      7  C   UNL     1      18.016  -6.083  27.334  0.00  0.00    +0.000 A 
ATOM      8  C   UNL     1      18.597  -5.015  26.685  0.00  0.00    +0.000 A 
ATOM      9  C   UNL     1      19.676  -5.274  25.882  0.00  0.00    +0.000 A 
ATOM     10  C   UNL     1      20.195  -6.543  25.703  0.00  0.00    +0.000 A 
ATOM     11  C   UNL     1      19.608  -7.607  26.357  0.00  0.00    +0.000 A 
ENDBRANCH   1   2
BRANCH   1  12
ATOM     12  C   UNL     1      22.599  -9.299  25.603  0.00  0.00    +0.000 C 
BRANCH  12  19
ATOM     13  C   UNL     1      26.526  -9.152  23.741  0.00  0.00    +0.000 C 
ATOM     14  C   UNL     1      25.269  -8.948  22.959  0.00  0.00    +0.000 C 
ATOM     15  C   UNL     1      25.414  -9.237  21.489  0.00  0.00    +0.000 C 
ATOM     16  N   UNL     1      24.747  -7.573  23.107  0.00  0.00    +0.000 NA
ATOM     17  C   UNL     1      23.885  -7.559  24.237  0.00  0.00    +0.000 C 
ATOM     18  O   UNL     1      23.499  -6.553  24.912  0.00  0.00    +0.000 OA
ATOM     19  N   UNL     1      23.492  -8.904  24.523  0.00  0.00    +0.000 N 
ATOM     20  C   UNL     1      24.124  -9.731  23.556  0.00  0.00    +0.000 C 
ATOM     21  O   UNL     1      23.814 -10.896  23.231  0.00  0.00    +0.000 OA
ENDBRANCH  12  19
ENDBRANCH   1  12
TORSDOF 3
ENDMDL
MODEL 9
REMARK VINA RESULT:      -6.0      2.824      5.698
REMARK  Name = 
REMARK  3 active torsions:
REMARK  status: ('A' for Active; 'I' for Inactive)
REMARK    1  A    between atoms: N_7  and  C_8
REMARK    2  A    between atoms: C_8  and  N_9
REMARK    3  A    between atoms: N_9  and  C_10
REMARK                            x       y       z     vdW  Elec       q    Type
REMARK                         _______ _______ _______ _____ _____    ______ ____
ROOT
ATOM      1  N   UNL     1      25.614  23.446  25.499  0.00  0.00    +0.000 NA
ENDROOT
BRANCH   1   2
ATOM      2  C   UNL     1      26.592  23.197  26.466  0.00  0.00    +0.000 A 
ATOM      3  C   UNL     1      27.699  22.414  26.265  0.00  0.00    +0.000 A 
ATOM      4  C   UNL     1      28.635  22.204  27.270  0.00  0.00    +0.000 A 
ATOM      5  C   UNL     1      28.476  22.788  28.522  0.00  0.00    +0.000 A 
ATOM      6  C   UNL     1      27.360  23.580  28.729  0.00  0.00    +0.000 A 
ATOM      7  C   UNL     1      27.203  24.165  29.986  0.00  0.00    +0.000 A 
ATOM      8  C   UNL     1      26.106  24.962  30.238  0.00  0.00    +0.000 A 
ATOM      9  C   UNL     1      25.209  25.142  29.219  0.00  0.00    +0.000 A 
ATOM     10  C   UNL     1      25.358  24.566  27.972  0.00  0.00    +0.000 A 
ATOM     11  C   UNL     1      26.459  23.769  27.727  0.00  0.00    +0.000 A 
ENDBRANCH   1   2
BRANCH   1  12
ATOM     12  C   UNL     1      25.484  24.485  24.558  0.00  0.00    +0.000 C 
BRANCH  12  19
ATOM     13  C   UNL     1      29.593  23.569  23.474  0.00  0.00    +0.000 C 
ATOM     14  C   UNL     1      28.779  24.573  22.723  0.00  0.00    +0.000 C 
ATOM     15  C   UNL     1      29.255  24.810  21.314  0.00  0.00    +0.000 C 
ATOM     16  N   UNL     1      28.736  25.876  23.418  0.00  0.00    +0.000 NA
ATOM     17  C   UNL     1      27.632  25.851  24.312  0.00  0.00    +0.000 C 
ATOM     18  O   UNL     1      27.426  26.600  25.319  0.00  0.00    +0.000 OA
ATOM     19  N   UNL     1      26.739  24.813  23.900  0.00  0.00    +0.000 N 
ATOM     20  C   UNL     1      27.314  24.212  22.747  0.00  0.00    +0.000 C 
ATOM     21  O   UNL     1      26.740  23.509  21.889  0.00  0.00    +0.000 OA
ENDBRANCH  12  19
ENDBRANCH   1  12
TORSDOF 3
ENDMDL
MODEL 10
REMARK VINA RESULT:      -6.0     18.043     19.170
REMARK  Name = 
REMARK  3 active torsions:
REMARK  status: ('A' for Active; 'I' for Inactive)
REMARK    1  A    between atoms: N_7  and  C_8
REMARK    2  A    between atoms: C_8  and  N_9
REMARK    3  A    between atoms: N_9  and  C_10
REMARK                            x       y       z     vdW  Elec       q    Type
REMARK                         _______ _______ _______ _____ _____    ______ ____
ROOT
ATOM      1  N   UNL     1      17.843   9.547  36.210  0.00  0.00    +0.000 NA
ENDROOT
BRANCH   1   2
ATOM      2  C   UNL     1      16.863  10.542  36.147  0.00  0.00    +0.000 A 
ATOM      3  C   UNL     1      16.327  11.173  37.239  0.00  0.00    +0.000 A 
ATOM      4  C   UNL     1      15.353  12.154  37.108  0.00  0.00    +0.000 A 
ATOM      5  C   UNL     1      14.887  12.531  35.854  0.00  0.00    +0.000 A 
ATOM      6  C   UNL     1      15.426  11.896  34.748  0.00  0.00    +0.000 A 
ATOM      7  C   UNL     1      14.957  12.275  33.489  0.00  0.00    +0.000 A 
ATOM      8  C   UNL     1      15.464  11.670  32.359  0.00  0.00    +0.000 A 
ATOM      9  C   UNL     1      16.423  10.708  32.534  0.00  0.00    +0.000 A 
ATOM     10  C   UNL     1      16.892  10.328  33.777  0.00  0.00    +0.000 A 
ATOM     11  C   UNL     1      16.379  10.938  34.904  0.00  0.00    +0.000 A 
ENDBRANCH   1   2
BRANCH   1  12
ATOM     12  C   UNL     1      19.227   9.591  35.959  0.00  0.00    +0.000 C 
BRANCH  12  19
ATOM     13  C   UNL     1      20.342  11.480  39.713  0.00  0.00    +0.000 C 
ATOM     14  C   UNL     1      20.640  10.044  39.428  0.00  0.00    +0.000 C 
ATOM     15  C   UNL     1      20.828   9.205  40.664  0.00  0.00    +0.000 C 
ATOM     16  N   UNL     1      21.843   9.889  38.582  0.00  0.00    +0.000 NA
ATOM     17  C   UNL     1      21.423   9.930  37.225  0.00  0.00    +0.000 C 
ATOM     18  O   UNL     1      22.131  10.168  36.196  0.00  0.00    +0.000 OA
ATOM     19  N   UNL     1      20.022   9.652  37.176  0.00  0.00    +0.000 N 
ATOM     20  C   UNL     1      19.598   9.442  38.516  0.00  0.00    +0.000 C 
ATOM     21  O   UNL     1      18.560   8.867  38.906  0.00  0.00    +0.000 OA
ENDBRANCH  12  19
ENDBRANCH   1  12
TORSDOF 3
ENDMDL
