MODEL 1
REMARK VINA RESULT:      -7.1      0.000      0.000
REMARK  Name = 
REMARK  3 active torsions:
REMARK  status: ('A' for Active; 'I' for Inactive)
REMARK    1  A    between atoms: C_2  and  C_14
REMARK    2  A    between atoms: N_3  and  C_4
REMARK    3  A    between atoms: C_18  and  N_19
REMARK                            x       y       z     vdW  Elec       q    Type
REMARK                         _______ _______ _______ _____ _____    ______ ____
ROOT
ATOM      1  O   UNL     1      30.677  22.050  10.077  0.00  0.00    +0.000 OA
ATOM      2  C   UNL     1      30.788  22.352  11.299  0.00  0.00    +0.000 C 
ATOM      3  N   UNL     1      32.064  22.201  11.868  0.00  0.00    +0.000 NA
ENDROOT
BRANCH   3   4
ATOM      4  C   UNL     1      33.154  21.745  11.143  0.00  0.00    +0.000 C 
ATOM      5  C   UNL     1      33.479  20.319  11.036  0.00  0.00    +0.000 C 
ATOM      6  C   UNL     1      34.963  20.059  11.335  0.00  0.00    +0.000 C 
ATOM      7  C   UNL     1      35.848  20.919  10.480  0.00  0.00    +0.000 C 
ATOM      8  C   UNL     1      35.639  20.629   8.989  0.00  0.00    +0.000 C 
ATOM      9  C   UNL     1      34.168  20.923   8.696  0.00  0.00    +0.000 C 
ATOM     10  C   UNL     1      33.354  19.976   9.535  0.00  0.00    +0.000 C 
ATOM     11  C   UNL     1      33.878  22.377   8.943  0.00  0.00    +0.000 C 
ATOM     12  C   UNL     1      34.056  22.681  10.443  0.00  0.00    +0.000 C 
ATOM     13  C   UNL     1      35.535  22.360  10.713  0.00  0.00    +0.000 C 
ENDBRANCH   3   4
BRANCH   2  14
ATOM     14  C   UNL     1      29.605  22.821  11.990  0.00  0.00    +0.000 A 
ATOM     15  C   UNL     1      29.658  23.204  13.310  0.00  0.00    +0.000 A 
ATOM     16  C   UNL     1      28.590  23.656  14.034  0.00  0.00    +0.000 A 
ATOM     17  C   UNL     1      27.361  23.746  13.431  0.00  0.00    +0.000 A 
ATOM     18  C   UNL     1      27.262  23.375  12.110  0.00  0.00    +0.000 A 
ATOM     19  C   UNL     1      28.362  22.915  11.386  0.00  0.00    +0.000 A 
BRANCH  18  20
ATOM     20  N   UNL     1      26.006  23.460  11.450  0.00  0.00    +0.000 N 
ATOM     21  O   UNL     1      25.710  22.587  10.638  0.00  0.00    +0.000 OA
ATOM     22  O   UNL     1      25.156  24.524  11.738  0.00  0.00    +0.000 OA
ENDBRANCH  18  20
ENDBRANCH   2  14
TORSDOF 3
ENDMDL
MODEL 2
REMARK VINA RESULT:      -6.8     19.607     20.385
REMARK  Name = 
REMARK  3 active torsions:
REMARK  status: ('A' for Active; 'I' for Inactive)
REMARK    1  A    between atoms: C_2  and  C_14
REMARK    2  A    between atoms: N_3  and  C_4
REMARK    3  A    between atoms: C_18  and  N_19
REMARK                            x       y       z     vdW  Elec       q    Type
REMARK                         _______ _______ _______ _____ _____    ______ ____
ROOT
ATOM      1  O   UNL     1      25.345   3.750  18.791  0.00  0.00    +0.000 OA
ATOM      2  C   UNL     1      24.765   3.532  17.689  0.00  0.00    +0.000 C 
ATOM      3  N   UNL     1      25.277   4.208  16.568  0.00  0.00    +0.000 NA
ENDROOT
BRANCH   3   4
ATOM      4  C   UNL     1      26.358   5.071  16.649  0.00  0.00    +0.000 C 
ATOM      5  C   UNL     1      27.744   4.596  16.574  0.00  0.00    +0.000 C 
ATOM      6  C   UNL     1      28.598   5.179  17.709  0.00  0.00    +0.000 C 
ATOM      7  C   UNL     1      28.503   6.676  17.746  0.00  0.00    +0.000 C 
ATOM      8  C   UNL     1      29.012   7.302  16.443  0.00  0.00    +0.000 C 
ATOM      9  C   UNL     1      28.134   6.741  15.324  0.00  0.00    +0.000 C 
ATOM     10  C   UNL     1      28.340   5.251  15.308  0.00  0.00    +0.000 C 
ATOM     11  C   UNL     1      26.707   7.168  15.532  0.00  0.00    +0.000 C 
ATOM     12  C   UNL     1      26.169   6.525  16.825  0.00  0.00    +0.000 C 
ATOM     13  C   UNL     1      27.080   7.091  17.926  0.00  0.00    +0.000 C 
ENDBRANCH   3   4
BRANCH   2  14
ATOM     14  C   UNL     1      23.643   2.617  17.683  0.00  0.00    +0.000 A 
ATOM     15  C   UNL     1      23.827   1.268  17.492  0.00  0.00    +0.000 A 
ATOM     16  C   UNL     1      22.823   0.340  17.471  0.00  0.00    +0.000 A 
ATOM     17  C   UNL     1      21.526   0.750  17.650  0.00  0.00    +0.000 A 
ATOM     18  C   UNL     1      21.296   2.092  17.846  0.00  0.00    +0.000 A 
ATOM     19  C   UNL     1      22.332   3.026  17.864  0.00  0.00    +0.000 A 
BRANCH  18  20
ATOM     20  N   UNL     1      19.965   2.554  18.040  0.00  0.00    +0.000 N 
ATOM     21  O   UNL     1      19.043   1.904  17.556  0.00  0.00    +0.000 OA
ATOM     22  O   UNL     1      19.749   3.724  18.763  0.00  0.00    +0.000 OA
ENDBRANCH  18  20
ENDBRANCH   2  14
TORSDOF 3
ENDMDL
MODEL 3
REMARK VINA RESULT:      -6.8      8.857     10.965
REMARK  Name = 
REMARK  3 active torsions:
REMARK  status: ('A' for Active; 'I' for Inactive)
REMARK    1  A    between atoms: C_2  and  C_14
REMARK    2  A    between atoms: N_3  and  C_4
REMARK    3  A    between atoms: C_18  and  N_19
REMARK                            x       y       z     vdW  Elec       q    Type
REMARK                         _______ _______ _______ _____ _____    ______ ____
ROOT
ATOM      1  O   UNL     1      28.557  27.570  20.801  0.00  0.00    +0.000 OA
ATOM      2  C   UNL     1      29.091  26.435  20.644  0.00  0.00    +0.000 C 
ATOM      3  N   UNL     1      29.922  26.284  19.520  0.00  0.00    +0.000 NA
ENDROOT
BRANCH   3   4
ATOM      4  C   UNL     1      30.154  27.313  18.622  0.00  0.00    +0.000 C 
ATOM      5  C   UNL     1      31.178  28.337  18.855  0.00  0.00    +0.000 C 
ATOM      6  C   UNL     1      30.617  29.750  18.640  0.00  0.00    +0.000 C 
ATOM      7  C   UNL     1      29.970  29.878  17.291  0.00  0.00    +0.000 C 
ATOM      8  C   UNL     1      30.975  29.623  16.161  0.00  0.00    +0.000 C 
ATOM      9  C   UNL     1      31.502  28.202  16.366  0.00  0.00    +0.000 C 
ATOM     10  C   UNL     1      32.194  28.179  17.702  0.00  0.00    +0.000 C 
ATOM     11  C   UNL     1      30.375  27.215  16.233  0.00  0.00    +0.000 C 
ATOM     12  C   UNL     1      29.368  27.439  17.378  0.00  0.00    +0.000 C 
ATOM     13  C   UNL     1      28.870  28.876  17.158  0.00  0.00    +0.000 C 
ENDBRANCH   3   4
BRANCH   2  14
ATOM     14  C   UNL     1      28.803  25.409  21.625  0.00  0.00    +0.000 A 
ATOM     15  C   UNL     1      29.807  24.828  22.362  0.00  0.00    +0.000 A 
ATOM     16  C   UNL     1      29.619  23.855  23.304  0.00  0.00    +0.000 A 
ATOM     17  C   UNL     1      28.350  23.401  23.556  0.00  0.00    +0.000 A 
ATOM     18  C   UNL     1      27.313  23.956  22.842  0.00  0.00    +0.000 A 
ATOM     19  C   UNL     1      27.522  24.949  21.884  0.00  0.00    +0.000 A 
BRANCH  18  20
ATOM     20  N   UNL     1      25.983  23.515  23.080  0.00  0.00    +0.000 N 
ATOM     21  O   UNL     1      25.445  23.822  24.140  0.00  0.00    +0.000 OA
ATOM     22  O   UNL     1      25.336  22.751  22.113  0.00  0.00    +0.000 OA
ENDBRANCH  18  20
ENDBRANCH   2  14
TORSDOF 3
ENDMDL
MODEL 4
REMARK VINA RESULT:      -6.7     33.958     34.730
REMARK  Name = 
REMARK  3 active torsions:
REMARK  status: ('A' for Active; 'I' for Inactive)
REMARK    1  A    between atoms: C_2  and  C_14
REMARK    2  A    between atoms: N_3  and  C_4
REMARK    3  A    between atoms: C_18  and  N_19
REMARK                            x       y       z     vdW  Elec       q    Type
REMARK                         _______ _______ _______ _____ _____    ______ ____
ROOT
ATOM      1  O   UNL     1      21.213  -9.088  23.965  0.00  0.00    +0.000 OA
ATOM      2  C   UNL     1      21.520  -8.651  25.111  0.00  0.00    +0.000 C 
ATOM      3  N   UNL     1      22.879  -8.360  25.327  0.00  0.00    +0.000 NA
ENDROOT
BRANCH   3   4
ATOM      4  C   UNL     1      23.843  -8.537  24.347  0.00  0.00    +0.000 C 
ATOM      5  C   UNL     1      24.605  -9.784  24.219  0.00  0.00    +0.000 C 
ATOM      6  C   UNL     1      26.112  -9.510  24.103  0.00  0.00    +0.000 C 
ATOM      7  C   UNL     1      26.403  -8.539  22.995  0.00  0.00    +0.000 C 
ATOM      8  C   UNL     1      25.945  -9.085  21.638  0.00  0.00    +0.000 C 
ATOM      9  C   UNL     1      24.440  -9.322  21.754  0.00  0.00    +0.000 C 
ATOM     10  C   UNL     1      24.239 -10.354  22.831  0.00  0.00    +0.000 C 
ATOM     11  C   UNL     1      23.734  -8.018  22.006  0.00  0.00    +0.000 C 
ATOM     12  C   UNL     1      24.162  -7.468  23.380  0.00  0.00    +0.000 C 
ATOM     13  C   UNL     1      25.677  -7.257  23.240  0.00  0.00    +0.000 C 
ENDBRANCH   3   4
BRANCH   2  14
ATOM     14  C   UNL     1      20.458  -8.491  26.082  0.00  0.00    +0.000 A 
ATOM     15  C   UNL     1      20.272  -9.408  27.089  0.00  0.00    +0.000 A 
ATOM     16  C   UNL     1      19.294  -9.331  28.041  0.00  0.00    +0.000 A 
ATOM     17  C   UNL     1      18.418  -8.276  28.021  0.00  0.00    +0.000 A 
ATOM     18  C   UNL     1      18.568  -7.333  27.031  0.00  0.00    +0.000 A 
ATOM     19  C   UNL     1      19.571  -7.427  26.065  0.00  0.00    +0.000 A 
BRANCH  18  20
ATOM     20  N   UNL     1      17.682  -6.223  26.980  0.00  0.00    +0.000 N 
ATOM     21  O   UNL     1      16.500  -6.403  27.259  0.00  0.00    +0.000 OA
ATOM     22  O   UNL     1      18.176  -4.974  26.613  0.00  0.00    +0.000 OA
ENDBRANCH  18  20
ENDBRANCH   2  14
TORSDOF 3
ENDMDL
MODEL 5
REMARK VINA RESULT:      -6.5     33.830     34.639
REMARK  Name = 
REMARK  3 active torsions:
REMARK  status: ('A' for Active; 'I' for Inactive)
REMARK    1  A    between atoms: C_2  and  C_14
REMARK    2  A    between atoms: N_3  and  C_4
REMARK    3  A    between atoms: C_18  and  N_19
REMARK                            x       y       z     vdW  Elec       q    Type
REMARK                         _______ _______ _______ _____ _____    ______ ____
ROOT
ATOM      1  O   UNL     1      22.598  -6.721  25.330  0.00  0.00    +0.000 OA
ATOM      2  C   UNL     1      21.523  -7.323  25.047  0.00  0.00    +0.000 C 
ATOM      3  N   UNL     1      21.611  -8.344  24.085  0.00  0.00    +0.000 NA
ENDROOT
BRANCH   3   4
ATOM      4  C   UNL     1      22.804  -8.685  23.468  0.00  0.00    +0.000 C 
ATOM      5  C   UNL     1      23.398  -7.864  22.407  0.00  0.00    +0.000 C 
ATOM      6  C   UNL     1      23.800  -8.718  21.197  0.00  0.00    +0.000 C 
ATOM      7  C   UNL     1      24.686  -9.859  21.607  0.00  0.00    +0.000 C 
ATOM      8  C   UNL     1      25.986  -9.356  22.247  0.00  0.00    +0.000 C 
ATOM      9  C   UNL     1      25.575  -8.535  23.469  0.00  0.00    +0.000 C 
ATOM     10  C   UNL     1      24.754  -7.379  22.967  0.00  0.00    +0.000 C 
ATOM     11  C   UNL     1      24.865  -9.415  24.461  0.00  0.00    +0.000 C 
ATOM     12  C   UNL     1      23.541  -9.908  23.845  0.00  0.00    +0.000 C 
ATOM     13  C   UNL     1      23.983 -10.712  22.611  0.00  0.00    +0.000 C 
ENDBRANCH   3   4
BRANCH   2  14
ATOM     14  C   UNL     1      20.315  -6.912  25.733  0.00  0.00    +0.000 A 
ATOM     15  C   UNL     1      19.992  -5.582  25.866  0.00  0.00    +0.000 A 
ATOM     16  C   UNL     1      18.875  -5.112  26.499  0.00  0.00    +0.000 A 
ATOM     17  C   UNL     1      17.991  -6.003  27.052  0.00  0.00    +0.000 A 
ATOM     18  C   UNL     1      18.275  -7.345  26.941  0.00  0.00    +0.000 A 
ATOM     19  C   UNL     1      19.420  -7.808  26.292  0.00  0.00    +0.000 A 
BRANCH  18  20
ATOM     20  N   UNL     1      17.380  -8.299  27.498  0.00  0.00    +0.000 N 
ATOM     21  O   UNL     1      17.660  -8.802  28.583  0.00  0.00    +0.000 OA
ATOM     22  O   UNL     1      16.224  -8.636  26.800  0.00  0.00    +0.000 OA
ENDBRANCH  18  20
ENDBRANCH   2  14
TORSDOF 3
ENDMDL
MODEL 6
REMARK VINA RESULT:      -6.5     13.347     16.112
REMARK  Name = 
REMARK  3 active torsions:
REMARK  status: ('A' for Active; 'I' for Inactive)
REMARK    1  A    between atoms: C_2  and  C_14
REMARK    2  A    between atoms: N_3  and  C_4
REMARK    3  A    between atoms: C_18  and  N_19
REMARK                            x       y       z     vdW  Elec       q    Type
REMARK                         _______ _______ _______ _____ _____    ______ ____
ROOT
ATOM      1  O   UNL     1      30.037  23.755  25.945  0.00  0.00    +0.000 OA
ATOM      2  C   UNL     1      28.908  23.812  26.511  0.00  0.00    +0.000 C 
ATOM      3  N   UNL     1      27.837  24.276  25.728  0.00  0.00    +0.000 NA
ENDROOT
BRANCH   3   4
ATOM      4  C   UNL     1      27.992  24.655  24.404  0.00  0.00    +0.000 C 
ATOM      5  C   UNL     1      28.226  26.050  24.014  0.00  0.00    +0.000 C 
ATOM      6  C   UNL     1      27.284  26.480  22.881  0.00  0.00    +0.000 C 
ATOM      7  C   UNL     1      27.366  25.534  21.718  0.00  0.00    +0.000 C 
ATOM      8  C   UNL     1      28.781  25.493  21.128  0.00  0.00    +0.000 C 
ATOM      9  C   UNL     1      29.704  25.032  22.255  0.00  0.00    +0.000 C 
ATOM     10  C   UNL     1      29.619  26.065  23.345  0.00  0.00    +0.000 C 
ATOM     11  C   UNL     1      29.328  23.641  22.687  0.00  0.00    +0.000 C 
ATOM     12  C   UNL     1      27.919  23.668  23.309  0.00  0.00    +0.000 C 
ATOM     13  C   UNL     1      27.017  24.152  22.162  0.00  0.00    +0.000 C 
ENDBRANCH   3   4
BRANCH   2  14
ATOM     14  C   UNL     1      28.824  23.399  27.897  0.00  0.00    +0.000 A 
ATOM     15  C   UNL     1      29.954  23.094  28.618  0.00  0.00    +0.000 A 
ATOM     16  C   UNL     1      29.960  22.695  29.925  0.00  0.00    +0.000 A 
ATOM     17  C   UNL     1      28.771  22.580  30.597  0.00  0.00    +0.000 A 
ATOM     18  C   UNL     1      27.613  22.876  29.915  0.00  0.00    +0.000 A 
ATOM     19  C   UNL     1      27.624  23.282  28.580  0.00  0.00    +0.000 A 
BRANCH  18  20
ATOM     20  N   UNL     1      26.361  22.774  30.580  0.00  0.00    +0.000 N 
ATOM     21  O   UNL     1      25.759  23.807  30.859  0.00  0.00    +0.000 OA
ATOM     22  O   UNL     1      25.861  21.514  30.898  0.00  0.00    +0.000 OA
ENDBRANCH  18  20
ENDBRANCH   2  14
TORSDOF 3
ENDMDL
MODEL 7
REMARK VINA RESULT:      -6.5     34.098     34.867
REMARK  Name = 
REMARK  3 active torsions:
REMARK  status: ('A' for Active; 'I' for Inactive)
REMARK    1  A    between atoms: C_2  and  C_14
REMARK    2  A    between atoms: N_3  and  C_4
REMARK    3  A    between atoms: C_18  and  N_19
REMARK                            x       y       z     vdW  Elec       q    Type
REMARK                         _______ _______ _______ _____ _____    ______ ____
ROOT
ATOM      1  O   UNL     1      20.887  -8.626  23.911  0.00  0.00    +0.000 OA
ATOM      2  C   UNL     1      21.149  -7.974  24.962  0.00  0.00    +0.000 C 
ATOM      3  N   UNL     1      22.506  -7.700  25.206  0.00  0.00    +0.000 NA
ENDROOT
BRANCH   3   4
ATOM      4  C   UNL     1      23.515  -8.114  24.351  0.00  0.00    +0.000 C 
ATOM      5  C   UNL     1      24.125  -9.445  24.450  0.00  0.00    +0.000 C 
ATOM      6  C   UNL     1      25.658  -9.361  24.443  0.00  0.00    +0.000 C 
ATOM      7  C   UNL     1      26.154  -8.585  23.257  0.00  0.00    +0.000 C 
ATOM      8  C   UNL     1      25.740  -9.252  21.940  0.00  0.00    +0.000 C 
ATOM      9  C   UNL     1      24.213  -9.300  21.942  0.00  0.00    +0.000 C 
ATOM     10  C   UNL     1      23.801 -10.149  23.114  0.00  0.00    +0.000 C 
ATOM     11  C   UNL     1      23.657  -7.903  21.964  0.00  0.00    +0.000 C 
ATOM     12  C   UNL     1      24.040  -7.226  23.294  0.00  0.00    +0.000 C 
ATOM     13  C   UNL     1      25.576  -7.208  23.272  0.00  0.00    +0.000 C 
ENDBRANCH   3   4
BRANCH   2  14
ATOM     14  C   UNL     1      20.042  -7.575  25.805  0.00  0.00    +0.000 A 
ATOM     15  C   UNL     1      19.669  -6.256  25.911  0.00  0.00    +0.000 A 
ATOM     16  C   UNL     1      18.639  -5.798  26.685  0.00  0.00    +0.000 A 
ATOM     17  C   UNL     1      17.904  -6.691  27.423  0.00  0.00    +0.000 A 
ATOM     18  C   UNL     1      18.243  -8.022  27.346  0.00  0.00    +0.000 A 
ATOM     19  C   UNL     1      19.297  -8.474  26.552  0.00  0.00    +0.000 A 
BRANCH  18  20
ATOM     20  N   UNL     1      17.501  -8.978  28.092  0.00  0.00    +0.000 N 
ATOM     21  O   UNL     1      17.794  -9.156  29.271  0.00  0.00    +0.000 OA
ATOM     22  O   UNL     1      16.475  -9.682  27.468  0.00  0.00    +0.000 OA
ENDBRANCH  18  20
ENDBRANCH   2  14
TORSDOF 3
ENDMDL
MODEL 8
REMARK VINA RESULT:      -6.5     32.630     34.073
REMARK  Name = 
REMARK  3 active torsions:
REMARK  status: ('A' for Active; 'I' for Inactive)
REMARK    1  A    between atoms: C_2  and  C_14
REMARK    2  A    between atoms: N_3  and  C_4
REMARK    3  A    between atoms: C_18  and  N_19
REMARK                            x       y       z     vdW  Elec       q    Type
REMARK                         _______ _______ _______ _____ _____    ______ ____
ROOT
ATOM      1  O   UNL     1      34.173  -4.791  34.019  0.00  0.00    +0.000 OA
ATOM      2  C   UNL     1      33.615  -3.883  33.339  0.00  0.00    +0.000 C 
ATOM      3  N   UNL     1      33.273  -4.213  32.016  0.00  0.00    +0.000 NA
ENDROOT
BRANCH   3   4
ATOM      4  C   UNL     1      33.528  -5.460  31.470  0.00  0.00    +0.000 C 
ATOM      5  C   UNL     1      32.558  -6.558  31.547  0.00  0.00    +0.000 C 
ATOM      6  C   UNL     1      33.217  -7.855  32.038  0.00  0.00    +0.000 C 
ATOM      7  C   UNL     1      34.417  -8.203  31.206  0.00  0.00    +0.000 C 
ATOM      8  C   UNL     1      34.035  -8.428  29.738  0.00  0.00    +0.000 C 
ATOM      9  C   UNL     1      33.411  -7.121  29.250  0.00  0.00    +0.000 C 
ATOM     10  C   UNL     1      32.181  -6.883  30.084  0.00  0.00    +0.000 C 
ATOM     11  C   UNL     1      34.427  -6.014  29.314  0.00  0.00    +0.000 C 
ATOM     12  C   UNL     1      34.802  -5.755  30.786  0.00  0.00    +0.000 C 
ATOM     13  C   UNL     1      35.409  -7.087  31.253  0.00  0.00    +0.000 C 
ENDBRANCH   3   4
BRANCH   2  14
ATOM     14  C   UNL     1      33.382  -2.605  33.978  0.00  0.00    +0.000 A 
ATOM     15  C   UNL     1      32.837  -2.529  35.239  0.00  0.00    +0.000 A 
ATOM     16  C   UNL     1      32.584  -1.365  35.909  0.00  0.00    +0.000 A 
ATOM     17  C   UNL     1      32.883  -0.167  35.311  0.00  0.00    +0.000 A 
ATOM     18  C   UNL     1      33.430  -0.196  34.049  0.00  0.00    +0.000 A 
ATOM     19  C   UNL     1      33.682  -1.393  33.378  0.00  0.00    +0.000 A 
BRANCH  18  20
ATOM     20  N   UNL     1      33.757   1.026  33.399  0.00  0.00    +0.000 N 
ATOM     21  O   UNL     1      34.254   0.977  32.277  0.00  0.00    +0.000 OA
ATOM     22  O   UNL     1      33.512   2.231  34.051  0.00  0.00    +0.000 OA
ENDBRANCH  18  20
ENDBRANCH   2  14
TORSDOF 3
ENDMDL
MODEL 9
REMARK VINA RESULT:      -6.4      8.802     10.877
REMARK  Name = 
REMARK  3 active torsions:
REMARK  status: ('A' for Active; 'I' for Inactive)
REMARK    1  A    between atoms: C_2  and  C_14
REMARK    2  A    between atoms: N_3  and  C_4
REMARK    3  A    between atoms: C_18  and  N_19
REMARK                            x       y       z     vdW  Elec       q    Type
REMARK                         _______ _______ _______ _____ _____    ______ ____
ROOT
ATOM      1  O   UNL     1      28.665  27.874  20.571  0.00  0.00    +0.000 OA
ATOM      2  C   UNL     1      29.158  26.710  20.550  0.00  0.00    +0.000 C 
ATOM      3  N   UNL     1      30.009  26.410  19.472  0.00  0.00    +0.000 NA
ENDROOT
BRANCH   3   4
ATOM      4  C   UNL     1      30.302  27.328  18.477  0.00  0.00    +0.000 C 
ATOM      5  C   UNL     1      29.528  27.406  17.233  0.00  0.00    +0.000 C 
ATOM      6  C   UNL     1      30.446  27.431  16.002  0.00  0.00    +0.000 C 
ATOM      7  C   UNL     1      31.472  28.522  16.112  0.00  0.00    +0.000 C 
ATOM      8  C   UNL     1      30.812  29.903  16.203  0.00  0.00    +0.000 C 
ATOM      9  C   UNL     1      29.927  29.878  17.449  0.00  0.00    +0.000 C 
ATOM     10  C   UNL     1      28.889  28.812  17.229  0.00  0.00    +0.000 C 
ATOM     11  C   UNL     1      30.775  29.674  18.674  0.00  0.00    +0.000 C 
ATOM     12  C   UNL     1      31.425  28.278  18.614  0.00  0.00    +0.000 C 
ATOM     13  C   UNL     1      32.291  28.327  17.345  0.00  0.00    +0.000 C 
ENDBRANCH   3   4
BRANCH   2  14
ATOM     14  C   UNL     1      28.806  25.806  21.625  0.00  0.00    +0.000 A 
ATOM     15  C   UNL     1      29.628  25.643  22.715  0.00  0.00    +0.000 A 
ATOM     16  C   UNL     1      29.370  24.811  23.768  0.00  0.00    +0.000 A 
ATOM     17  C   UNL     1      28.216  24.069  23.770  0.00  0.00    +0.000 A 
ATOM     18  C   UNL     1      27.362  24.202  22.699  0.00  0.00    +0.000 A 
ATOM     19  C   UNL     1      27.641  25.056  21.632  0.00  0.00    +0.000 A 
BRANCH  18  20
ATOM     20  N   UNL     1      26.154  23.454  22.669  0.00  0.00    +0.000 N 
ATOM     21  O   UNL     1      25.705  23.110  21.579  0.00  0.00    +0.000 OA
ATOM     22  O   UNL     1      25.518  23.139  23.867  0.00  0.00    +0.000 OA
ENDBRANCH  18  20
ENDBRANCH   2  14
TORSDOF 3
ENDMDL
MODEL 10
REMARK VINA RESULT:      -6.2      8.843     12.222
REMARK  Name = 
REMARK  3 active torsions:
REMARK  status: ('A' for Active; 'I' for Inactive)
REMARK    1  A    between atoms: C_2  and  C_14
REMARK    2  A    between atoms: N_3  and  C_4
REMARK    3  A    between atoms: C_18  and  N_19
REMARK                            x       y       z     vdW  Elec       q    Type
REMARK                         _______ _______ _______ _____ _____    ______ ____
ROOT
ATOM      1  O   UNL     1      29.422  27.754  20.673  0.00  0.00    +0.000 OA
ATOM      2  C   UNL     1      29.782  26.876  19.838  0.00  0.00    +0.000 C 
ATOM      3  N   UNL     1      29.578  25.536  20.210  0.00  0.00    +0.000 NA
ENDROOT
BRANCH   3   4
ATOM      4  C   UNL     1      29.015  25.178  21.425  0.00  0.00    +0.000 C 
ATOM      5  C   UNL     1      29.832  24.802  22.583  0.00  0.00    +0.000 C 
ATOM      6  C   UNL     1      29.335  23.494  23.218  0.00  0.00    +0.000 C 
ATOM      7  C   UNL     1      27.872  23.571  23.544  0.00  0.00    +0.000 C 
ATOM      8  C   UNL     1      27.580  24.690  24.550  0.00  0.00    +0.000 C 
ATOM      9  C   UNL     1      28.047  25.990  23.895  0.00  0.00    +0.000 C 
ATOM     10  C   UNL     1      29.529  25.860  23.667  0.00  0.00    +0.000 C 
ATOM     11  C   UNL     1      27.249  26.250  22.648  0.00  0.00    +0.000 C 
ATOM     12  C   UNL     1      27.551  25.148  21.614  0.00  0.00    +0.000 C 
ATOM     13  C   UNL     1      27.089  23.856  22.304  0.00  0.00    +0.000 C 
ENDBRANCH   3   4
BRANCH   2  14
ATOM     14  C   UNL     1      30.362  27.327  18.590  0.00  0.00    +0.000 A 
ATOM     15  C   UNL     1      29.859  26.909  17.380  0.00  0.00    +0.000 A 
ATOM     16  C   UNL     1      30.349  27.285  16.161  0.00  0.00    +0.000 A 
ATOM     17  C   UNL     1      31.420  28.141  16.103  0.00  0.00    +0.000 A 
ATOM     18  C   UNL     1      31.954  28.586  17.290  0.00  0.00    +0.000 A 
ATOM     19  C   UNL     1      31.442  28.192  18.526  0.00  0.00    +0.000 A 
BRANCH  18  20
ATOM     20  N   UNL     1      33.061  29.479  17.269  0.00  0.00    +0.000 N 
ATOM     21  O   UNL     1      32.897  30.605  16.808  0.00  0.00    +0.000 OA
ATOM     22  O   UNL     1      34.289  29.051  17.764  0.00  0.00    +0.000 OA
ENDBRANCH  18  20
ENDBRANCH   2  14
TORSDOF 3
ENDMDL
