MODEL 1
REMARK VINA RESULT:      -5.8      0.000      0.000
REMARK  Name = 
REMARK  5 active torsions:
REMARK  status: ('A' for Active; 'I' for Inactive)
REMARK    1  A    between atoms: O_2  and  C_3
REMARK    2  A    between atoms: C_3  and  C_5
REMARK    3  A    between atoms: C_9  and  C_10
REMARK    4  A    between atoms: N_12  and  C_13
REMARK    5  A    between atoms: C_13  and  C_14
REMARK                            x       y       z     vdW  Elec       q    Type
REMARK                         _______ _______ _______ _____ _____    ______ ____
ROOT
ATOM      1  C   UNL     1      19.407  10.743  37.602  0.00  0.00    +0.000 A 
ATOM      2  C   UNL     1      19.186  12.083  37.911  0.00  0.00    +0.000 A 
ATOM      3  C   UNL     1      20.079  12.955  38.730  0.00  0.00    +0.000 C 
ATOM      4  N   UNL     1      18.028  12.471  37.346  0.00  0.00    +0.000 NA
ATOM      5  C   UNL     1      17.458  11.455  36.673  0.00  0.00    +0.000 A 
ATOM      6  C   UNL     1      18.318  10.385  36.834  0.00  0.00    +0.000 A 
ATOM      7  C   UNL     1      18.077   9.042  36.249  0.00  0.00    +0.000 C 
ENDROOT
BRANCH   5   8
ATOM      8  C   UNL     1      16.197  11.478  35.927  0.00  0.00    +0.000 C 
ATOM      9  O   UNL     1      15.119  11.372  36.565  0.00  0.00    +0.000 OA
ATOM     10  N   UNL     1      16.129  11.612  34.528  0.00  0.00    +0.000 NA
BRANCH  10  11
ATOM     11  C   UNL     1      14.892  11.637  33.772  0.00  0.00    +0.000 C 
BRANCH  11  12
ATOM     12  C   UNL     1      15.041  12.393  32.505  0.00  0.00    +0.000 A 
ATOM     13  C   UNL     1      15.999  12.199  31.543  0.00  0.00    +0.000 A 
ATOM     14  C   UNL     1      15.722  13.143  30.561  0.00  0.00    +0.000 A 
ATOM     15  C   UNL     1      14.616  13.846  30.992  0.00  0.00    +0.000 A 
ATOM     16  O   UNL     1      14.244  13.365  32.155  0.00  0.00    +0.000 OA
ENDBRANCH  11  12
ENDBRANCH  10  11
ENDBRANCH   5   8
BRANCH   1  17
ATOM     17  C   UNL     1      20.549   9.930  38.017  0.00  0.00    +0.000 C 
ATOM     18  O   UNL     1      21.602   9.913  37.322  0.00  0.00    +0.000 OA
BRANCH  17  20
ATOM     19  C   UNL     1      21.033   9.700  40.372  0.00  0.00    +0.000 C 
ATOM     20  O   UNL     1      20.514   9.161  39.172  0.00  0.00    +0.000 OA
ENDBRANCH  17  20
ENDBRANCH   1  17
TORSDOF 5
ENDMDL
MODEL 2
REMARK VINA RESULT:      -5.7      2.561      2.988
REMARK  Name = 
REMARK  5 active torsions:
REMARK  status: ('A' for Active; 'I' for Inactive)
REMARK    1  A    between atoms: O_2  and  C_3
REMARK    2  A    between atoms: C_3  and  C_5
REMARK    3  A    between atoms: C_9  and  C_10
REMARK    4  A    between atoms: N_12  and  C_13
REMARK    5  A    between atoms: C_13  and  C_14
REMARK                            x       y       z     vdW  Elec       q    Type
REMARK                         _______ _______ _______ _____ _____    ______ ____
ROOT
ATOM      1  C   UNL     1      17.835   9.023  39.396  0.00  0.00    +0.000 A 
ATOM      2  C   UNL     1      16.694   9.497  40.039  0.00  0.00    +0.000 A 
ATOM      3  C   UNL     1      16.182   9.046  41.367  0.00  0.00    +0.000 C 
ATOM      4  N   UNL     1      16.121  10.436  39.264  0.00  0.00    +0.000 NA
ATOM      5  C   UNL     1      16.822  10.616  38.130  0.00  0.00    +0.000 A 
ATOM      6  C   UNL     1      17.885   9.737  38.216  0.00  0.00    +0.000 A 
ATOM      7  C   UNL     1      18.925   9.601  37.166  0.00  0.00    +0.000 C 
ENDROOT
BRANCH   5   8
ATOM      8  C   UNL     1      16.523  11.546  37.037  0.00  0.00    +0.000 C 
ATOM      9  O   UNL     1      17.076  12.674  37.039  0.00  0.00    +0.000 OA
ATOM     10  N   UNL     1      15.644  11.239  35.981  0.00  0.00    +0.000 NA
BRANCH  10  11
ATOM     11  C   UNL     1      15.335  12.144  34.891  0.00  0.00    +0.000 C 
BRANCH  11  12
ATOM     12  C   UNL     1      15.597  11.520  33.572  0.00  0.00    +0.000 A 
ATOM     13  C   UNL     1      16.643  10.696  33.249  0.00  0.00    +0.000 A 
ATOM     14  C   UNL     1      16.453  10.375  31.910  0.00  0.00    +0.000 A 
ATOM     15  C   UNL     1      15.304  11.027  31.510  0.00  0.00    +0.000 A 
ATOM     16  O   UNL     1      14.828  11.697  32.532  0.00  0.00    +0.000 OA
ENDBRANCH  11  12
ENDBRANCH  10  11
ENDBRANCH   5   8
BRANCH   1  17
ATOM     17  C   UNL     1      18.752   7.996  39.891  0.00  0.00    +0.000 C 
ATOM     18  O   UNL     1      19.925   8.307  40.238  0.00  0.00    +0.000 OA
BRANCH  17  20
ATOM     19  C   UNL     1      19.362   5.677  40.173  0.00  0.00    +0.000 C 
ATOM     20  O   UNL     1      18.368   6.667  39.992  0.00  0.00    +0.000 OA
ENDBRANCH  17  20
ENDBRANCH   1  17
TORSDOF 5
ENDMDL
MODEL 3
REMARK VINA RESULT:      -5.7      2.493      2.984
REMARK  Name = 
REMARK  5 active torsions:
REMARK  status: ('A' for Active; 'I' for Inactive)
REMARK    1  A    between atoms: O_2  and  C_3
REMARK    2  A    between atoms: C_3  and  C_5
REMARK    3  A    between atoms: C_9  and  C_10
REMARK    4  A    between atoms: N_12  and  C_13
REMARK    5  A    between atoms: C_13  and  C_14
REMARK                            x       y       z     vdW  Elec       q    Type
REMARK                         _______ _______ _______ _____ _____    ______ ____
ROOT
ATOM      1  C   UNL     1      17.556   9.869  39.262  0.00  0.00    +0.000 A 
ATOM      2  C   UNL     1      18.718  10.035  38.512  0.00  0.00    +0.000 A 
ATOM      3  C   UNL     1      20.064   9.481  38.841  0.00  0.00    +0.000 C 
ATOM      4  N   UNL     1      18.429  10.783  37.431  0.00  0.00    +0.000 NA
ATOM      5  C   UNL     1      17.129  11.128  37.419  0.00  0.00    +0.000 A 
ATOM      6  C   UNL     1      16.591  10.558  38.558  0.00  0.00    +0.000 A 
ATOM      7  C   UNL     1      15.164  10.687  38.945  0.00  0.00    +0.000 C 
ENDROOT
BRANCH   5   8
ATOM      8  C   UNL     1      16.431  11.934  36.413  0.00  0.00    +0.000 C 
ATOM      9  O   UNL     1      16.532  13.186  36.472  0.00  0.00    +0.000 OA
ATOM     10  N   UNL     1      15.651  11.379  35.383  0.00  0.00    +0.000 NA
BRANCH  10  11
ATOM     11  C   UNL     1      14.953  12.159  34.379  0.00  0.00    +0.000 C 
BRANCH  11  12
ATOM     12  C   UNL     1      15.212  11.646  33.012  0.00  0.00    +0.000 A 
ATOM     13  C   UNL     1      16.242  10.829  32.625  0.00  0.00    +0.000 A 
ATOM     14  C   UNL     1      16.056  10.632  31.262  0.00  0.00    +0.000 A 
ATOM     15  C   UNL     1      14.926  11.342  30.913  0.00  0.00    +0.000 A 
ATOM     16  O   UNL     1      14.456  11.931  31.987  0.00  0.00    +0.000 OA
ENDBRANCH  11  12
ENDBRANCH  10  11
ENDBRANCH   5   8
BRANCH   1  17
ATOM     17  C   UNL     1      17.427   9.123  40.514  0.00  0.00    +0.000 C 
ATOM     18  O   UNL     1      17.886   9.602  41.588  0.00  0.00    +0.000 OA
BRANCH  17  20
ATOM     19  C   UNL     1      15.763   7.673  41.494  0.00  0.00    +0.000 C 
ATOM     20  O   UNL     1      16.806   7.884  40.562  0.00  0.00    +0.000 OA
ENDBRANCH  17  20
ENDBRANCH   1  17
TORSDOF 5
ENDMDL
MODEL 4
REMARK VINA RESULT:      -5.5      2.728      3.963
REMARK  Name = 
REMARK  5 active torsions:
REMARK  status: ('A' for Active; 'I' for Inactive)
REMARK    1  A    between atoms: O_2  and  C_3
REMARK    2  A    between atoms: C_3  and  C_5
REMARK    3  A    between atoms: C_9  and  C_10
REMARK    4  A    between atoms: N_12  and  C_13
REMARK    5  A    between atoms: C_13  and  C_14
REMARK                            x       y       z     vdW  Elec       q    Type
REMARK                         _______ _______ _______ _____ _____    ______ ____
ROOT
ATOM      1  C   UNL     1      22.465  11.086  37.785  0.00  0.00    +0.000 A 
ATOM      2  C   UNL     1      22.663  10.133  36.788  0.00  0.00    +0.000 A 
ATOM      3  C   UNL     1      23.979   9.712  36.224  0.00  0.00    +0.000 C 
ATOM      4  N   UNL     1      21.466   9.647  36.413  0.00  0.00    +0.000 NA
ATOM      5  C   UNL     1      20.472  10.228  37.108  0.00  0.00    +0.000 A 
ATOM      6  C   UNL     1      21.096  11.121  37.958  0.00  0.00    +0.000 A 
ATOM      7  C   UNL     1      20.369  11.987  38.919  0.00  0.00    +0.000 C 
ENDROOT
BRANCH   5   8
ATOM      8  C   UNL     1      19.034   9.969  36.990  0.00  0.00    +0.000 C 
ATOM      9  O   UNL     1      18.526   9.060  37.695  0.00  0.00    +0.000 OA
ATOM     10  N   UNL     1      18.188  10.689  36.126  0.00  0.00    +0.000 NA
BRANCH  10  11
ATOM     11  C   UNL     1      16.764  10.449  35.994  0.00  0.00    +0.000 C 
BRANCH  11  12
ATOM     12  C   UNL     1      16.253  10.905  34.679  0.00  0.00    +0.000 A 
ATOM     13  C   UNL     1      15.239  11.802  34.461  0.00  0.00    +0.000 A 
ATOM     14  C   UNL     1      15.133  11.900  33.078  0.00  0.00    +0.000 A 
ATOM     15  C   UNL     1      16.089  11.057  32.550  0.00  0.00    +0.000 A 
ATOM     16  O   UNL     1      16.732  10.485  33.540  0.00  0.00    +0.000 OA
ENDBRANCH  11  12
ENDBRANCH  10  11
ENDBRANCH   5   8
BRANCH   1  17
ATOM     17  C   UNL     1      23.500  11.859  38.470  0.00  0.00    +0.000 C 
ATOM     18  O   UNL     1      24.182  11.329  39.390  0.00  0.00    +0.000 OA
BRANCH  17  20
ATOM     19  C   UNL     1      24.996  13.501  37.522  0.00  0.00    +0.000 C 
ATOM     20  O   UNL     1      23.763  13.180  38.136  0.00  0.00    +0.000 OA
ENDBRANCH  17  20
ENDBRANCH   1  17
TORSDOF 5
ENDMDL
MODEL 5
REMARK VINA RESULT:      -5.4     18.207     20.052
REMARK  Name = 
REMARK  5 active torsions:
REMARK  status: ('A' for Active; 'I' for Inactive)
REMARK    1  A    between atoms: O_2  and  C_3
REMARK    2  A    between atoms: C_3  and  C_5
REMARK    3  A    between atoms: C_9  and  C_10
REMARK    4  A    between atoms: N_12  and  C_13
REMARK    5  A    between atoms: C_13  and  C_14
REMARK                            x       y       z     vdW  Elec       q    Type
REMARK                         _______ _______ _______ _____ _____    ______ ____
ROOT
ATOM      1  C   UNL     1      26.118  24.076  27.308  0.00  0.00    +0.000 A 
ATOM      2  C   UNL     1      25.122  24.827  26.689  0.00  0.00    +0.000 A 
ATOM      3  C   UNL     1      24.025  25.569  27.378  0.00  0.00    +0.000 C 
ATOM      4  N   UNL     1      25.309  24.778  25.358  0.00  0.00    +0.000 NA
ATOM      5  C   UNL     1      26.383  24.028  25.051  0.00  0.00    +0.000 A 
ATOM      6  C   UNL     1      26.882  23.594  26.265  0.00  0.00    +0.000 A 
ATOM      7  C   UNL     1      28.080  22.729  26.398  0.00  0.00    +0.000 C 
ENDROOT
BRANCH   5   8
ATOM      8  C   UNL     1      26.911  23.734  23.716  0.00  0.00    +0.000 C 
ATOM      9  O   UNL     1      26.253  22.970  22.964  0.00  0.00    +0.000 OA
ATOM     10  N   UNL     1      28.120  24.263  23.230  0.00  0.00    +0.000 NA
BRANCH  10  11
ATOM     11  C   UNL     1      28.660  23.985  21.913  0.00  0.00    +0.000 C 
BRANCH  11  12
ATOM     12  C   UNL     1      28.983  25.233  21.180  0.00  0.00    +0.000 A 
ATOM     13  C   UNL     1      28.573  26.501  21.500  0.00  0.00    +0.000 A 
ATOM     14  C   UNL     1      29.128  27.319  20.524  0.00  0.00    +0.000 A 
ATOM     15  C   UNL     1      29.838  26.494  19.676  0.00  0.00    +0.000 A 
ATOM     16  O   UNL     1      29.724  25.259  20.106  0.00  0.00    +0.000 OA
ENDBRANCH  11  12
ENDBRANCH  10  11
ENDBRANCH   5   8
BRANCH   1  17
ATOM     17  C   UNL     1      26.285  23.866  28.746  0.00  0.00    +0.000 C 
ATOM     18  O   UNL     1      26.102  22.721  29.245  0.00  0.00    +0.000 OA
BRANCH  17  20
ATOM     19  C   UNL     1      27.543  25.891  29.131  0.00  0.00    +0.000 C 
ATOM     20  O   UNL     1      26.645  24.902  29.596  0.00  0.00    +0.000 OA
ENDBRANCH  17  20
ENDBRANCH   1  17
TORSDOF 5
ENDMDL
MODEL 6
REMARK VINA RESULT:      -5.4      1.882      7.428
REMARK  Name = 
REMARK  5 active torsions:
REMARK  status: ('A' for Active; 'I' for Inactive)
REMARK    1  A    between atoms: O_2  and  C_3
REMARK    2  A    between atoms: C_3  and  C_5
REMARK    3  A    between atoms: C_9  and  C_10
REMARK    4  A    between atoms: N_12  and  C_13
REMARK    5  A    between atoms: C_13  and  C_14
REMARK                            x       y       z     vdW  Elec       q    Type
REMARK                         _______ _______ _______ _____ _____    ______ ____
ROOT
ATOM      1  C   UNL     1      15.166  12.266  33.636  0.00  0.00    +0.000 A 
ATOM      2  C   UNL     1      15.776  11.532  32.622  0.00  0.00    +0.000 A 
ATOM      3  C   UNL     1      15.539  11.693  31.157  0.00  0.00    +0.000 C 
ATOM      4  N   UNL     1      16.621  10.646  33.179  0.00  0.00    +0.000 NA
ATOM      5  C   UNL     1      16.609  10.749  34.521  0.00  0.00    +0.000 A 
ATOM      6  C   UNL     1      15.704  11.755  34.800  0.00  0.00    +0.000 A 
ATOM      7  C   UNL     1      15.375  12.207  36.175  0.00  0.00    +0.000 C 
ENDROOT
BRANCH   5   8
ATOM      8  C   UNL     1      17.388   9.962  35.481  0.00  0.00    +0.000 C 
ATOM      9  O   UNL     1      17.334   8.708  35.414  0.00  0.00    +0.000 OA
ATOM     10  N   UNL     1      18.196  10.540  36.477  0.00  0.00    +0.000 NA
BRANCH  10  11
ATOM     11  C   UNL     1      18.974   9.779  37.436  0.00  0.00    +0.000 C 
BRANCH  11  12
ATOM     12  C   UNL     1      19.959  10.634  38.141  0.00  0.00    +0.000 A 
ATOM     13  C   UNL     1      21.249  10.890  37.752  0.00  0.00    +0.000 A 
ATOM     14  C   UNL     1      21.761  11.736  38.728  0.00  0.00    +0.000 A 
ATOM     15  C   UNL     1      20.749  11.937  39.644  0.00  0.00    +0.000 A 
ATOM     16  O   UNL     1      19.694  11.262  39.255  0.00  0.00    +0.000 OA
ENDBRANCH  11  12
ENDBRANCH  10  11
ENDBRANCH   5   8
BRANCH   1  17
ATOM     17  C   UNL     1      14.179  13.332  33.468  0.00  0.00    +0.000 C 
ATOM     18  O   UNL     1      13.835  13.702  32.311  0.00  0.00    +0.000 OA
BRANCH  17  20
ATOM     19  C   UNL     1      12.937  15.199  34.364  0.00  0.00    +0.000 C 
ATOM     20  O   UNL     1      13.596  13.964  34.558  0.00  0.00    +0.000 OA
ENDBRANCH  17  20
ENDBRANCH   1  17
TORSDOF 5
ENDMDL
MODEL 7
REMARK VINA RESULT:      -5.4     21.146     23.848
REMARK  Name = 
REMARK  5 active torsions:
REMARK  status: ('A' for Active; 'I' for Inactive)
REMARK    1  A    between atoms: O_2  and  C_3
REMARK    2  A    between atoms: C_3  and  C_5
REMARK    3  A    between atoms: C_9  and  C_10
REMARK    4  A    between atoms: N_12  and  C_13
REMARK    5  A    between atoms: C_13  and  C_14
REMARK                            x       y       z     vdW  Elec       q    Type
REMARK                         _______ _______ _______ _____ _____    ______ ____
ROOT
ATOM      1  C   UNL     1      29.153  27.487  20.647  0.00  0.00    +0.000 A 
ATOM      2  C   UNL     1      29.747  26.673  19.686  0.00  0.00    +0.000 A 
ATOM      3  C   UNL     1      30.279  27.117  18.364  0.00  0.00    +0.000 C 
ATOM      4  N   UNL     1      29.766  25.408  20.145  0.00  0.00    +0.000 NA
ATOM      5  C   UNL     1      29.212  25.333  21.369  0.00  0.00    +0.000 A 
ATOM      6  C   UNL     1      28.833  26.626  21.676  0.00  0.00    +0.000 A 
ATOM      7  C   UNL     1      28.173  27.008  22.949  0.00  0.00    +0.000 C 
ENDROOT
BRANCH   5   8
ATOM      8  C   UNL     1      29.046  24.136  22.198  0.00  0.00    +0.000 C 
ATOM      9  O   UNL     1      28.095  23.354  21.942  0.00  0.00    +0.000 OA
ATOM     10  N   UNL     1      29.897  23.816  23.271  0.00  0.00    +0.000 NA
BRANCH  10  11
ATOM     11  C   UNL     1      29.750  22.638  24.104  0.00  0.00    +0.000 C 
BRANCH  11  12
ATOM     12  C   UNL     1      30.419  22.810  25.416  0.00  0.00    +0.000 A 
ATOM     13  C   UNL     1      30.189  22.081  26.555  0.00  0.00    +0.000 A 
ATOM     14  C   UNL     1      31.050  22.614  27.507  0.00  0.00    +0.000 A 
ATOM     15  C   UNL     1      31.745  23.629  26.883  0.00  0.00    +0.000 A 
ATOM     16  O   UNL     1      31.337  23.710  25.639  0.00  0.00    +0.000 OA
ENDBRANCH  11  12
ENDBRANCH  10  11
ENDBRANCH   5   8
BRANCH   1  17
ATOM     17  C   UNL     1      28.934  28.930  20.551  0.00  0.00    +0.000 C 
ATOM     18  O   UNL     1      29.652  29.727  21.217  0.00  0.00    +0.000 OA
BRANCH  17  20
ATOM     19  C   UNL     1      26.670  28.849  19.715  0.00  0.00    +0.000 C 
ATOM     20  O   UNL     1      27.943  29.463  19.738  0.00  0.00    +0.000 OA
ENDBRANCH  17  20
ENDBRANCH   1  17
TORSDOF 5
ENDMDL
MODEL 8
REMARK VINA RESULT:      -5.3      8.837     12.201
REMARK  Name = 
REMARK  5 active torsions:
REMARK  status: ('A' for Active; 'I' for Inactive)
REMARK    1  A    between atoms: O_2  and  C_3
REMARK    2  A    between atoms: C_3  and  C_5
REMARK    3  A    between atoms: C_9  and  C_10
REMARK    4  A    between atoms: N_12  and  C_13
REMARK    5  A    between atoms: C_13  and  C_14
REMARK                            x       y       z     vdW  Elec       q    Type
REMARK                         _______ _______ _______ _____ _____    ______ ____
ROOT
ATOM      1  C   UNL     1      17.429  22.149  34.607  0.00  0.00    +0.000 A 
ATOM      2  C   UNL     1      17.956  21.069  33.903  0.00  0.00    +0.000 A 
ATOM      3  C   UNL     1      17.363  20.437  32.688  0.00  0.00    +0.000 C 
ATOM      4  N   UNL     1      19.099  20.682  34.500  0.00  0.00    +0.000 NA
ATOM      5  C   UNL     1      19.365  21.450  35.572  0.00  0.00    +0.000 A 
ATOM      6  C   UNL     1      18.326  22.359  35.635  0.00  0.00    +0.000 A 
ATOM      7  C   UNL     1      18.215  23.410  36.677  0.00  0.00    +0.000 C 
ENDROOT
BRANCH   5   8
ATOM      8  C   UNL     1      20.511  21.345  36.480  0.00  0.00    +0.000 C 
ATOM      9  O   UNL     1      21.557  21.985  36.203  0.00  0.00    +0.000 OA
ATOM     10  N   UNL     1      20.502  20.561  37.647  0.00  0.00    +0.000 NA
BRANCH  10  11
ATOM     11  C   UNL     1      21.624  20.443  38.558  0.00  0.00    +0.000 C 
BRANCH  11  12
ATOM     12  C   UNL     1      22.063  19.035  38.705  0.00  0.00    +0.000 A 
ATOM     13  C   UNL     1      22.653  18.255  37.743  0.00  0.00    +0.000 A 
ATOM     14  C   UNL     1      22.874  17.028  38.357  0.00  0.00    +0.000 A 
ATOM     15  C   UNL     1      22.404  17.144  39.649  0.00  0.00    +0.000 A 
ATOM     16  O   UNL     1      21.930  18.356  39.812  0.00  0.00    +0.000 OA
ENDBRANCH  11  12
ENDBRANCH  10  11
ENDBRANCH   5   8
BRANCH   1  17
ATOM     17  C   UNL     1      16.197  22.874  34.297  0.00  0.00    +0.000 C 
ATOM     18  O   UNL     1      16.213  23.828  33.470  0.00  0.00    +0.000 OA
BRANCH  17  20
ATOM     19  C   UNL     1      14.557  23.273  36.023  0.00  0.00    +0.000 C 
ATOM     20  O   UNL     1      14.989  22.543  34.892  0.00  0.00    +0.000 OA
ENDBRANCH  17  20
ENDBRANCH   1  17
TORSDOF 5
ENDMDL
MODEL 9
REMARK VINA RESULT:      -5.2     10.688     13.481
REMARK  Name = 
REMARK  5 active torsions:
REMARK  status: ('A' for Active; 'I' for Inactive)
REMARK    1  A    between atoms: O_2  and  C_3
REMARK    2  A    between atoms: C_3  and  C_5
REMARK    3  A    between atoms: C_9  and  C_10
REMARK    4  A    between atoms: N_12  and  C_13
REMARK    5  A    between atoms: C_13  and  C_14
REMARK                            x       y       z     vdW  Elec       q    Type
REMARK                         _______ _______ _______ _____ _____    ______ ____
ROOT
ATOM      1  C   UNL     1      17.224  22.270  34.724  0.00  0.00    +0.000 A 
ATOM      2  C   UNL     1      17.745  21.192  34.012  0.00  0.00    +0.000 A 
ATOM      3  C   UNL     1      17.114  20.531  32.831  0.00  0.00    +0.000 C 
ATOM      4  N   UNL     1      18.921  20.839  34.563  0.00  0.00    +0.000 NA
ATOM      5  C   UNL     1      19.215  21.628  35.613  0.00  0.00    +0.000 A 
ATOM      6  C   UNL     1      18.159  22.514  35.709  0.00  0.00    +0.000 A 
ATOM      7  C   UNL     1      18.069  23.576  36.742  0.00  0.00    +0.000 C 
ENDROOT
BRANCH   5   8
ATOM      8  C   UNL     1      20.402  21.561  36.471  0.00  0.00    +0.000 C 
ATOM      9  O   UNL     1      20.468  20.651  37.335  0.00  0.00    +0.000 OA
ATOM     10  N   UNL     1      21.473  22.467  36.378  0.00  0.00    +0.000 NA
BRANCH  10  11
ATOM     11  C   UNL     1      22.656  22.419  37.216  0.00  0.00    +0.000 C 
BRANCH  11  12
ATOM     12  C   UNL     1      23.504  23.621  37.034  0.00  0.00    +0.000 A 
ATOM     13  C   UNL     1      24.473  24.078  37.890  0.00  0.00    +0.000 A 
ATOM     14  C   UNL     1      24.980  25.222  37.286  0.00  0.00    +0.000 A 
ATOM     15  C   UNL     1      24.286  25.384  36.105  0.00  0.00    +0.000 A 
ATOM     16  O   UNL     1      23.417  24.407  35.996  0.00  0.00    +0.000 OA
ENDBRANCH  11  12
ENDBRANCH  10  11
ENDBRANCH   5   8
BRANCH   1  17
ATOM     17  C   UNL     1      15.963  22.962  34.459  0.00  0.00    +0.000 C 
ATOM     18  O   UNL     1      15.891  23.817  33.533  0.00  0.00    +0.000 OA
BRANCH  17  20
ATOM     19  C   UNL     1      13.997  23.787  35.592  0.00  0.00    +0.000 C 
ATOM     20  O   UNL     1      14.821  22.706  35.205  0.00  0.00    +0.000 OA
ENDBRANCH  17  20
ENDBRANCH   1  17
TORSDOF 5
ENDMDL
MODEL 10
REMARK VINA RESULT:      -5.2     17.944     20.961
REMARK  Name = 
REMARK  5 active torsions:
REMARK  status: ('A' for Active; 'I' for Inactive)
REMARK    1  A    between atoms: O_2  and  C_3
REMARK    2  A    between atoms: C_3  and  C_5
REMARK    3  A    between atoms: C_9  and  C_10
REMARK    4  A    between atoms: N_12  and  C_13
REMARK    5  A    between atoms: C_13  and  C_14
REMARK                            x       y       z     vdW  Elec       q    Type
REMARK                         _______ _______ _______ _____ _____    ______ ____
ROOT
ATOM      1  C   UNL     1      33.791   1.835  35.256  0.00  0.00    +0.000 A 
ATOM      2  C   UNL     1      33.542   1.834  33.885  0.00  0.00    +0.000 A 
ATOM      3  C   UNL     1      33.680   3.002  32.966  0.00  0.00    +0.000 C 
ATOM      4  N   UNL     1      33.154   0.599  33.519  0.00  0.00    +0.000 NA
ATOM      5  C   UNL     1      33.129  -0.231  34.578  0.00  0.00    +0.000 A 
ATOM      6  C   UNL     1      33.525   0.541  35.654  0.00  0.00    +0.000 A 
ATOM      7  C   UNL     1      33.641   0.022  37.039  0.00  0.00    +0.000 C 
ENDROOT
BRANCH   5   8
ATOM      8  C   UNL     1      32.761  -1.649  34.589  0.00  0.00    +0.000 C 
ATOM      9  O   UNL     1      31.667  -1.982  35.113  0.00  0.00    +0.000 OA
ATOM     10  N   UNL     1      33.570  -2.661  34.042  0.00  0.00    +0.000 NA
BRANCH  10  11
ATOM     11  C   UNL     1      33.224  -4.070  34.042  0.00  0.00    +0.000 C 
BRANCH  11  12
ATOM     12  C   UNL     1      33.908  -4.800  32.948  0.00  0.00    +0.000 A 
ATOM     13  C   UNL     1      33.534  -4.839  31.630  0.00  0.00    +0.000 A 
ATOM     14  C   UNL     1      34.479  -5.646  31.008  0.00  0.00    +0.000 A 
ATOM     15  C   UNL     1      35.363  -6.044  31.989  0.00  0.00    +0.000 A 
ATOM     16  O   UNL     1      34.984  -5.516  33.129  0.00  0.00    +0.000 OA
ENDBRANCH  11  12
ENDBRANCH  10  11
ENDBRANCH   5   8
BRANCH   1  17
ATOM     17  C   UNL     1      34.234   2.974  36.060  0.00  0.00    +0.000 C 
ATOM     18  O   UNL     1      35.139   2.825  36.927  0.00  0.00    +0.000 OA
BRANCH  17  20
ATOM     19  C   UNL     1      33.188   4.920  37.035  0.00  0.00    +0.000 C 
ATOM     20  O   UNL     1      33.681   4.237  35.899  0.00  0.00    +0.000 OA
ENDBRANCH  17  20
ENDBRANCH   1  17
TORSDOF 5
ENDMDL
