MODEL 1
REMARK VINA RESULT:      -6.3      0.000      0.000
REMARK  Name = 
REMARK  4 active torsions:
REMARK  status: ('A' for Active; 'I' for Inactive)
REMARK    1  A    between atoms: C_2  and  N_3
REMARK    2  A    between atoms: C_2  and  C_16
REMARK    3  A    between atoms: N_5  and  C_6
REMARK    4  A    between atoms: N_8  and  C_9
REMARK                            x       y       z     vdW  Elec       q    Type
REMARK                         _______ _______ _______ _____ _____    ______ ____
ROOT
ATOM      1  N   UNL     1      18.447  10.958  37.657  0.00  0.00    +0.000 NA
ATOM      2  C   UNL     1      17.071  10.979  37.295  0.00  0.00    +0.000 C 
ATOM      3  N   UNL     1      16.593  10.209  36.382  0.00  0.00    +0.000 NA
ATOM      4  N   UNL     1      16.116  11.866  37.900  0.00  0.00    +0.000 NA
ENDROOT
BRANCH   4   5
ATOM      5  C   UNL     1      14.720  11.735  37.694  0.00  0.00    +0.000 A 
ATOM      6  C   UNL     1      13.993  12.415  36.744  0.00  0.00    +0.000 A 
ATOM      7  C   UNL     1      12.613  12.223  36.612  0.00  0.00    +0.000 A 
ATOM      8  C   UNL     1      11.927  11.349  37.425  0.00  0.00    +0.000 A 
ATOM      9  F   UNL     1      10.579  11.170  37.284  0.00  0.00    +0.000 F 
ATOM     10  C   UNL     1      12.654  10.668  38.376  0.00  0.00    +0.000 A 
ATOM     11  C   UNL     1      14.035  10.861  38.508  0.00  0.00    +0.000 A 
ENDBRANCH   4   5
BRANCH   1  13
ATOM     12  C   UNL     1      18.902   8.928  38.747  0.00  0.00    +0.000 C 
ATOM     13  C   UNL     1      19.228   9.655  37.331  0.00  0.00    +0.000 C 
BRANCH  13  14
ATOM     14  C   UNL     1      20.676  10.243  37.732  0.00  0.00    +0.000 C 
ATOM     15  C   UNL     1      21.617   9.881  36.589  0.00  0.00    +0.000 C 
ATOM     16  C   UNL     1      21.097   9.402  38.917  0.00  0.00    +0.000 C 
ATOM     17  C   UNL     1      20.644  11.675  37.965  0.00  0.00    +0.000 C 
ENDBRANCH  13  14
ENDBRANCH   1  13
BRANCH   3  18
ATOM     18  C   UNL     1      17.424   9.312  35.704  0.00  0.00    +0.000 C 
ATOM     19  N   UNL     1      18.090   8.547  35.130  0.00  0.00    +0.000 NA
ENDBRANCH   3  18
TORSDOF 4
ENDMDL
MODEL 2
REMARK VINA RESULT:      -6.0      2.809      3.825
REMARK  Name = 
REMARK  4 active torsions:
REMARK  status: ('A' for Active; 'I' for Inactive)
REMARK    1  A    between atoms: C_2  and  N_3
REMARK    2  A    between atoms: C_2  and  C_16
REMARK    3  A    between atoms: N_5  and  C_6
REMARK    4  A    between atoms: N_8  and  C_9
REMARK                            x       y       z     vdW  Elec       q    Type
REMARK                         _______ _______ _______ _____ _____    ______ ____
ROOT
ATOM      1  N   UNL     1      16.715  10.543  38.077  0.00  0.00    +0.000 NA
ATOM      2  C   UNL     1      16.274  11.478  37.100  0.00  0.00    +0.000 C 
ATOM      3  N   UNL     1      16.973  12.508  36.775  0.00  0.00    +0.000 NA
ATOM      4  N   UNL     1      15.015  11.360  36.417  0.00  0.00    +0.000 NA
ENDROOT
BRANCH   4   5
ATOM      5  C   UNL     1      14.679  12.164  35.298  0.00  0.00    +0.000 A 
ATOM      6  C   UNL     1      15.092  11.935  34.006  0.00  0.00    +0.000 A 
ATOM      7  C   UNL     1      14.710  12.783  32.961  0.00  0.00    +0.000 A 
ATOM      8  C   UNL     1      13.908  13.880  33.182  0.00  0.00    +0.000 A 
ATOM      9  F   UNL     1      13.541  14.701  32.151  0.00  0.00    +0.000 F 
ATOM     10  C   UNL     1      13.493  14.109  34.475  0.00  0.00    +0.000 A 
ATOM     11  C   UNL     1      13.876  13.260  35.520  0.00  0.00    +0.000 A 
ENDBRANCH   4   5
BRANCH   1  13
ATOM     12  C   UNL     1      18.534   9.287  37.285  0.00  0.00    +0.000 C 
ATOM     13  C   UNL     1      18.246  10.488  38.341  0.00  0.00    +0.000 C 
BRANCH  13  14
ATOM     14  C   UNL     1      18.138   9.573  39.665  0.00  0.00    +0.000 C 
ATOM     15  C   UNL     1      19.183  10.104  40.639  0.00  0.00    +0.000 C 
ATOM     16  C   UNL     1      18.625   8.214  39.212  0.00  0.00    +0.000 C 
ATOM     17  C   UNL     1      16.808   9.595  40.244  0.00  0.00    +0.000 C 
ENDBRANCH  13  14
ENDBRANCH   1  13
BRANCH   3  18
ATOM     18  C   UNL     1      18.209  12.746  37.383  0.00  0.00    +0.000 C 
ATOM     19  N   UNL     1      19.243  12.913  37.895  0.00  0.00    +0.000 NA
ENDBRANCH   3  18
TORSDOF 4
ENDMDL
MODEL 3
REMARK VINA RESULT:      -5.7      4.508      8.366
REMARK  Name = 
REMARK  4 active torsions:
REMARK  status: ('A' for Active; 'I' for Inactive)
REMARK    1  A    between atoms: C_2  and  N_3
REMARK    2  A    between atoms: C_2  and  C_16
REMARK    3  A    between atoms: N_5  and  C_6
REMARK    4  A    between atoms: N_8  and  C_9
REMARK                            x       y       z     vdW  Elec       q    Type
REMARK                         _______ _______ _______ _____ _____    ______ ____
ROOT
ATOM      1  N   UNL     1      19.360  10.282  37.164  0.00  0.00    +0.000 NA
ATOM      2  C   UNL     1      20.772  10.448  37.228  0.00  0.00    +0.000 C 
ATOM      3  N   UNL     1      21.314  11.485  37.762  0.00  0.00    +0.000 NA
ATOM      4  N   UNL     1      21.697   9.489  36.692  0.00  0.00    +0.000 NA
ENDROOT
BRANCH   4   5
ATOM      5  C   UNL     1      23.091   9.551  36.948  0.00  0.00    +0.000 A 
ATOM      6  C   UNL     1      23.719   9.004  38.043  0.00  0.00    +0.000 A 
ATOM      7  C   UNL     1      25.103   9.113  38.216  0.00  0.00    +0.000 A 
ATOM      8  C   UNL     1      25.892   9.772  37.300  0.00  0.00    +0.000 A 
ATOM      9  F   UNL     1      27.244   9.871  37.480  0.00  0.00    +0.000 F 
ATOM     10  C   UNL     1      25.264  10.319  36.203  0.00  0.00    +0.000 A 
ATOM     11  C   UNL     1      23.879  10.209  36.032  0.00  0.00    +0.000 A 
ENDBRANCH   4   5
BRANCH   1  13
ATOM     12  C   UNL     1      18.136   9.792  39.107  0.00  0.00    +0.000 C 
ATOM     13  C   UNL     1      18.522  11.082  38.199  0.00  0.00    +0.000 C 
BRANCH  13  14
ATOM     14  C   UNL     1      17.176  11.114  37.309  0.00  0.00    +0.000 C 
ATOM     15  C   UNL     1      17.369  10.086  36.201  0.00  0.00    +0.000 C 
ATOM     16  C   UNL     1      17.209  12.473  36.644  0.00  0.00    +0.000 C 
ATOM     17  C   UNL     1      15.989  10.836  38.095  0.00  0.00    +0.000 C 
ENDBRANCH  13  14
ENDBRANCH   1  13
BRANCH   3  18
ATOM     18  C   UNL     1      20.521  12.501  38.304  0.00  0.00    +0.000 C 
ATOM     19  N   UNL     1      19.877  13.370  38.739  0.00  0.00    +0.000 NA
ENDBRANCH   3  18
TORSDOF 4
ENDMDL
MODEL 4
REMARK VINA RESULT:      -5.5      1.809      3.317
REMARK  Name = 
REMARK  4 active torsions:
REMARK  status: ('A' for Active; 'I' for Inactive)
REMARK    1  A    between atoms: C_2  and  N_3
REMARK    2  A    between atoms: C_2  and  C_16
REMARK    3  A    between atoms: N_5  and  C_6
REMARK    4  A    between atoms: N_8  and  C_9
REMARK                            x       y       z     vdW  Elec       q    Type
REMARK                         _______ _______ _______ _____ _____    ______ ____
ROOT
ATOM      1  N   UNL     1      20.418   9.871  37.938  0.00  0.00    +0.000 NA
ATOM      2  C   UNL     1      19.188  10.565  37.767  0.00  0.00    +0.000 C 
ATOM      3  N   UNL     1      19.097  11.839  37.918  0.00  0.00    +0.000 NA
ATOM      4  N   UNL     1      17.957   9.904  37.435  0.00  0.00    +0.000 NA
ENDROOT
BRANCH   4   5
ATOM      5  C   UNL     1      16.790  10.615  37.055  0.00  0.00    +0.000 A 
ATOM      6  C   UNL     1      16.555  11.138  35.804  0.00  0.00    +0.000 A 
ATOM      7  C   UNL     1      15.372  11.828  35.517  0.00  0.00    +0.000 A 
ATOM      8  C   UNL     1      14.397  12.012  36.472  0.00  0.00    +0.000 A 
ATOM      9  F   UNL     1      13.244  12.687  36.178  0.00  0.00    +0.000 F 
ATOM     10  C   UNL     1      14.632  11.488  37.723  0.00  0.00    +0.000 A 
ATOM     11  C   UNL     1      15.816  10.799  38.010  0.00  0.00    +0.000 A 
ENDBRANCH   4   5
BRANCH   1  13
ATOM     12  C   UNL     1      22.160  10.028  36.371  0.00  0.00    +0.000 C 
ATOM     13  C   UNL     1      21.715  10.711  37.776  0.00  0.00    +0.000 C 
BRANCH  13  14
ATOM     14  C   UNL     1      22.615   9.787  38.745  0.00  0.00    +0.000 C 
ATOM     15  C   UNL     1      23.539  10.733  39.504  0.00  0.00    +0.000 C 
ATOM     16  C   UNL     1      23.493   9.004  37.793  0.00  0.00    +0.000 C 
ATOM     17  C   UNL     1      21.810   8.987  39.649  0.00  0.00    +0.000 C 
ENDBRANCH  13  14
ENDBRANCH   1  13
BRANCH   3  18
ATOM     18  C   UNL     1      20.221  12.596  38.260  0.00  0.00    +0.000 C 
ATOM     19  N   UNL     1      21.139  13.248  38.562  0.00  0.00    +0.000 NA
ENDBRANCH   3  18
TORSDOF 4
ENDMDL
MODEL 5
REMARK VINA RESULT:      -5.5     19.769     21.525
REMARK  Name = 
REMARK  4 active torsions:
REMARK  status: ('A' for Active; 'I' for Inactive)
REMARK    1  A    between atoms: C_2  and  N_3
REMARK    2  A    between atoms: C_2  and  C_16
REMARK    3  A    between atoms: N_5  and  C_6
REMARK    4  A    between atoms: N_8  and  C_9
REMARK                            x       y       z     vdW  Elec       q    Type
REMARK                         _______ _______ _______ _____ _____    ______ ____
ROOT
ATOM      1  N   UNL     1      28.228  25.330  24.272  0.00  0.00    +0.000 NA
ATOM      2  C   UNL     1      27.628  24.619  25.348  0.00  0.00    +0.000 C 
ATOM      3  N   UNL     1      26.746  23.703  25.153  0.00  0.00    +0.000 NA
ATOM      4  N   UNL     1      27.942  24.875  26.726  0.00  0.00    +0.000 NA
ENDROOT
BRANCH   4   5
ATOM      5  C   UNL     1      27.509  24.025  27.776  0.00  0.00    +0.000 A 
ATOM      6  C   UNL     1      28.064  22.804  28.083  0.00  0.00    +0.000 A 
ATOM      7  C   UNL     1      27.572  22.029  29.139  0.00  0.00    +0.000 A 
ATOM      8  C   UNL     1      26.515  22.455  29.912  0.00  0.00    +0.000 A 
ATOM      9  F   UNL     1      26.044  21.688  30.943  0.00  0.00    +0.000 F 
ATOM     10  C   UNL     1      25.960  23.677  29.605  0.00  0.00    +0.000 A 
ATOM     11  C   UNL     1      26.453  24.451  28.548  0.00  0.00    +0.000 A 
ENDBRANCH   4   5
BRANCH   1  13
ATOM     12  C   UNL     1      29.732  24.079  22.973  0.00  0.00    +0.000 C 
ATOM     13  C   UNL     1      28.207  24.632  22.884  0.00  0.00    +0.000 C 
BRANCH  13  14
ATOM     14  C   UNL     1      28.525  25.969  22.038  0.00  0.00    +0.000 C 
ATOM     15  C   UNL     1      29.332  25.527  20.823  0.00  0.00    +0.000 C 
ATOM     16  C   UNL     1      29.474  26.746  22.924  0.00  0.00    +0.000 C 
ATOM     17  C   UNL     1      27.319  26.676  21.650  0.00  0.00    +0.000 C 
ENDBRANCH  13  14
ENDBRANCH   1  13
BRANCH   3  18
ATOM     18  C   UNL     1      26.341  23.372  23.857  0.00  0.00    +0.000 C 
ATOM     19  N   UNL     1      25.991  23.068  22.788  0.00  0.00    +0.000 NA
ENDBRANCH   3  18
TORSDOF 4
ENDMDL
MODEL 6
REMARK VINA RESULT:      -5.4     24.922     26.621
REMARK  Name = 
REMARK  4 active torsions:
REMARK  status: ('A' for Active; 'I' for Inactive)
REMARK    1  A    between atoms: C_2  and  N_3
REMARK    2  A    between atoms: C_2  and  C_16
REMARK    3  A    between atoms: N_5  and  C_6
REMARK    4  A    between atoms: N_8  and  C_9
REMARK                            x       y       z     vdW  Elec       q    Type
REMARK                         _______ _______ _______ _____ _____    ______ ____
ROOT
ATOM      1  N   UNL     1      30.258  27.028  19.288  0.00  0.00    +0.000 NA
ATOM      2  C   UNL     1      29.676  26.451  20.451  0.00  0.00    +0.000 C 
ATOM      3  N   UNL     1      29.200  27.171  21.405  0.00  0.00    +0.000 NA
ATOM      4  N   UNL     1      29.591  25.033  20.662  0.00  0.00    +0.000 NA
ENDROOT
BRANCH   4   5
ATOM      5  C   UNL     1      28.822  24.464  21.710  0.00  0.00    +0.000 A 
ATOM      6  C   UNL     1      27.453  24.329  21.703  0.00  0.00    +0.000 A 
ATOM      7  C   UNL     1      26.775  23.754  22.784  0.00  0.00    +0.000 A 
ATOM      8  C   UNL     1      27.449  23.302  23.896  0.00  0.00    +0.000 A 
ATOM      9  F   UNL     1      26.774  22.741  24.946  0.00  0.00    +0.000 F 
ATOM     10  C   UNL     1      28.819  23.437  23.903  0.00  0.00    +0.000 A 
ATOM     11  C   UNL     1      29.496  24.012  22.821  0.00  0.00    +0.000 A 
ENDBRANCH   4   5
BRANCH   1  13
ATOM     12  C   UNL     1      28.894  28.072  17.688  0.00  0.00    +0.000 C 
ATOM     13  C   UNL     1      29.832  28.483  18.950  0.00  0.00    +0.000 C 
BRANCH  13  14
ATOM     14  C   UNL     1      31.161  28.838  18.108  0.00  0.00    +0.000 C 
ATOM     15  C   UNL     1      31.939  29.850  18.942  0.00  0.00    +0.000 C 
ATOM     16  C   UNL     1      30.642  29.588  16.901  0.00  0.00    +0.000 C 
ATOM     17  C   UNL     1      31.959  27.662  17.814  0.00  0.00    +0.000 C 
ENDBRANCH  13  14
ENDBRANCH   1  13
BRANCH   3  18
ATOM     18  C   UNL     1      29.241  28.566  21.329  0.00  0.00    +0.000 C 
ATOM     19  N   UNL     1      29.269  29.731  21.298  0.00  0.00    +0.000 NA
ENDBRANCH   3  18
TORSDOF 4
ENDMDL
MODEL 7
REMARK VINA RESULT:      -5.2      4.892      7.576
REMARK  Name = 
REMARK  4 active torsions:
REMARK  status: ('A' for Active; 'I' for Inactive)
REMARK    1  A    between atoms: C_2  and  N_3
REMARK    2  A    between atoms: C_2  and  C_16
REMARK    3  A    between atoms: N_5  and  C_6
REMARK    4  A    between atoms: N_8  and  C_9
REMARK                            x       y       z     vdW  Elec       q    Type
REMARK                         _______ _______ _______ _____ _____    ______ ____
ROOT
ATOM      1  N   UNL     1      18.377   9.369  41.312  0.00  0.00    +0.000 NA
ATOM      2  C   UNL     1      19.401   9.079  40.367  0.00  0.00    +0.000 C 
ATOM      3  N   UNL     1      19.570   7.899  39.884  0.00  0.00    +0.000 NA
ATOM      4  N   UNL     1      20.332  10.066  39.894  0.00  0.00    +0.000 NA
ENDROOT
BRANCH   4   5
ATOM      5  C   UNL     1      21.203   9.828  38.801  0.00  0.00    +0.000 A 
ATOM      6  C   UNL     1      20.886  10.033  37.478  0.00  0.00    +0.000 A 
ATOM      7  C   UNL     1      21.810   9.771  36.461  0.00  0.00    +0.000 A 
ATOM      8  C   UNL     1      23.073   9.298  36.742  0.00  0.00    +0.000 A 
ATOM      9  F   UNL     1      23.967   9.046  35.738  0.00  0.00    +0.000 F 
ATOM     10  C   UNL     1      23.391   9.093  38.066  0.00  0.00    +0.000 A 
ATOM     11  C   UNL     1      22.464   9.356  39.082  0.00  0.00    +0.000 A 
ENDBRANCH   4   5
BRANCH   1  13
ATOM     12  C   UNL     1      16.098   9.481  40.761  0.00  0.00    +0.000 C 
ATOM     13  C   UNL     1      17.164   8.399  41.337  0.00  0.00    +0.000 C 
BRANCH  13  14
ATOM     14  C   UNL     1      16.838   8.606  42.903  0.00  0.00    +0.000 C 
ATOM     15  C   UNL     1      18.107   8.228  43.659  0.00  0.00    +0.000 C 
ATOM     16  C   UNL     1      15.820   7.530  43.211  0.00  0.00    +0.000 C 
ATOM     17  C   UNL     1      16.420   9.962  43.206  0.00  0.00    +0.000 C 
ENDBRANCH  13  14
ENDBRANCH   1  13
BRANCH   3  18
ATOM     18  C   UNL     1      18.740   6.845  40.279  0.00  0.00    +0.000 C 
ATOM     19  N   UNL     1      18.075   5.947  40.610  0.00  0.00    +0.000 NA
ENDBRANCH   3  18
TORSDOF 4
ENDMDL
MODEL 8
REMARK VINA RESULT:      -5.2     21.252     23.315
REMARK  Name = 
REMARK  4 active torsions:
REMARK  status: ('A' for Active; 'I' for Inactive)
REMARK    1  A    between atoms: C_2  and  N_3
REMARK    2  A    between atoms: C_2  and  C_16
REMARK    3  A    between atoms: N_5  and  C_6
REMARK    4  A    between atoms: N_8  and  C_9
REMARK                            x       y       z     vdW  Elec       q    Type
REMARK                         _______ _______ _______ _____ _____    ______ ____
ROOT
ATOM      1  N   UNL     1      23.836  -7.923  24.092  0.00  0.00    +0.000 NA
ATOM      2  C   UNL     1      22.459  -7.780  24.419  0.00  0.00    +0.000 C 
ATOM      3  N   UNL     1      21.541  -8.448  23.814  0.00  0.00    +0.000 NA
ATOM      4  N   UNL     1      21.984  -6.875  25.428  0.00  0.00    +0.000 NA
ENDROOT
BRANCH   4   5
ATOM      5  C   UNL     1      20.647  -6.894  25.899  0.00  0.00    +0.000 A 
ATOM      6  C   UNL     1      19.999  -8.000  26.398  0.00  0.00    +0.000 A 
ATOM      7  C   UNL     1      18.674  -7.927  26.841  0.00  0.00    +0.000 A 
ATOM      8  C   UNL     1      17.965  -6.748  26.796  0.00  0.00    +0.000 A 
ATOM      9  F   UNL     1      16.670  -6.690  27.233  0.00  0.00    +0.000 F 
ATOM     10  C   UNL     1      18.613  -5.640  26.297  0.00  0.00    +0.000 A 
ATOM     11  C   UNL     1      19.938  -5.714  25.853  0.00  0.00    +0.000 A 
ENDBRANCH   4   5
BRANCH   1  13
ATOM     12  C   UNL     1      24.703  -9.998  24.766  0.00  0.00    +0.000 C 
ATOM     13  C   UNL     1      24.249  -9.250  23.397  0.00  0.00    +0.000 C 
BRANCH  13  14
ATOM     14  C   UNL     1      25.712  -8.737  22.951  0.00  0.00    +0.000 C 
ATOM     15  C   UNL     1      26.695  -9.307  23.967  0.00  0.00    +0.000 C 
ATOM     16  C   UNL     1      25.666  -7.244  23.191  0.00  0.00    +0.000 C 
ATOM     17  C   UNL     1      26.049  -9.140  21.598  0.00  0.00    +0.000 C 
ENDBRANCH  13  14
ENDBRANCH   1  13
BRANCH   3  18
ATOM     18  C   UNL     1      21.872  -9.350  22.798  0.00  0.00    +0.000 C 
ATOM     19  N   UNL     1      22.137 -10.080  21.929  0.00  0.00    +0.000 NA
ENDBRANCH   3  18
TORSDOF 4
ENDMDL
MODEL 9
REMARK VINA RESULT:      -5.1      2.576      4.443
REMARK  Name = 
REMARK  4 active torsions:
REMARK  status: ('A' for Active; 'I' for Inactive)
REMARK    1  A    between atoms: C_2  and  N_3
REMARK    2  A    between atoms: C_2  and  C_16
REMARK    3  A    between atoms: N_5  and  C_6
REMARK    4  A    between atoms: N_8  and  C_9
REMARK                            x       y       z     vdW  Elec       q    Type
REMARK                         _______ _______ _______ _____ _____    ______ ____
ROOT
ATOM      1  N   UNL     1      22.003   9.988  37.806  0.00  0.00    +0.000 NA
ATOM      2  C   UNL     1      20.657  10.448  37.796  0.00  0.00    +0.000 C 
ATOM      3  N   UNL     1      20.351  11.670  38.056  0.00  0.00    +0.000 NA
ATOM      4  N   UNL     1      19.539   9.589  37.517  0.00  0.00    +0.000 NA
ENDROOT
BRANCH   4   5
ATOM      5  C   UNL     1      18.232  10.091  37.295  0.00  0.00    +0.000 A 
ATOM      6  C   UNL     1      17.298  10.328  38.278  0.00  0.00    +0.000 A 
ATOM      7  C   UNL     1      16.028  10.825  37.967  0.00  0.00    +0.000 A 
ATOM      8  C   UNL     1      15.660  11.097  36.668  0.00  0.00    +0.000 A 
ATOM      9  F   UNL     1      14.415  11.583  36.378  0.00  0.00    +0.000 F 
ATOM     10  C   UNL     1      16.594  10.860  35.685  0.00  0.00    +0.000 A 
ATOM     11  C   UNL     1      17.865  10.362  35.997  0.00  0.00    +0.000 A 
ENDBRANCH   4   5
BRANCH   1  13
ATOM     12  C   UNL     1      23.498  10.595  36.100  0.00  0.00    +0.000 C 
ATOM     13  C   UNL     1      23.104  11.066  37.604  0.00  0.00    +0.000 C 
BRANCH  13  14
ATOM     14  C   UNL     1      24.258  10.251  38.382  0.00  0.00    +0.000 C 
ATOM     15  C   UNL     1      24.241   8.836  37.816  0.00  0.00    +0.000 C 
ATOM     16  C   UNL     1      23.743  10.151  39.801  0.00  0.00    +0.000 C 
ATOM     17  C   UNL     1      25.563  10.868  38.237  0.00  0.00    +0.000 C 
ENDBRANCH  13  14
ENDBRANCH   1  13
BRANCH   3  18
ATOM     18  C   UNL     1      21.347  12.601  38.362  0.00  0.00    +0.000 C 
ATOM     19  N   UNL     1      22.200  13.354  38.616  0.00  0.00    +0.000 NA
ENDBRANCH   3  18
TORSDOF 4
ENDMDL
MODEL 10
REMARK VINA RESULT:      -5.1     19.685     20.809
REMARK  Name = 
REMARK  4 active torsions:
REMARK  status: ('A' for Active; 'I' for Inactive)
REMARK    1  A    between atoms: C_2  and  N_3
REMARK    2  A    between atoms: C_2  and  C_16
REMARK    3  A    between atoms: N_5  and  C_6
REMARK    4  A    between atoms: N_8  and  C_9
REMARK                            x       y       z     vdW  Elec       q    Type
REMARK                         _______ _______ _______ _____ _____    ______ ____
ROOT
ATOM      1  N   UNL     1      27.554  24.711  25.650  0.00  0.00    +0.000 NA
ATOM      2  C   UNL     1      26.214  25.134  25.429  0.00  0.00    +0.000 C 
ATOM      3  N   UNL     1      25.510  24.687  24.450  0.00  0.00    +0.000 NA
ATOM      4  N   UNL     1      25.551  26.100  26.261  0.00  0.00    +0.000 NA
ENDROOT
BRANCH   4   5
ATOM      5  C   UNL     1      24.159  26.354  26.169  0.00  0.00    +0.000 A 
ATOM      6  C   UNL     1      23.542  27.017  25.134  0.00  0.00    +0.000 A 
ATOM      7  C   UNL     1      22.159  27.224  25.126  0.00  0.00    +0.000 A 
ATOM      8  C   UNL     1      21.359  26.775  26.152  0.00  0.00    +0.000 A 
ATOM      9  F   UNL     1      20.007  26.983  26.132  0.00  0.00    +0.000 F 
ATOM     10  C   UNL     1      21.975  26.111  27.189  0.00  0.00    +0.000 A 
ATOM     11  C   UNL     1      23.360  25.904  27.196  0.00  0.00    +0.000 A 
ENDBRANCH   4   5
BRANCH   1  13
ATOM     12  C   UNL     1      27.976  22.547  26.456  0.00  0.00    +0.000 C 
ATOM     13  C   UNL     1      27.957  23.341  25.039  0.00  0.00    +0.000 C 
BRANCH  13  14
ATOM     14  C   UNL     1      29.536  23.666  24.967  0.00  0.00    +0.000 C 
ATOM     15  C   UNL     1      29.830  24.045  23.520  0.00  0.00    +0.000 C 
ATOM     16  C   UNL     1      30.197  22.326  25.202  0.00  0.00    +0.000 C 
ATOM     17  C   UNL     1      29.924  24.721  25.884  0.00  0.00    +0.000 C 
ENDBRANCH  13  14
ENDBRANCH   1  13
BRANCH   3  18
ATOM     18  C   UNL     1      26.048  23.757  23.556  0.00  0.00    +0.000 C 
ATOM     19  N   UNL     1      26.470  22.985  22.791  0.00  0.00    +0.000 NA
ENDBRANCH   3  18
TORSDOF 4
ENDMDL
