MODEL 1
REMARK VINA RESULT:      -6.4      0.000      0.000
REMARK  Name = 
REMARK  2 active torsions:
REMARK  status: ('A' for Active; 'I' for Inactive)
REMARK    1  A    between atoms: C_7  and  N_8
REMARK    2  A    between atoms: C_9  and  C_11
REMARK                            x       y       z     vdW  Elec       q    Type
REMARK                         _______ _______ _______ _____ _____    ______ ____
ROOT
ATOM      1  N   UNL     1      33.233  -0.596  33.880  0.00  0.00    +0.000 NA
ATOM      2  C   UNL     1      33.556   0.266  34.951  0.00  0.00    +0.000 A 
ATOM      3  C   UNL     1      33.761  -0.204  36.231  0.00  0.00    +0.000 A 
ATOM      4  C   UNL     1      34.074   0.639  37.263  0.00  0.00    +0.000 A 
ATOM      5  C   UNL     1      34.182   1.996  36.994  0.00  0.00    +0.000 A 
ATOM      6  C   UNL     1      33.986   2.489  35.742  0.00  0.00    +0.000 A 
ATOM      7  C   UNL     1      34.081   3.823  35.422  0.00  0.00    +0.000 A 
ATOM      8  C   UNL     1      33.875   4.277  34.146  0.00  0.00    +0.000 A 
ATOM      9  C   UNL     1      33.559   3.405  33.119  0.00  0.00    +0.000 A 
ATOM     10  C   UNL     1      33.462   2.079  33.423  0.00  0.00    +0.000 A 
ATOM     11  C   UNL     1      33.666   1.619  34.693  0.00  0.00    +0.000 A 
ENDROOT
BRANCH   7  12
ATOM     12  N   UNL     1      34.401   4.752  36.443  0.00  0.00    +0.000 NA
ATOM     13  C   UNL     1      35.729   5.166  36.608  0.00  0.00    +0.000 C 
ATOM     14  O   UNL     1      36.714   4.814  35.956  0.00  0.00    +0.000 OA
BRANCH  13  15
ATOM     15  C   UNL     1      36.001   6.229  37.792  0.00  0.00    +0.000 C 
ATOM     16  C   UNL     1      37.437   6.812  37.218  0.00  0.00    +0.000 C 
ATOM     17  C   UNL     1      35.998   7.567  36.906  0.00  0.00    +0.000 C 
ATOM     18  C   UNL     1      36.115   8.876  37.424  0.00  0.00    +0.000 C 
ATOM     19  C   UNL     1      36.145   9.240  35.918  0.00  0.00    +0.000 C 
ATOM     20  C   UNL     1      35.869   7.757  35.582  0.00  0.00    +0.000 C 
ENDBRANCH  13  15
ENDBRANCH   7  12
TORSDOF 2
ENDMDL
MODEL 2
REMARK VINA RESULT:      -6.3     21.222     24.083
REMARK  Name = 
REMARK  2 active torsions:
REMARK  status: ('A' for Active; 'I' for Inactive)
REMARK    1  A    between atoms: C_7  and  N_8
REMARK    2  A    between atoms: C_9  and  C_11
REMARK                            x       y       z     vdW  Elec       q    Type
REMARK                         _______ _______ _______ _____ _____    ______ ____
ROOT
ATOM      1  N   UNL     1      25.227  25.261  31.269  0.00  0.00    +0.000 NA
ATOM      2  C   UNL     1      25.290  25.155  29.862  0.00  0.00    +0.000 A 
ATOM      3  C   UNL     1      24.557  25.981  29.034  0.00  0.00    +0.000 A 
ATOM      4  C   UNL     1      24.623  25.871  27.671  0.00  0.00    +0.000 A 
ATOM      5  C   UNL     1      25.453  24.899  27.129  0.00  0.00    +0.000 A 
ATOM      6  C   UNL     1      26.187  24.072  27.920  0.00  0.00    +0.000 A 
ATOM      7  C   UNL     1      27.024  23.094  27.434  0.00  0.00    +0.000 A 
ATOM      8  C   UNL     1      27.746  22.282  28.268  0.00  0.00    +0.000 A 
ATOM      9  C   UNL     1      27.662  22.411  29.643  0.00  0.00    +0.000 A 
ATOM     10  C   UNL     1      26.836  23.377  30.137  0.00  0.00    +0.000 A 
ATOM     11  C   UNL     1      26.112  24.192  29.312  0.00  0.00    +0.000 A 
ENDROOT
BRANCH   7  12
ATOM     12  N   UNL     1      27.140  22.925  26.032  0.00  0.00    +0.000 NA
ATOM     13  C   UNL     1      28.294  23.372  25.376  0.00  0.00    +0.000 C 
ATOM     14  O   UNL     1      29.277  23.925  25.874  0.00  0.00    +0.000 OA
BRANCH  13  15
ATOM     15  C   UNL     1      28.344  23.134  23.781  0.00  0.00    +0.000 C 
ATOM     16  C   UNL     1      26.743  23.414  23.481  0.00  0.00    +0.000 C 
ATOM     17  C   UNL     1      27.885  24.600  23.315  0.00  0.00    +0.000 C 
ATOM     18  C   UNL     1      27.816  25.033  21.972  0.00  0.00    +0.000 C 
ATOM     19  C   UNL     1      27.214  26.298  22.634  0.00  0.00    +0.000 C 
ATOM     20  C   UNL     1      27.515  25.683  24.020  0.00  0.00    +0.000 C 
ENDBRANCH  13  15
ENDBRANCH   7  12
TORSDOF 2
ENDMDL
MODEL 3
REMARK VINA RESULT:      -6.1     20.446     22.728
REMARK  Name = 
REMARK  2 active torsions:
REMARK  status: ('A' for Active; 'I' for Inactive)
REMARK    1  A    between atoms: C_7  and  N_8
REMARK    2  A    between atoms: C_9  and  C_11
REMARK                            x       y       z     vdW  Elec       q    Type
REMARK                         _______ _______ _______ _____ _____    ______ ____
ROOT
ATOM      1  N   UNL     1      30.932  22.788  31.179  0.00  0.00    +0.000 NA
ATOM      2  C   UNL     1      30.593  22.658  29.814  0.00  0.00    +0.000 A 
ATOM      3  C   UNL     1      31.543  22.408  28.846  0.00  0.00    +0.000 A 
ATOM      4  C   UNL     1      31.206  22.283  27.525  0.00  0.00    +0.000 A 
ATOM      5  C   UNL     1      29.870  22.415  27.172  0.00  0.00    +0.000 A 
ATOM      6  C   UNL     1      28.911  22.661  28.104  0.00  0.00    +0.000 A 
ATOM      7  C   UNL     1      27.575  22.800  27.808  0.00  0.00    +0.000 A 
ATOM      8  C   UNL     1      26.642  23.048  28.780  0.00  0.00    +0.000 A 
ATOM      9  C   UNL     1      27.008  23.170  30.109  0.00  0.00    +0.000 A 
ATOM     10  C   UNL     1      28.329  23.034  30.415  0.00  0.00    +0.000 A 
ATOM     11  C   UNL     1      29.266  22.788  29.452  0.00  0.00    +0.000 A 
ENDROOT
BRANCH   7  12
ATOM     12  N   UNL     1      27.155  22.683  26.460  0.00  0.00    +0.000 NA
ATOM     13  C   UNL     1      26.800  23.834  25.746  0.00  0.00    +0.000 C 
ATOM     14  O   UNL     1      26.798  24.999  26.148  0.00  0.00    +0.000 OA
BRANCH  13  15
ATOM     15  C   UNL     1      26.338  23.608  24.216  0.00  0.00    +0.000 C 
ATOM     16  C   UNL     1      26.731  25.113  23.658  0.00  0.00    +0.000 C 
ATOM     17  C   UNL     1      27.763  23.828  23.510  0.00  0.00    +0.000 C 
ATOM     18  C   UNL     1      28.009  23.672  22.128  0.00  0.00    +0.000 C 
ATOM     19  C   UNL     1      29.408  24.201  22.534  0.00  0.00    +0.000 C 
ATOM     20  C   UNL     1      28.965  24.155  24.014  0.00  0.00    +0.000 C 
ENDBRANCH  13  15
ENDBRANCH   7  12
TORSDOF 2
ENDMDL
MODEL 4
REMARK VINA RESULT:      -6.0     22.029     24.345
REMARK  Name = 
REMARK  2 active torsions:
REMARK  status: ('A' for Active; 'I' for Inactive)
REMARK    1  A    between atoms: C_7  and  N_8
REMARK    2  A    between atoms: C_9  and  C_11
REMARK                            x       y       z     vdW  Elec       q    Type
REMARK                         _______ _______ _______ _____ _____    ______ ____
ROOT
ATOM      1  N   UNL     1      25.704  24.949  31.839  0.00  0.00    +0.000 NA
ATOM      2  C   UNL     1      26.065  24.416  30.582  0.00  0.00    +0.000 A 
ATOM      3  C   UNL     1      26.997  23.407  30.457  0.00  0.00    +0.000 A 
ATOM      4  C   UNL     1      27.342  22.897  29.234  0.00  0.00    +0.000 A 
ATOM      5  C   UNL     1      26.727  23.421  28.105  0.00  0.00    +0.000 A 
ATOM      6  C   UNL     1      25.805  24.416  28.198  0.00  0.00    +0.000 A 
ATOM      7  C   UNL     1      25.167  24.970  27.112  0.00  0.00    +0.000 A 
ATOM      8  C   UNL     1      24.243  25.972  27.251  0.00  0.00    +0.000 A 
ATOM      9  C   UNL     1      23.911  26.472  28.498  0.00  0.00    +0.000 A 
ATOM     10  C   UNL     1      24.536  25.931  29.582  0.00  0.00    +0.000 A 
ATOM     11  C   UNL     1      25.459  24.931  29.452  0.00  0.00    +0.000 A 
ENDROOT
BRANCH   7  12
ATOM     12  N   UNL     1      25.476  24.489  25.816  0.00  0.00    +0.000 NA
ATOM     13  C   UNL     1      26.337  25.226  24.994  0.00  0.00    +0.000 C 
ATOM     14  O   UNL     1      26.894  26.295  25.253  0.00  0.00    +0.000 OA
BRANCH  13  15
ATOM     15  C   UNL     1      26.637  24.601  23.536  0.00  0.00    +0.000 C 
ATOM     16  C   UNL     1      28.066  25.386  23.266  0.00  0.00    +0.000 C 
ATOM     17  C   UNL     1      28.013  23.852  23.884  0.00  0.00    +0.000 C 
ATOM     18  C   UNL     1      28.735  23.036  22.986  0.00  0.00    +0.000 C 
ATOM     19  C   UNL     1      29.751  23.013  24.155  0.00  0.00    +0.000 C 
ATOM     20  C   UNL     1      28.735  23.798  25.017  0.00  0.00    +0.000 C 
ENDBRANCH  13  15
ENDBRANCH   7  12
TORSDOF 2
ENDMDL
MODEL 5
REMARK VINA RESULT:      -6.0     21.161     23.357
REMARK  Name = 
REMARK  2 active torsions:
REMARK  status: ('A' for Active; 'I' for Inactive)
REMARK    1  A    between atoms: C_7  and  N_8
REMARK    2  A    between atoms: C_9  and  C_11
REMARK                            x       y       z     vdW  Elec       q    Type
REMARK                         _______ _______ _______ _____ _____    ______ ____
ROOT
ATOM      1  N   UNL     1      33.797  24.440  27.375  0.00  0.00    +0.000 NA
ATOM      2  C   UNL     1      32.707  24.098  26.545  0.00  0.00    +0.000 A 
ATOM      3  C   UNL     1      32.767  24.225  25.173  0.00  0.00    +0.000 A 
ATOM      4  C   UNL     1      31.706  23.890  24.374  0.00  0.00    +0.000 A 
ATOM      5  C   UNL     1      30.552  23.415  24.981  0.00  0.00    +0.000 A 
ATOM      6  C   UNL     1      30.464  23.279  26.330  0.00  0.00    +0.000 A 
ATOM      7  C   UNL     1      29.345  22.813  26.981  0.00  0.00    +0.000 A 
ATOM      8  C   UNL     1      29.299  22.692  28.344  0.00  0.00    +0.000 A 
ATOM      9  C   UNL     1      30.385  23.036  29.130  0.00  0.00    +0.000 A 
ATOM     10  C   UNL     1      31.501  23.499  28.498  0.00  0.00    +0.000 A 
ATOM     11  C   UNL     1      31.554  23.624  27.138  0.00  0.00    +0.000 A 
ENDROOT
BRANCH   7  12
ATOM     12  N   UNL     1      28.209  22.448  26.216  0.00  0.00    +0.000 NA
ATOM     13  C   UNL     1      27.175  23.375  26.031  0.00  0.00    +0.000 C 
ATOM     14  O   UNL     1      27.110  24.527  26.466  0.00  0.00    +0.000 OA
BRANCH  13  15
ATOM     15  C   UNL     1      25.923  22.877  25.143  0.00  0.00    +0.000 C 
ATOM     16  C   UNL     1      25.450  24.365  24.601  0.00  0.00    +0.000 C 
ATOM     17  C   UNL     1      26.440  23.383  23.710  0.00  0.00    +0.000 C 
ATOM     18  C   UNL     1      25.774  23.151  22.487  0.00  0.00    +0.000 C 
ATOM     19  C   UNL     1      26.902  24.064  21.944  0.00  0.00    +0.000 C 
ATOM     20  C   UNL     1      27.543  24.062  23.351  0.00  0.00    +0.000 C 
ENDBRANCH  13  15
ENDBRANCH   7  12
TORSDOF 2
ENDMDL
MODEL 6
REMARK VINA RESULT:      -6.0     19.444     22.134
REMARK  Name = 
REMARK  2 active torsions:
REMARK  status: ('A' for Active; 'I' for Inactive)
REMARK    1  A    between atoms: C_7  and  N_8
REMARK    2  A    between atoms: C_9  and  C_11
REMARK                            x       y       z     vdW  Elec       q    Type
REMARK                         _______ _______ _______ _____ _____    ______ ____
ROOT
ATOM      1  N   UNL     1      29.133   7.695  15.442  0.00  0.00    +0.000 NA
ATOM      2  C   UNL     1      28.275   7.080  16.381  0.00  0.00    +0.000 A 
ATOM      3  C   UNL     1      28.419   7.274  17.739  0.00  0.00    +0.000 A 
ATOM      4  C   UNL     1      27.583   6.674  18.642  0.00  0.00    +0.000 A 
ATOM      5  C   UNL     1      26.572   5.855  18.158  0.00  0.00    +0.000 A 
ATOM      6  C   UNL     1      26.406   5.646  16.825  0.00  0.00    +0.000 A 
ATOM      7  C   UNL     1      25.421   4.844  16.294  0.00  0.00    +0.000 A 
ATOM      8  C   UNL     1      25.290   4.661  14.943  0.00  0.00    +0.000 A 
ATOM      9  C   UNL     1      26.148   5.278  14.050  0.00  0.00    +0.000 A 
ATOM     10  C   UNL     1      27.127   6.075  14.563  0.00  0.00    +0.000 A 
ATOM     11  C   UNL     1      27.266   6.263  15.910  0.00  0.00    +0.000 A 
ENDROOT
BRANCH   7  12
ATOM     12  N   UNL     1      24.520   4.192  17.172  0.00  0.00    +0.000 NA
ATOM     13  C   UNL     1      24.711   2.838  17.475  0.00  0.00    +0.000 C 
ATOM     14  O   UNL     1      25.601   2.092  17.062  0.00  0.00    +0.000 OA
BRANCH  13  15
ATOM     15  C   UNL     1      23.640   2.177  18.486  0.00  0.00    +0.000 C 
ATOM     16  C   UNL     1      22.456   3.316  18.305  0.00  0.00    +0.000 C 
ATOM     17  C   UNL     1      22.461   1.910  17.432  0.00  0.00    +0.000 C 
ATOM     18  C   UNL     1      21.248   1.252  17.730  0.00  0.00    +0.000 C 
ATOM     19  C   UNL     1      20.915   1.657  16.272  0.00  0.00    +0.000 C 
ATOM     20  C   UNL     1      22.357   2.195  16.122  0.00  0.00    +0.000 C 
ENDBRANCH  13  15
ENDBRANCH   7  12
TORSDOF 2
ENDMDL
MODEL 7
REMARK VINA RESULT:      -6.0     22.274     24.440
REMARK  Name = 
REMARK  2 active torsions:
REMARK  status: ('A' for Active; 'I' for Inactive)
REMARK    1  A    between atoms: C_7  and  N_8
REMARK    2  A    between atoms: C_9  and  C_11
REMARK                            x       y       z     vdW  Elec       q    Type
REMARK                         _______ _______ _______ _____ _____    ______ ____
ROOT
ATOM      1  N   UNL     1      23.899  26.477  29.988  0.00  0.00    +0.000 NA
ATOM      2  C   UNL     1      24.776  25.601  29.311  0.00  0.00    +0.000 A 
ATOM      3  C   UNL     1      25.661  24.787  29.988  0.00  0.00    +0.000 A 
ATOM      4  C   UNL     1      26.507  23.940  29.325  0.00  0.00    +0.000 A 
ATOM      5  C   UNL     1      26.459  23.915  27.938  0.00  0.00    +0.000 A 
ATOM      6  C   UNL     1      25.598  24.705  27.244  0.00  0.00    +0.000 A 
ATOM      7  C   UNL     1      25.509  24.719  25.871  0.00  0.00    +0.000 A 
ATOM      8  C   UNL     1      24.626  25.533  25.212  0.00  0.00    +0.000 A 
ATOM      9  C   UNL     1      23.780  26.381  25.905  0.00  0.00    +0.000 A 
ATOM     10  C   UNL     1      23.857  26.376  27.266  0.00  0.00    +0.000 A 
ATOM     11  C   UNL     1      24.736  25.568  27.931  0.00  0.00    +0.000 A 
ENDROOT
BRANCH   7  12
ATOM     12  N   UNL     1      26.357  23.867  25.121  0.00  0.00    +0.000 NA
ATOM     13  C   UNL     1      27.443  24.413  24.425  0.00  0.00    +0.000 C 
ATOM     14  O   UNL     1      27.783  25.596  24.369  0.00  0.00    +0.000 OA
BRANCH  13  15
ATOM     15  C   UNL     1      28.358  23.369  23.601  0.00  0.00    +0.000 C 
ATOM     16  C   UNL     1      29.736  24.280  23.573  0.00  0.00    +0.000 C 
ATOM     17  C   UNL     1      29.481  23.114  24.719  0.00  0.00    +0.000 C 
ATOM     18  C   UNL     1      30.546  22.195  24.594  0.00  0.00    +0.000 C 
ATOM     19  C   UNL     1      30.968  22.826  25.945  0.00  0.00    +0.000 C 
ATOM     20  C   UNL     1      29.654  23.641  25.943  0.00  0.00    +0.000 C 
ENDBRANCH  13  15
ENDBRANCH   7  12
TORSDOF 2
ENDMDL
MODEL 8
REMARK VINA RESULT:      -5.9     20.919     22.916
REMARK  Name = 
REMARK  2 active torsions:
REMARK  status: ('A' for Active; 'I' for Inactive)
REMARK    1  A    between atoms: C_7  and  N_8
REMARK    2  A    between atoms: C_9  and  C_11
REMARK                            x       y       z     vdW  Elec       q    Type
REMARK                         _______ _______ _______ _____ _____    ______ ____
ROOT
ATOM      1  N   UNL     1      21.187  -6.203  24.852  0.00  0.00    +0.000 NA
ATOM      2  C   UNL     1      20.140  -6.488  25.756  0.00  0.00    +0.000 A 
ATOM      3  C   UNL     1      19.193  -5.545  26.097  0.00  0.00    +0.000 A 
ATOM      4  C   UNL     1      18.181  -5.830  26.975  0.00  0.00    +0.000 A 
ATOM      5  C   UNL     1      18.127  -7.104  27.524  0.00  0.00    +0.000 A 
ATOM      6  C   UNL     1      19.046  -8.053  27.207  0.00  0.00    +0.000 A 
ATOM      7  C   UNL     1      19.037  -9.329  27.722  0.00  0.00    +0.000 A 
ATOM      8  C   UNL     1      19.985 -10.255  27.374  0.00  0.00    +0.000 A 
ATOM      9  C   UNL     1      20.998  -9.943  26.485  0.00  0.00    +0.000 A 
ATOM     10  C   UNL     1      21.018  -8.682  25.967  0.00  0.00    +0.000 A 
ATOM     11  C   UNL     1      20.077  -7.752  26.309  0.00  0.00    +0.000 A 
ENDROOT
BRANCH   7  12
ATOM     12  N   UNL     1      18.018  -9.692  28.637  0.00  0.00    +0.000 NA
ATOM     13  C   UNL     1      18.293  -9.694  30.010  0.00  0.00    +0.000 C 
ATOM     14  O   UNL     1      19.356  -9.411  30.566  0.00  0.00    +0.000 OA
BRANCH  13  15
ATOM     15  C   UNL     1      17.073 -10.116  30.979  0.00  0.00    +0.000 C 
ATOM     16  C   UNL     1      16.293 -11.106  29.910  0.00  0.00    +0.000 C 
ATOM     17  C   UNL     1      17.357 -11.695  31.033  0.00  0.00    +0.000 C 
ATOM     18  C   UNL     1      16.632 -12.616  31.821  0.00  0.00    +0.000 C 
ATOM     19  C   UNL     1      17.523 -13.636  31.068  0.00  0.00    +0.000 C 
ATOM     20  C   UNL     1      18.281 -12.454  30.421  0.00  0.00    +0.000 C 
ENDBRANCH  13  15
ENDBRANCH   7  12
TORSDOF 2
ENDMDL
MODEL 9
REMARK VINA RESULT:      -5.9      2.645      6.917
REMARK  Name = 
REMARK  2 active torsions:
REMARK  status: ('A' for Active; 'I' for Inactive)
REMARK    1  A    between atoms: C_7  and  N_8
REMARK    2  A    between atoms: C_9  and  C_11
REMARK                            x       y       z     vdW  Elec       q    Type
REMARK                         _______ _______ _______ _____ _____    ______ ____
ROOT
ATOM      1  N   UNL     1      34.698   6.139  35.296  0.00  0.00    +0.000 NA
ATOM      2  C   UNL     1      34.318   4.791  35.111  0.00  0.00    +0.000 A 
ATOM      3  C   UNL     1      33.900   4.312  33.887  0.00  0.00    +0.000 A 
ATOM      4  C   UNL     1      33.534   3.004  33.716  0.00  0.00    +0.000 A 
ATOM      5  C   UNL     1      33.592   2.156  34.814  0.00  0.00    +0.000 A 
ATOM      6  C   UNL     1      34.000   2.600  36.032  0.00  0.00    +0.000 A 
ATOM      7  C   UNL     1      34.075   1.803  37.151  0.00  0.00    +0.000 A 
ATOM      8  C   UNL     1      34.492   2.293  38.360  0.00  0.00    +0.000 A 
ATOM      9  C   UNL     1      34.856   3.619  38.508  0.00  0.00    +0.000 A 
ATOM     10  C   UNL     1      34.787   4.420  37.407  0.00  0.00    +0.000 A 
ATOM     11  C   UNL     1      34.372   3.940  36.197  0.00  0.00    +0.000 A 
ENDROOT
BRANCH   7  12
ATOM     12  N   UNL     1      33.710   0.438  37.046  0.00  0.00    +0.000 NA
ATOM     13  C   UNL     1      34.710  -0.538  36.948  0.00  0.00    +0.000 C 
ATOM     14  O   UNL     1      35.931  -0.367  36.937  0.00  0.00    +0.000 OA
BRANCH  13  15
ATOM     15  C   UNL     1      34.205  -2.067  36.837  0.00  0.00    +0.000 C 
ATOM     16  C   UNL     1      32.728  -1.747  36.166  0.00  0.00    +0.000 C 
ATOM     17  C   UNL     1      34.043  -2.141  35.242  0.00  0.00    +0.000 C 
ATOM     18  C   UNL     1      33.689  -3.304  34.522  0.00  0.00    +0.000 C 
ATOM     19  C   UNL     1      33.686  -2.310  33.334  0.00  0.00    +0.000 C 
ATOM     20  C   UNL     1      34.215  -1.213  34.286  0.00  0.00    +0.000 C 
ENDBRANCH  13  15
ENDBRANCH   7  12
TORSDOF 2
ENDMDL
MODEL 10
REMARK VINA RESULT:      -5.9      1.299      2.285
REMARK  Name = 
REMARK  2 active torsions:
REMARK  status: ('A' for Active; 'I' for Inactive)
REMARK    1  A    between atoms: C_7  and  N_8
REMARK    2  A    between atoms: C_9  and  C_11
REMARK                            x       y       z     vdW  Elec       q    Type
REMARK                         _______ _______ _______ _____ _____    ______ ____
ROOT
ATOM      1  N   UNL     1      32.869  -0.199  34.047  0.00  0.00    +0.000 NA
ATOM      2  C   UNL     1      33.412   0.628  35.055  0.00  0.00    +0.000 A 
ATOM      3  C   UNL     1      33.746   0.137  36.300  0.00  0.00    +0.000 A 
ATOM      4  C   UNL     1      34.273   0.945  37.272  0.00  0.00    +0.000 A 
ATOM      5  C   UNL     1      34.467   2.288  36.977  0.00  0.00    +0.000 A 
ATOM      6  C   UNL     1      34.147   2.799  35.759  0.00  0.00    +0.000 A 
ATOM      7  C   UNL     1      34.320   4.120  35.416  0.00  0.00    +0.000 A 
ATOM      8  C   UNL     1      33.984   4.594  34.175  0.00  0.00    +0.000 A 
ATOM      9  C   UNL     1      33.453   3.757  33.209  0.00  0.00    +0.000 A 
ATOM     10  C   UNL     1      33.277   2.446  33.537  0.00  0.00    +0.000 A 
ATOM     11  C   UNL     1      33.609   1.965  34.772  0.00  0.00    +0.000 A 
ENDROOT
BRANCH   7  12
ATOM     12  N   UNL     1      34.860   5.013  36.374  0.00  0.00    +0.000 NA
ATOM     13  C   UNL     1      36.189   5.437  36.250  0.00  0.00    +0.000 C 
ATOM     14  O   UNL     1      37.001   5.124  35.377  0.00  0.00    +0.000 OA
BRANCH  13  15
ATOM     15  C   UNL     1      36.719   6.457  37.383  0.00  0.00    +0.000 C 
ATOM     16  C   UNL     1      35.785   5.892  38.623  0.00  0.00    +0.000 C 
ATOM     17  C   UNL     1      37.341   5.377  38.394  0.00  0.00    +0.000 C 
ATOM     18  C   UNL     1      38.043   5.693  39.578  0.00  0.00    +0.000 C 
ATOM     19  C   UNL     1      38.011   4.154  39.755  0.00  0.00    +0.000 C 
ATOM     20  C   UNL     1      37.368   4.034  38.354  0.00  0.00    +0.000 C 
ENDBRANCH  13  15
ENDBRANCH   7  12
TORSDOF 2
ENDMDL
