MODEL 1
REMARK VINA RESULT:      -7.4      0.000      0.000
REMARK  Name = 
REMARK  6 active torsions:
REMARK  status: ('A' for Active; 'I' for Inactive)
REMARK    1  A    between atoms: O_2  and  C_3
REMARK    2  A    between atoms: C_8  and  N_9
REMARK    3  A    between atoms: C_10  and  C_12
REMARK    4  A    between atoms: C_13  and  N_14
REMARK    5  A    between atoms: C_15  and  C_17
REMARK    6  A    between atoms: C_17  and  C_18
REMARK                            x       y       z     vdW  Elec       q    Type
REMARK                         _______ _______ _______ _____ _____    ______ ____
ROOT
ATOM      1  C   UNL     1      36.804   2.040  14.672  0.00  0.00    +0.000 A 
ATOM      2  C   UNL     1      35.632   1.687  15.241  0.00  0.00    +0.000 A 
ATOM      3  S   UNL     1      34.732   3.213  15.136  0.00  0.00    +0.000 S 
ATOM      4  C   UNL     1      35.909   4.162  14.397  0.00  0.00    +0.000 A 
ATOM      5  C   UNL     1      36.964   3.309  14.238  0.00  0.00    +0.000 A 
ATOM      6  C   UNL     1      38.260   3.800  13.592  0.00  0.00    +0.000 C 
ATOM      7  C   UNL     1      37.991   4.826  12.552  0.00  0.00    +0.000 C 
ATOM      8  C   UNL     1      36.614   4.727  11.942  0.00  0.00    +0.000 C 
ATOM      9  C   UNL     1      35.714   5.778  12.532  0.00  0.00    +0.000 C 
ATOM     10  C   UNL     1      35.744   5.621  14.038  0.00  0.00    +0.000 C 
ENDROOT
BRANCH   1  12
ATOM     11  N   UNL     1      38.891   0.666  15.176  0.00  0.00    +0.000 NA
ATOM     12  C   UNL     1      37.817   1.001  14.300  0.00  0.00    +0.000 C 
ATOM     13  O   UNL     1      37.793   0.372  13.225  0.00  0.00    +0.000 OA
BRANCH  11  19
ATOM     14  C   UNL     1      40.959   0.008  14.063  0.00  0.00    +0.000 A 
ATOM     15  C   UNL     1      41.872  -0.987  13.733  0.00  0.00    +0.000 A 
ATOM     16  C   UNL     1      41.691  -2.269  14.155  0.00  0.00    +0.000 A 
ATOM     17  C   UNL     1      40.610  -2.593  14.907  0.00  0.00    +0.000 A 
ATOM     18  C   UNL     1      39.681  -1.637  15.255  0.00  0.00    +0.000 A 
ATOM     19  C   UNL     1      39.863  -0.319  14.824  0.00  0.00    +0.000 A 
BRANCH  14  21
ATOM     20  C   UNL     1      41.046   1.615  12.275  0.00  0.00    +0.000 C 
ATOM     21  O   UNL     1      41.108   1.324  13.653  0.00  0.00    +0.000 OA
ENDBRANCH  14  21
ENDBRANCH  11  19
ENDBRANCH   1  12
BRANCH   2  22
ATOM     22  N   UNL     1      35.125   0.614  15.994  0.00  0.00    +0.000 NA
ATOM     23  C   UNL     1      35.564   0.115  17.196  0.00  0.00    +0.000 C 
ATOM     24  O   UNL     1      36.521   0.633  17.823  0.00  0.00    +0.000 OA
BRANCH  23  25
ATOM     25  C   UNL     1      34.893  -1.103  17.830  0.00  0.00    +0.000 C 
BRANCH  25  26
ATOM     26  C   UNL     1      35.301  -2.299  17.055  0.00  0.00    +0.000 A 
ATOM     27  C   UNL     1      36.565  -2.833  17.345  0.00  0.00    +0.000 A 
ATOM     28  C   UNL     1      37.069  -3.926  16.690  0.00  0.00    +0.000 A 
ATOM     29  C   UNL     1      36.291  -4.528  15.696  0.00  0.00    +0.000 A 
ATOM     30  C   UNL     1      35.061  -4.016  15.409  0.00  0.00    +0.000 A 
ATOM     31  C   UNL     1      34.583  -2.921  16.080  0.00  0.00    +0.000 A 
ENDBRANCH  25  26
ENDBRANCH  23  25
ENDBRANCH   2  22
TORSDOF 6
ENDMDL
MODEL 2
REMARK VINA RESULT:      -7.3      2.541      7.136
REMARK  Name = 
REMARK  6 active torsions:
REMARK  status: ('A' for Active; 'I' for Inactive)
REMARK    1  A    between atoms: O_2  and  C_3
REMARK    2  A    between atoms: C_8  and  N_9
REMARK    3  A    between atoms: C_10  and  C_12
REMARK    4  A    between atoms: C_13  and  N_14
REMARK    5  A    between atoms: C_15  and  C_17
REMARK    6  A    between atoms: C_17  and  C_18
REMARK                            x       y       z     vdW  Elec       q    Type
REMARK                         _______ _______ _______ _____ _____    ______ ____
ROOT
ATOM      1  C   UNL     1      39.794   0.251  14.501  0.00  0.00    +0.000 A 
ATOM      2  C   UNL     1      40.064   1.545  14.228  0.00  0.00    +0.000 A 
ATOM      3  S   UNL     1      41.691   1.411  13.531  0.00  0.00    +0.000 S 
ATOM      4  C   UNL     1      41.894  -0.255  13.654  0.00  0.00    +0.000 A 
ATOM      5  C   UNL     1      40.726  -0.685  14.217  0.00  0.00    +0.000 A 
ATOM      6  C   UNL     1      40.511  -2.172  14.503  0.00  0.00    +0.000 C 
ATOM      7  C   UNL     1      41.184  -3.021  13.487  0.00  0.00    +0.000 C 
ATOM      8  C   UNL     1      41.379  -2.337  12.155  0.00  0.00    +0.000 C 
ATOM      9  C   UNL     1      42.803  -1.875  12.018  0.00  0.00    +0.000 C 
ATOM     10  C   UNL     1      43.128  -1.010  13.219  0.00  0.00    +0.000 C 
ENDROOT
BRANCH   1  12
ATOM     11  N   UNL     1      38.030  -0.344  16.243  0.00  0.00    +0.000 NA
ATOM     12  C   UNL     1      38.409  -0.179  14.878  0.00  0.00    +0.000 C 
ATOM     13  O   UNL     1      37.513  -0.416  14.047  0.00  0.00    +0.000 OA
BRANCH  11  19
ATOM     14  C   UNL     1      35.744   0.160  16.924  0.00  0.00    +0.000 A 
ATOM     15  C   UNL     1      34.481  -0.291  17.289  0.00  0.00    +0.000 A 
ATOM     16  C   UNL     1      34.201  -1.623  17.335  0.00  0.00    +0.000 A 
ATOM     17  C   UNL     1      35.159  -2.532  17.024  0.00  0.00    +0.000 A 
ATOM     18  C   UNL     1      36.424  -2.126  16.658  0.00  0.00    +0.000 A 
ATOM     19  C   UNL     1      36.715  -0.759  16.609  0.00  0.00    +0.000 A 
BRANCH  14  21
ATOM     20  C   UNL     1      35.275   2.359  16.068  0.00  0.00    +0.000 C 
ATOM     21  O   UNL     1      36.067   1.507  16.865  0.00  0.00    +0.000 OA
ENDBRANCH  14  21
ENDBRANCH  11  19
ENDBRANCH   1  12
BRANCH   2  22
ATOM     22  N   UNL     1      39.525   2.806  14.538  0.00  0.00    +0.000 NA
ATOM     23  C   UNL     1      38.369   3.389  14.084  0.00  0.00    +0.000 C 
ATOM     24  O   UNL     1      37.582   2.794  13.307  0.00  0.00    +0.000 OA
BRANCH  23  25
ATOM     25  C   UNL     1      37.984   4.804  14.514  0.00  0.00    +0.000 C 
BRANCH  25  26
ATOM     26  C   UNL     1      38.550   5.037  15.864  0.00  0.00    +0.000 A 
ATOM     27  C   UNL     1      39.685   5.857  15.937  0.00  0.00    +0.000 A 
ATOM     28  C   UNL     1      40.315   6.138  17.121  0.00  0.00    +0.000 A 
ATOM     29  C   UNL     1      39.803   5.584  18.298  0.00  0.00    +0.000 A 
ATOM     30  C   UNL     1      38.699   4.786  18.237  0.00  0.00    +0.000 A 
ATOM     31  C   UNL     1      38.090   4.523  17.038  0.00  0.00    +0.000 A 
ENDBRANCH  25  26
ENDBRANCH  23  25
ENDBRANCH   2  22
TORSDOF 6
ENDMDL
MODEL 3
REMARK VINA RESULT:      -7.2      2.277      5.686
REMARK  Name = 
REMARK  6 active torsions:
REMARK  status: ('A' for Active; 'I' for Inactive)
REMARK    1  A    between atoms: O_2  and  C_3
REMARK    2  A    between atoms: C_8  and  N_9
REMARK    3  A    between atoms: C_10  and  C_12
REMARK    4  A    between atoms: C_13  and  N_14
REMARK    5  A    between atoms: C_15  and  C_17
REMARK    6  A    between atoms: C_17  and  C_18
REMARK                            x       y       z     vdW  Elec       q    Type
REMARK                         _______ _______ _______ _____ _____    ______ ____
ROOT
ATOM      1  C   UNL     1      40.021  -0.369  14.215  0.00  0.00    +0.000 A 
ATOM      2  C   UNL     1      40.178  -1.461  14.993  0.00  0.00    +0.000 A 
ATOM      3  S   UNL     1      41.680  -2.135  14.331  0.00  0.00    +0.000 S 
ATOM      4  C   UNL     1      41.972  -0.994  13.128  0.00  0.00    +0.000 A 
ATOM      5  C   UNL     1      40.930  -0.119  13.249  0.00  0.00    +0.000 A 
ATOM      6  C   UNL     1      40.826   1.087  12.313  0.00  0.00    +0.000 C 
ATOM      7  C   UNL     1      42.169   1.601  11.942  0.00  0.00    +0.000 C 
ATOM      8  C   UNL     1      43.242   1.286  12.955  0.00  0.00    +0.000 C 
ATOM      9  C   UNL     1      44.078   0.131  12.477  0.00  0.00    +0.000 C 
ATOM     10  C   UNL     1      43.144  -1.023  12.175  0.00  0.00    +0.000 C 
ENDROOT
BRANCH   1  12
ATOM     11  N   UNL     1      37.635   0.529  14.205  0.00  0.00    +0.000 NA
ATOM     12  C   UNL     1      39.007   0.678  14.562  0.00  0.00    +0.000 C 
ATOM     13  O   UNL     1      39.285   1.727  15.173  0.00  0.00    +0.000 OA
BRANCH  11  19
ATOM     14  C   UNL     1      36.520   2.650  13.750  0.00  0.00    +0.000 A 
ATOM     15  C   UNL     1      35.573   3.601  14.111  0.00  0.00    +0.000 A 
ATOM     16  C   UNL     1      34.796   3.430  15.217  0.00  0.00    +0.000 A 
ATOM     17  C   UNL     1      34.939   2.320  15.984  0.00  0.00    +0.000 A 
ATOM     18  C   UNL     1      35.866   1.354  15.662  0.00  0.00    +0.000 A 
ATOM     19  C   UNL     1      36.666   1.527  14.527  0.00  0.00    +0.000 A 
BRANCH  14  21
ATOM     20  C   UNL     1      38.151   3.928  12.529  0.00  0.00    +0.000 C 
ATOM     21  O   UNL     1      37.329   2.788  12.633  0.00  0.00    +0.000 OA
ENDBRANCH  14  21
ENDBRANCH  11  19
ENDBRANCH   1  12
BRANCH   2  22
ATOM     22  N   UNL     1      39.413  -2.198  15.914  0.00  0.00    +0.000 NA
ATOM     23  C   UNL     1      38.300  -2.970  15.694  0.00  0.00    +0.000 C 
ATOM     24  O   UNL     1      37.827  -3.146  14.543  0.00  0.00    +0.000 OA
BRANCH  23  25
ATOM     25  C   UNL     1      37.582  -3.659  16.854  0.00  0.00    +0.000 C 
BRANCH  25  26
ATOM     26  C   UNL     1      36.855  -2.618  17.619  0.00  0.00    +0.000 A 
ATOM     27  C   UNL     1      35.567  -2.294  17.168  0.00  0.00    +0.000 A 
ATOM     28  C   UNL     1      34.795  -1.339  17.775  0.00  0.00    +0.000 A 
ATOM     29  C   UNL     1      35.314  -0.664  18.884  0.00  0.00    +0.000 A 
ATOM     30  C   UNL     1      36.564  -0.974  19.330  0.00  0.00    +0.000 A 
ATOM     31  C   UNL     1      37.314  -1.935  18.702  0.00  0.00    +0.000 A 
ENDBRANCH  25  26
ENDBRANCH  23  25
ENDBRANCH   2  22
TORSDOF 6
ENDMDL
MODEL 4
REMARK VINA RESULT:      -7.2      3.345      6.520
REMARK  Name = 
REMARK  6 active torsions:
REMARK  status: ('A' for Active; 'I' for Inactive)
REMARK    1  A    between atoms: O_2  and  C_3
REMARK    2  A    between atoms: C_8  and  N_9
REMARK    3  A    between atoms: C_10  and  C_12
REMARK    4  A    between atoms: C_13  and  N_14
REMARK    5  A    between atoms: C_15  and  C_17
REMARK    6  A    between atoms: C_17  and  C_18
REMARK                            x       y       z     vdW  Elec       q    Type
REMARK                         _______ _______ _______ _____ _____    ______ ____
ROOT
ATOM      1  C   UNL     1      37.361   0.987  15.224  0.00  0.00    +0.000 A 
ATOM      2  C   UNL     1      37.264   2.118  15.953  0.00  0.00    +0.000 A 
ATOM      3  S   UNL     1      35.897   1.722  17.013  0.00  0.00    +0.000 S 
ATOM      4  C   UNL     1      35.560   0.175  16.439  0.00  0.00    +0.000 A 
ATOM      5  C   UNL     1      36.489  -0.018  15.457  0.00  0.00    +0.000 A 
ATOM      6  C   UNL     1      36.516  -1.330  14.672  0.00  0.00    +0.000 C 
ATOM      7  C   UNL     1      36.106  -2.478  15.521  0.00  0.00    +0.000 C 
ATOM      8  C   UNL     1      36.342  -2.259  16.995  0.00  0.00    +0.000 C 
ATOM      9  C   UNL     1      35.048  -1.907  17.677  0.00  0.00    +0.000 C 
ATOM     10  C   UNL     1      34.453  -0.716  16.954  0.00  0.00    +0.000 C 
ENDROOT
BRANCH   1  12
ATOM     11  N   UNL     1      39.754   0.182  14.869  0.00  0.00    +0.000 NA
ATOM     12  C   UNL     1      38.551   0.741  14.347  0.00  0.00    +0.000 C 
ATOM     13  O   UNL     1      38.572   1.002  13.130  0.00  0.00    +0.000 OA
BRANCH  11  19
ATOM     14  C   UNL     1      41.103  -1.270  13.449  0.00  0.00    +0.000 A 
ATOM     15  C   UNL     1      42.234  -1.452  12.661  0.00  0.00    +0.000 A 
ATOM     16  C   UNL     1      43.126  -0.440  12.474  0.00  0.00    +0.000 A 
ATOM     17  C   UNL     1      42.919   0.767  13.058  0.00  0.00    +0.000 A 
ATOM     18  C   UNL     1      41.811   0.989  13.846  0.00  0.00    +0.000 A 
ATOM     19  C   UNL     1      40.893  -0.048  14.041  0.00  0.00    +0.000 A 
BRANCH  14  21
ATOM     20  C   UNL     1      39.356  -2.683  12.588  0.00  0.00    +0.000 C 
ATOM     21  O   UNL     1      40.172  -2.274  13.663  0.00  0.00    +0.000 OA
ENDBRANCH  14  21
ENDBRANCH  11  19
ENDBRANCH   1  12
BRANCH   2  22
ATOM     22  N   UNL     1      37.774   3.428  15.911  0.00  0.00    +0.000 NA
ATOM     23  C   UNL     1      38.228   4.214  16.940  0.00  0.00    +0.000 C 
ATOM     24  O   UNL     1      38.280   3.799  18.124  0.00  0.00    +0.000 OA
BRANCH  23  25
ATOM     25  C   UNL     1      38.702   5.644  16.683  0.00  0.00    +0.000 C 
BRANCH  25  26
ATOM     26  C   UNL     1      39.654   6.006  17.760  0.00  0.00    +0.000 A 
ATOM     27  C   UNL     1      40.995   6.168  17.382  0.00  0.00    +0.000 A 
ATOM     28  C   UNL     1      41.979   6.486  18.282  0.00  0.00    +0.000 A 
ATOM     29  C   UNL     1      41.628   6.654  19.625  0.00  0.00    +0.000 A 
ATOM     30  C   UNL     1      40.326   6.499  20.000  0.00  0.00    +0.000 A 
ATOM     31  C   UNL     1      39.364   6.181  19.078  0.00  0.00    +0.000 A 
ENDBRANCH  25  26
ENDBRANCH  23  25
ENDBRANCH   2  22
TORSDOF 6
ENDMDL
MODEL 5
REMARK VINA RESULT:      -7.0      2.909      5.958
REMARK  Name = 
REMARK  6 active torsions:
REMARK  status: ('A' for Active; 'I' for Inactive)
REMARK    1  A    between atoms: O_2  and  C_3
REMARK    2  A    between atoms: C_8  and  N_9
REMARK    3  A    between atoms: C_10  and  C_12
REMARK    4  A    between atoms: C_13  and  N_14
REMARK    5  A    between atoms: C_15  and  C_17
REMARK    6  A    between atoms: C_17  and  C_18
REMARK                            x       y       z     vdW  Elec       q    Type
REMARK                         _______ _______ _______ _____ _____    ______ ____
ROOT
ATOM      1  C   UNL     1      36.976  -0.012  14.545  0.00  0.00    +0.000 A 
ATOM      2  C   UNL     1      37.698  -0.157  13.414  0.00  0.00    +0.000 A 
ATOM      3  S   UNL     1      37.474   1.436  12.663  0.00  0.00    +0.000 S 
ATOM      4  C   UNL     1      36.484   2.139  13.830  0.00  0.00    +0.000 A 
ATOM      5  C   UNL     1      36.342   1.158  14.771  0.00  0.00    +0.000 A 
ATOM      6  C   UNL     1      35.494   1.407  16.019  0.00  0.00    +0.000 C 
ATOM      7  C   UNL     1      35.572   2.826  16.452  0.00  0.00    +0.000 C 
ATOM      8  C   UNL     1      36.838   3.525  16.020  0.00  0.00    +0.000 C 
ATOM      9  C   UNL     1      36.561   4.402  14.830  0.00  0.00    +0.000 C 
ATOM     10  C   UNL     1      35.925   3.540  13.758  0.00  0.00    +0.000 C 
ENDROOT
BRANCH   1  12
ATOM     11  N   UNL     1      38.174  -1.040  16.548  0.00  0.00    +0.000 NA
ATOM     12  C   UNL     1      37.069  -1.024  15.646  0.00  0.00    +0.000 C 
ATOM     13  O   UNL     1      36.208  -1.902  15.847  0.00  0.00    +0.000 OA
BRANCH  11  19
ATOM     14  C   UNL     1      37.857  -1.711  18.870  0.00  0.00    +0.000 A 
ATOM     15  C   UNL     1      37.984  -2.678  19.861  0.00  0.00    +0.000 A 
ATOM     16  C   UNL     1      38.509  -3.903  19.580  0.00  0.00    +0.000 A 
ATOM     17  C   UNL     1      38.918  -4.195  18.319  0.00  0.00    +0.000 A 
ATOM     18  C   UNL     1      38.810  -3.264  17.309  0.00  0.00    +0.000 A 
ATOM     19  C   UNL     1      38.271  -2.006  17.595  0.00  0.00    +0.000 A 
BRANCH  14  21
ATOM     20  C   UNL     1      35.929  -0.321  19.245  0.00  0.00    +0.000 C 
ATOM     21  O   UNL     1      37.327  -0.454  19.118  0.00  0.00    +0.000 OA
ENDBRANCH  14  21
ENDBRANCH  11  19
ENDBRANCH   1  12
BRANCH   2  22
ATOM     22  N   UNL     1      38.302  -1.203  12.694  0.00  0.00    +0.000 NA
ATOM     23  C   UNL     1      39.625  -1.567  12.641  0.00  0.00    +0.000 C 
ATOM     24  O   UNL     1      40.506  -0.981  13.319  0.00  0.00    +0.000 OA
BRANCH  23  25
ATOM     25  C   UNL     1      40.085  -2.720  11.749  0.00  0.00    +0.000 C 
BRANCH  25  26
ATOM     26  C   UNL     1      40.286  -2.182  10.383  0.00  0.00    +0.000 A 
ATOM     27  C   UNL     1      40.636  -3.108   9.390  0.00  0.00    +0.000 A 
ATOM     28  C   UNL     1      40.867  -2.740   8.090  0.00  0.00    +0.000 A 
ATOM     29  C   UNL     1      40.748  -1.390   7.746  0.00  0.00    +0.000 A 
ATOM     30  C   UNL     1      40.408  -0.483   8.705  0.00  0.00    +0.000 A 
ATOM     31  C   UNL     1      40.182  -0.880   9.997  0.00  0.00    +0.000 A 
ENDBRANCH  25  26
ENDBRANCH  23  25
ENDBRANCH   2  22
TORSDOF 6
ENDMDL
MODEL 6
REMARK VINA RESULT:      -6.9      2.676      7.035
REMARK  Name = 
REMARK  6 active torsions:
REMARK  status: ('A' for Active; 'I' for Inactive)
REMARK    1  A    between atoms: O_2  and  C_3
REMARK    2  A    between atoms: C_8  and  N_9
REMARK    3  A    between atoms: C_10  and  C_12
REMARK    4  A    between atoms: C_13  and  N_14
REMARK    5  A    between atoms: C_15  and  C_17
REMARK    6  A    between atoms: C_17  and  C_18
REMARK                            x       y       z     vdW  Elec       q    Type
REMARK                         _______ _______ _______ _____ _____    ______ ____
ROOT
ATOM      1  C   UNL     1      39.771   0.160  14.091  0.00  0.00    +0.000 A 
ATOM      2  C   UNL     1      39.785   1.429  13.630  0.00  0.00    +0.000 A 
ATOM      3  S   UNL     1      41.017   1.314  12.358  0.00  0.00    +0.000 S 
ATOM      4  C   UNL     1      41.415  -0.314  12.525  0.00  0.00    +0.000 A 
ATOM      5  C   UNL     1      40.606  -0.745  13.538  0.00  0.00    +0.000 A 
ATOM      6  C   UNL     1      40.667  -2.200  14.004  0.00  0.00    +0.000 C 
ATOM      7  C   UNL     1      40.972  -3.118  12.875  0.00  0.00    +0.000 C 
ATOM      8  C   UNL     1      40.566  -2.578  11.526  0.00  0.00    +0.000 C 
ATOM      9  C   UNL     1      41.772  -2.051  10.798  0.00  0.00    +0.000 C 
ATOM     10  C   UNL     1      42.451  -1.039  11.698  0.00  0.00    +0.000 C 
ENDROOT
BRANCH   1  12
ATOM     11  N   UNL     1      37.330  -0.368  14.601  0.00  0.00    +0.000 NA
ATOM     12  C   UNL     1      38.691  -0.304  15.020  0.00  0.00    +0.000 C 
ATOM     13  O   UNL     1      38.901  -0.660  16.194  0.00  0.00    +0.000 OA
BRANCH  11  19
ATOM     14  C   UNL     1      35.928  -2.125  15.546  0.00  0.00    +0.000 A 
ATOM     15  C   UNL     1      34.906  -2.501  16.410  0.00  0.00    +0.000 A 
ATOM     16  C   UNL     1      34.272  -1.579  17.186  0.00  0.00    +0.000 A 
ATOM     17  C   UNL     1      34.635  -0.272  17.125  0.00  0.00    +0.000 A 
ATOM     18  C   UNL     1      35.643   0.141  16.282  0.00  0.00    +0.000 A 
ATOM     19  C   UNL     1      36.295  -0.803  15.483  0.00  0.00    +0.000 A 
BRANCH  14  21
ATOM     20  C   UNL     1      36.174  -4.379  14.741  0.00  0.00    +0.000 C 
ATOM     21  O   UNL     1      36.597  -3.034  14.740  0.00  0.00    +0.000 OA
ENDBRANCH  14  21
ENDBRANCH  11  19
ENDBRANCH   1  12
BRANCH   2  22
ATOM     22  N   UNL     1      39.288   2.683  14.026  0.00  0.00    +0.000 NA
ATOM     23  C   UNL     1      38.036   3.215  13.845  0.00  0.00    +0.000 C 
ATOM     24  O   UNL     1      37.110   2.569  13.294  0.00  0.00    +0.000 OA
BRANCH  23  25
ATOM     25  C   UNL     1      37.711   4.632  14.316  0.00  0.00    +0.000 C 
BRANCH  25  26
ATOM     26  C   UNL     1      38.272   4.796  15.678  0.00  0.00    +0.000 A 
ATOM     27  C   UNL     1      37.626   4.099  16.710  0.00  0.00    +0.000 A 
ATOM     28  C   UNL     1      38.033   4.177  18.016  0.00  0.00    +0.000 A 
ATOM     29  C   UNL     1      39.133   4.982  18.328  0.00  0.00    +0.000 A 
ATOM     30  C   UNL     1      39.767   5.662  17.331  0.00  0.00    +0.000 A 
ATOM     31  C   UNL     1      39.338   5.565  16.033  0.00  0.00    +0.000 A 
ENDBRANCH  25  26
ENDBRANCH  23  25
ENDBRANCH   2  22
TORSDOF 6
ENDMDL
MODEL 7
REMARK VINA RESULT:      -6.8      2.332      7.437
REMARK  Name = 
REMARK  6 active torsions:
REMARK  status: ('A' for Active; 'I' for Inactive)
REMARK    1  A    between atoms: O_2  and  C_3
REMARK    2  A    between atoms: C_8  and  N_9
REMARK    3  A    between atoms: C_10  and  C_12
REMARK    4  A    between atoms: C_13  and  N_14
REMARK    5  A    between atoms: C_15  and  C_17
REMARK    6  A    between atoms: C_17  and  C_18
REMARK                            x       y       z     vdW  Elec       q    Type
REMARK                         _______ _______ _______ _____ _____    ______ ____
ROOT
ATOM      1  C   UNL     1      38.271  -1.174  15.605  0.00  0.00    +0.000 A 
ATOM      2  C   UNL     1      39.565  -1.454  15.343  0.00  0.00    +0.000 A 
ATOM      3  S   UNL     1      39.672  -3.130  15.918  0.00  0.00    +0.000 S 
ATOM      4  C   UNL     1      38.086  -3.328  16.446  0.00  0.00    +0.000 A 
ATOM      5  C   UNL     1      37.500  -2.124  16.177  0.00  0.00    +0.000 A 
ATOM      6  C   UNL     1      36.027  -1.892  16.520  0.00  0.00    +0.000 C 
ATOM      7  C   UNL     1      35.233  -3.138  16.368  0.00  0.00    +0.000 C 
ATOM      8  C   UNL     1      35.828  -4.123  15.391  0.00  0.00    +0.000 C 
ATOM      9  C   UNL     1      36.529  -5.227  16.135  0.00  0.00    +0.000 C 
ATOM     10  C   UNL     1      37.534  -4.588  17.071  0.00  0.00    +0.000 C 
ENDROOT
BRANCH   1  12
ATOM     11  N   UNL     1      37.360   1.190  15.890  0.00  0.00    +0.000 NA
ATOM     12  C   UNL     1      37.630   0.064  15.057  0.00  0.00    +0.000 C 
ATOM     13  O   UNL     1      37.296   0.195  13.865  0.00  0.00    +0.000 OA
BRANCH  11  19
ATOM     14  C   UNL     1      37.498   3.444  14.970  0.00  0.00    +0.000 A 
ATOM     15  C   UNL     1      36.854   4.578  14.489  0.00  0.00    +0.000 A 
ATOM     16  C   UNL     1      35.495   4.632  14.417  0.00  0.00    +0.000 A 
ATOM     17  C   UNL     1      34.749   3.571  14.816  0.00  0.00    +0.000 A 
ATOM     18  C   UNL     1      35.349   2.429  15.300  0.00  0.00    +0.000 A 
ATOM     19  C   UNL     1      36.744   2.370  15.376  0.00  0.00    +0.000 A 
BRANCH  14  21
ATOM     20  C   UNL     1      39.617   3.099  13.885  0.00  0.00    +0.000 C 
ATOM     21  O   UNL     1      38.878   3.351  15.059  0.00  0.00    +0.000 OA
ENDBRANCH  14  21
ENDBRANCH  11  19
ENDBRANCH   1  12
BRANCH   2  22
ATOM     22  N   UNL     1      40.729  -0.749  14.989  0.00  0.00    +0.000 NA
ATOM     23  C   UNL     1      41.160  -0.359  13.745  0.00  0.00    +0.000 C 
ATOM     24  O   UNL     1      40.485  -0.573  12.708  0.00  0.00    +0.000 OA
BRANCH  23  25
ATOM     25  C   UNL     1      42.493   0.367  13.570  0.00  0.00    +0.000 C 
BRANCH  25  26
ATOM     26  C   UNL     1      43.561  -0.516  14.097  0.00  0.00    +0.000 A 
ATOM     27  C   UNL     1      43.812  -1.694  13.379  0.00  0.00    +0.000 A 
ATOM     28  C   UNL     1      44.761  -2.604  13.767  0.00  0.00    +0.000 A 
ATOM     29  C   UNL     1      45.503  -2.345  14.923  0.00  0.00    +0.000 A 
ATOM     30  C   UNL     1      45.266  -1.202  15.627  0.00  0.00    +0.000 A 
ATOM     31  C   UNL     1      44.311  -0.309  15.214  0.00  0.00    +0.000 A 
ENDBRANCH  25  26
ENDBRANCH  23  25
ENDBRANCH   2  22
TORSDOF 6
ENDMDL
MODEL 8
REMARK VINA RESULT:      -6.7      2.268      6.723
REMARK  Name = 
REMARK  6 active torsions:
REMARK  status: ('A' for Active; 'I' for Inactive)
REMARK    1  A    between atoms: O_2  and  C_3
REMARK    2  A    between atoms: C_8  and  N_9
REMARK    3  A    between atoms: C_10  and  C_12
REMARK    4  A    between atoms: C_13  and  N_14
REMARK    5  A    between atoms: C_15  and  C_17
REMARK    6  A    between atoms: C_17  and  C_18
REMARK                            x       y       z     vdW  Elec       q    Type
REMARK                         _______ _______ _______ _____ _____    ______ ____
ROOT
ATOM      1  C   UNL     1      40.198  -0.825  14.312  0.00  0.00    +0.000 A 
ATOM      2  C   UNL     1      40.185   0.525  14.315  0.00  0.00    +0.000 A 
ATOM      3  S   UNL     1      41.571   0.879  13.264  0.00  0.00    +0.000 S 
ATOM      4  C   UNL     1      42.051  -0.698  12.923  0.00  0.00    +0.000 A 
ATOM      5  C   UNL     1      41.153  -1.467  13.606  0.00  0.00    +0.000 A 
ATOM      6  C   UNL     1      41.252  -2.993  13.554  0.00  0.00    +0.000 C 
ATOM      7  C   UNL     1      41.754  -3.458  12.236  0.00  0.00    +0.000 C 
ATOM      8  C   UNL     1      41.484  -2.494  11.107  0.00  0.00    +0.000 C 
ATOM      9  C   UNL     1      42.733  -1.725  10.776  0.00  0.00    +0.000 C 
ATOM     10  C   UNL     1      43.227  -1.073  12.051  0.00  0.00    +0.000 C 
ENDROOT
BRANCH   1  12
ATOM     11  N   UNL     1      37.753  -1.546  14.266  0.00  0.00    +0.000 NA
ATOM     12  C   UNL     1      39.044  -1.602  14.868  0.00  0.00    +0.000 C 
ATOM     13  O   UNL     1      39.129  -2.335  15.871  0.00  0.00    +0.000 OA
BRANCH  11  19
ATOM     14  C   UNL     1      35.950  -1.819  15.884  0.00  0.00    +0.000 A 
ATOM     15  C   UNL     1      34.890  -2.574  16.374  0.00  0.00    +0.000 A 
ATOM     16  C   UNL     1      34.542  -3.753  15.787  0.00  0.00    +0.000 A 
ATOM     17  C   UNL     1      35.231  -4.208  14.710  0.00  0.00    +0.000 A 
ATOM     18  C   UNL     1      36.288  -3.490  14.195  0.00  0.00    +0.000 A 
ATOM     19  C   UNL     1      36.648  -2.279  14.795  0.00  0.00    +0.000 A 
BRANCH  14  21
ATOM     20  C   UNL     1      36.401  -0.521  17.859  0.00  0.00    +0.000 C 
ATOM     21  O   UNL     1      36.334  -0.615  16.453  0.00  0.00    +0.000 OA
ENDBRANCH  14  21
ENDBRANCH  11  19
ENDBRANCH   1  12
BRANCH   2  22
ATOM     22  N   UNL     1      39.561   1.555  15.040  0.00  0.00    +0.000 NA
ATOM     23  C   UNL     1      39.120   2.778  14.601  0.00  0.00    +0.000 C 
ATOM     24  O   UNL     1      39.196   3.122  13.395  0.00  0.00    +0.000 OA
BRANCH  23  25
ATOM     25  C   UNL     1      38.504   3.784  15.573  0.00  0.00    +0.000 C 
BRANCH  25  26
ATOM     26  C   UNL     1      37.030   3.704  15.434  0.00  0.00    +0.000 A 
ATOM     27  C   UNL     1      36.368   2.806  16.284  0.00  0.00    +0.000 A 
ATOM     28  C   UNL     1      35.011   2.624  16.247  0.00  0.00    +0.000 A 
ATOM     29  C   UNL     1      34.261   3.362  15.326  0.00  0.00    +0.000 A 
ATOM     30  C   UNL     1      34.897   4.238  14.497  0.00  0.00    +0.000 A 
ATOM     31  C   UNL     1      36.256   4.400  14.557  0.00  0.00    +0.000 A 
ENDBRANCH  25  26
ENDBRANCH  23  25
ENDBRANCH   2  22
TORSDOF 6
ENDMDL
MODEL 9
REMARK VINA RESULT:      -6.6      5.990      8.555
REMARK  Name = 
REMARK  6 active torsions:
REMARK  status: ('A' for Active; 'I' for Inactive)
REMARK    1  A    between atoms: O_2  and  C_3
REMARK    2  A    between atoms: C_8  and  N_9
REMARK    3  A    between atoms: C_10  and  C_12
REMARK    4  A    between atoms: C_13  and  N_14
REMARK    5  A    between atoms: C_15  and  C_17
REMARK    6  A    between atoms: C_17  and  C_18
REMARK                            x       y       z     vdW  Elec       q    Type
REMARK                         _______ _______ _______ _____ _____    ______ ____
ROOT
ATOM      1  C   UNL     1      35.811   9.385  16.136  0.00  0.00    +0.000 A 
ATOM      2  C   UNL     1      35.291   8.764  15.055  0.00  0.00    +0.000 A 
ATOM      3  S   UNL     1      34.165  10.002  14.463  0.00  0.00    +0.000 S 
ATOM      4  C   UNL     1      34.437  11.184  15.630  0.00  0.00    +0.000 A 
ATOM      5  C   UNL     1      35.379  10.625  16.447  0.00  0.00    +0.000 A 
ATOM      6  C   UNL     1      35.902  11.399  17.658  0.00  0.00    +0.000 C 
ATOM      7  C   UNL     1      35.947  12.859  17.390  0.00  0.00    +0.000 C 
ATOM      8  C   UNL     1      36.072  13.205  15.926  0.00  0.00    +0.000 C 
ATOM      9  C   UNL     1      34.736  13.629  15.381  0.00  0.00    +0.000 C 
ATOM     10  C   UNL     1      33.743  12.525  15.680  0.00  0.00    +0.000 C 
ENDROOT
BRANCH   1  12
ATOM     11  N   UNL     1      36.881   8.013  17.999  0.00  0.00    +0.000 NA
ATOM     12  C   UNL     1      37.012   8.825  16.835  0.00  0.00    +0.000 C 
ATOM     13  O   UNL     1      38.182   9.025  16.457  0.00  0.00    +0.000 OA
BRANCH  11  19
ATOM     14  C   UNL     1      38.525   8.089  19.798  0.00  0.00    +0.000 A 
ATOM     15  C   UNL     1      39.646   7.545  20.413  0.00  0.00    +0.000 A 
ATOM     16  C   UNL     1      40.244   6.427  19.915  0.00  0.00    +0.000 A 
ATOM     17  C   UNL     1      39.747   5.827  18.804  0.00  0.00    +0.000 A 
ATOM     18  C   UNL     1      38.638   6.335  18.164  0.00  0.00    +0.000 A 
ATOM     19  C   UNL     1      38.022   7.482  18.673  0.00  0.00    +0.000 A 
BRANCH  14  21
ATOM     20  C   UNL     1      38.623  10.128  21.071  0.00  0.00    +0.000 C 
ATOM     21  O   UNL     1      37.889   9.224  20.275  0.00  0.00    +0.000 OA
ENDBRANCH  14  21
ENDBRANCH  11  19
ENDBRANCH   1  12
BRANCH   2  22
ATOM     22  N   UNL     1      35.272   7.468  14.512  0.00  0.00    +0.000 NA
ATOM     23  C   UNL     1      36.246   6.811  13.803  0.00  0.00    +0.000 C 
ATOM     24  O   UNL     1      37.369   7.326  13.578  0.00  0.00    +0.000 OA
BRANCH  23  25
ATOM     25  C   UNL     1      36.003   5.405  13.254  0.00  0.00    +0.000 C 
BRANCH  25  26
ATOM     26  C   UNL     1      35.917   4.478  14.408  0.00  0.00    +0.000 A 
ATOM     27  C   UNL     1      37.079   4.328  15.179  0.00  0.00    +0.000 A 
ATOM     28  C   UNL     1      37.139   3.490  16.262  0.00  0.00    +0.000 A 
ATOM     29  C   UNL     1      35.997   2.759  16.607  0.00  0.00    +0.000 A 
ATOM     30  C   UNL     1      34.864   2.900  15.863  0.00  0.00    +0.000 A 
ATOM     31  C   UNL     1      34.833   3.746  14.785  0.00  0.00    +0.000 A 
ENDBRANCH  25  26
ENDBRANCH  23  25
ENDBRANCH   2  22
TORSDOF 6
ENDMDL
MODEL 10
REMARK VINA RESULT:      -6.5      1.913      6.684
REMARK  Name = 
REMARK  6 active torsions:
REMARK  status: ('A' for Active; 'I' for Inactive)
REMARK    1  A    between atoms: O_2  and  C_3
REMARK    2  A    between atoms: C_8  and  N_9
REMARK    3  A    between atoms: C_10  and  C_12
REMARK    4  A    between atoms: C_13  and  N_14
REMARK    5  A    between atoms: C_15  and  C_17
REMARK    6  A    between atoms: C_17  and  C_18
REMARK                            x       y       z     vdW  Elec       q    Type
REMARK                         _______ _______ _______ _____ _____    ______ ____
ROOT
ATOM      1  C   UNL     1      36.686   0.781  15.133  0.00  0.00    +0.000 A 
ATOM      2  C   UNL     1      36.015   1.948  15.040  0.00  0.00    +0.000 A 
ATOM      3  S   UNL     1      34.850   1.775  16.367  0.00  0.00    +0.000 S 
ATOM      4  C   UNL     1      35.299   0.248  16.914  0.00  0.00    +0.000 A 
ATOM      5  C   UNL     1      36.327  -0.105  16.086  0.00  0.00    +0.000 A 
ATOM      6  C   UNL     1      37.023  -1.457  16.258  0.00  0.00    +0.000 C 
ATOM      7  C   UNL     1      37.065  -1.867  17.685  0.00  0.00    +0.000 C 
ATOM      8  C   UNL     1      37.005  -0.710  18.652  0.00  0.00    +0.000 C 
ATOM      9  C   UNL     1      35.618  -0.588  19.223  0.00  0.00    +0.000 C 
ATOM     10  C   UNL     1      34.648  -0.485  18.064  0.00  0.00    +0.000 C 
ENDROOT
BRANCH   1  12
ATOM     11  N   UNL     1      39.225   0.893  14.929  0.00  0.00    +0.000 NA
ATOM     12  C   UNL     1      37.956   0.565  14.367  0.00  0.00    +0.000 C 
ATOM     13  O   UNL     1      37.992   0.096  13.215  0.00  0.00    +0.000 OA
BRANCH  11  19
ATOM     14  C   UNL     1      41.125  -0.490  14.280  0.00  0.00    +0.000 A 
ATOM     15  C   UNL     1      42.310  -0.631  13.566  0.00  0.00    +0.000 A 
ATOM     16  C   UNL     1      42.788   0.387  12.798  0.00  0.00    +0.000 A 
ATOM     17  C   UNL     1      42.109   1.559  12.720  0.00  0.00    +0.000 A 
ATOM     18  C   UNL     1      40.932   1.739  13.412  0.00  0.00    +0.000 A 
ATOM     19  C   UNL     1      40.438   0.697  14.202  0.00  0.00    +0.000 A 
BRANCH  14  21
ATOM     20  C   UNL     1      40.868  -2.841  14.718  0.00  0.00    +0.000 C 
ATOM     21  O   UNL     1      40.606  -1.502  15.072  0.00  0.00    +0.000 OA
ENDBRANCH  14  21
ENDBRANCH  11  19
ENDBRANCH   1  12
BRANCH   2  22
ATOM     22  N   UNL     1      35.895   3.007  14.123  0.00  0.00    +0.000 NA
ATOM     23  C   UNL     1      36.364   4.293  14.218  0.00  0.00    +0.000 C 
ATOM     24  O   UNL     1      37.043   4.685  15.200  0.00  0.00    +0.000 OA
BRANCH  23  25
ATOM     25  C   UNL     1      36.082   5.314  13.117  0.00  0.00    +0.000 C 
BRANCH  25  26
ATOM     26  C   UNL     1      35.517   6.526  13.757  0.00  0.00    +0.000 A 
ATOM     27  C   UNL     1      34.146   6.499  14.050  0.00  0.00    +0.000 A 
ATOM     28  C   UNL     1      33.496   7.559  14.626  0.00  0.00    +0.000 A 
ATOM     29  C   UNL     1      34.231   8.708  14.931  0.00  0.00    +0.000 A 
ATOM     30  C   UNL     1      35.564   8.743  14.650  0.00  0.00    +0.000 A 
ATOM     31  C   UNL     1      36.188   7.667  14.073  0.00  0.00    +0.000 A 
ENDBRANCH  25  26
ENDBRANCH  23  25
ENDBRANCH   2  22
TORSDOF 6
ENDMDL
