MODEL 1
REMARK VINA RESULT:      -7.6      0.000      0.000
REMARK  Name = 
REMARK  6 active torsions:
REMARK  status: ('A' for Active; 'I' for Inactive)
REMARK    1  A    between atoms: C_2  and  C_4
REMARK    2  A    between atoms: C_4  and  C_5
REMARK    3  A    between atoms: C_5  and  N_6
REMARK    4  A    between atoms: C_7  and  C_9
REMARK    5  A    between atoms: C_14  and  C_15
REMARK    6  A    between atoms: C_21  and  C_22
REMARK                            x       y       z     vdW  Elec       q    Type
REMARK                         _______ _______ _______ _____ _____    ______ ____
ROOT
ATOM      1  C   UNL     1      35.680   3.642  14.410  0.00  0.00    +0.000 A 
ATOM      2  C   UNL     1      34.899   3.131  15.422  0.00  0.00    +0.000 A 
ATOM      3  C   UNL     1      35.125   1.901  15.988  0.00  0.00    +0.000 A 
ATOM      4  C   UNL     1      36.173   1.137  15.533  0.00  0.00    +0.000 A 
ATOM      5  N   UNL     1      36.446  -0.079  16.050  0.00  0.00    +0.000 NA
ATOM      6  C   UNL     1      37.482  -0.795  15.577  0.00  0.00    +0.000 A 
ATOM      7  C   UNL     1      38.300  -0.344  14.569  0.00  0.00    +0.000 A 
ATOM      8  N   UNL     1      38.016   0.868  14.064  0.00  0.00    +0.000 NA
ATOM      9  C   UNL     1      36.974   1.618  14.522  0.00  0.00    +0.000 A 
ATOM     10  C   UNL     1      36.729   2.871  13.958  0.00  0.00    +0.000 A 
ENDROOT
BRANCH   6  11
ATOM     11  C   UNL     1      37.699  -2.100  16.200  0.00  0.00    +0.000 A 
ATOM     12  C   UNL     1      37.040  -3.202  15.728  0.00  0.00    +0.000 A 
ATOM     13  C   UNL     1      37.228  -4.460  16.301  0.00  0.00    +0.000 A 
ATOM     14  C   UNL     1      38.086  -4.641  17.364  0.00  0.00    +0.000 A 
ATOM     15  C   UNL     1      38.752  -3.535  17.843  0.00  0.00    +0.000 A 
ATOM     16  C   UNL     1      38.556  -2.290  17.264  0.00  0.00    +0.000 A 
ENDBRANCH   6  11
BRANCH   7  17
ATOM     17  C   UNL     1      39.430  -1.123  14.053  0.00  0.00    +0.000 A 
ATOM     18  C   UNL     1      40.683  -0.984  14.544  0.00  0.00    +0.000 A 
ATOM     19  C   UNL     1      41.713  -1.729  14.034  0.00  0.00    +0.000 A 
ATOM     20  C   UNL     1      41.492  -2.643  13.001  0.00  0.00    +0.000 A 
ATOM     21  C   UNL     1      40.219  -2.793  12.493  0.00  0.00    +0.000 A 
ATOM     22  C   UNL     1      39.216  -2.036  13.023  0.00  0.00    +0.000 A 
ENDBRANCH   7  17
BRANCH   1  24
ATOM     23  N   UNL     1      34.209   5.608  14.223  0.00  0.00    +0.000 NA
ATOM     24  C   UNL     1      35.383   4.980  13.847  0.00  0.00    +0.000 C 
ATOM     25  O   UNL     1      36.179   5.523  13.053  0.00  0.00    +0.000 OA
BRANCH  23  26
ATOM     26  C   UNL     1      33.698   6.850  13.850  0.00  0.00    +0.000 C 
BRANCH  26  27
ATOM     27  C   UNL     1      33.701   7.997  14.744  0.00  0.00    +0.000 C 
BRANCH  27  29
ATOM     28  C   UNL     1      35.980   8.829  14.893  0.00  0.00    +0.000 C 
ATOM     29  C   UNL     1      34.571   9.142  14.388  0.00  0.00    +0.000 C 
ATOM     30  C   UNL     1      34.101  10.458  14.943  0.00  0.00    +0.000 C 
ENDBRANCH  27  29
ENDBRANCH  26  27
ENDBRANCH  23  26
ENDBRANCH   1  24
TORSDOF 6
ENDMDL
MODEL 2
REMARK VINA RESULT:      -7.6      1.709      2.136
REMARK  Name = 
REMARK  6 active torsions:
REMARK  status: ('A' for Active; 'I' for Inactive)
REMARK    1  A    between atoms: C_2  and  C_4
REMARK    2  A    between atoms: C_4  and  C_5
REMARK    3  A    between atoms: C_5  and  N_6
REMARK    4  A    between atoms: C_7  and  C_9
REMARK    5  A    between atoms: C_14  and  C_15
REMARK    6  A    between atoms: C_21  and  C_22
REMARK                            x       y       z     vdW  Elec       q    Type
REMARK                         _______ _______ _______ _____ _____    ______ ____
ROOT
ATOM      1  C   UNL     1      35.621   3.370  14.564  0.00  0.00    +0.000 A 
ATOM      2  C   UNL     1      34.873   2.874  15.608  0.00  0.00    +0.000 A 
ATOM      3  C   UNL     1      35.127   1.660  16.194  0.00  0.00    +0.000 A 
ATOM      4  C   UNL     1      36.171   0.896  15.728  0.00  0.00    +0.000 A 
ATOM      5  N   UNL     1      36.471  -0.305  16.265  0.00  0.00    +0.000 NA
ATOM      6  C   UNL     1      37.502  -1.021  15.780  0.00  0.00    +0.000 A 
ATOM      7  C   UNL     1      38.288  -0.584  14.741  0.00  0.00    +0.000 A 
ATOM      8  N   UNL     1      37.977   0.613  14.217  0.00  0.00    +0.000 NA
ATOM      9  C   UNL     1      36.940   1.362  14.686  0.00  0.00    +0.000 A 
ATOM     10  C   UNL     1      36.666   2.600  14.101  0.00  0.00    +0.000 A 
ENDROOT
BRANCH   6  11
ATOM     11  C   UNL     1      37.749  -2.309  16.425  0.00  0.00    +0.000 A 
ATOM     12  C   UNL     1      38.474  -2.366  17.585  0.00  0.00    +0.000 A 
ATOM     13  C   UNL     1      38.725  -3.579  18.226  0.00  0.00    +0.000 A 
ATOM     14  C   UNL     1      38.252  -4.769  17.715  0.00  0.00    +0.000 A 
ATOM     15  C   UNL     1      37.522  -4.717  16.548  0.00  0.00    +0.000 A 
ATOM     16  C   UNL     1      37.280  -3.504  15.921  0.00  0.00    +0.000 A 
ENDBRANCH   6  11
BRANCH   7  17
ATOM     17  C   UNL     1      39.412  -1.364  14.211  0.00  0.00    +0.000 A 
ATOM     18  C   UNL     1      40.634  -1.345  14.791  0.00  0.00    +0.000 A 
ATOM     19  C   UNL     1      41.660  -2.085  14.266  0.00  0.00    +0.000 A 
ATOM     20  C   UNL     1      41.466  -2.871  13.127  0.00  0.00    +0.000 A 
ATOM     21  C   UNL     1      40.224  -2.896  12.528  0.00  0.00    +0.000 A 
ATOM     22  C   UNL     1      39.225  -2.147  13.076  0.00  0.00    +0.000 A 
ENDBRANCH   7  17
BRANCH   1  24
ATOM     23  N   UNL     1      35.986   5.102  12.851  0.00  0.00    +0.000 NA
ATOM     24  C   UNL     1      35.296   4.693  13.979  0.00  0.00    +0.000 C 
ATOM     25  O   UNL     1      34.418   5.414  14.497  0.00  0.00    +0.000 OA
BRANCH  23  26
ATOM     26  C   UNL     1      35.876   6.280  12.113  0.00  0.00    +0.000 C 
BRANCH  26  27
ATOM     27  C   UNL     1      35.582   6.283  10.689  0.00  0.00    +0.000 C 
BRANCH  27  29
ATOM     28  C   UNL     1      35.155   8.559   9.953  0.00  0.00    +0.000 C 
ATOM     29  C   UNL     1      34.517   7.194  10.210  0.00  0.00    +0.000 C 
ATOM     30  C   UNL     1      33.362   7.331  11.163  0.00  0.00    +0.000 C 
ENDBRANCH  27  29
ENDBRANCH  26  27
ENDBRANCH  23  26
ENDBRANCH   1  24
TORSDOF 6
ENDMDL
MODEL 3
REMARK VINA RESULT:      -7.4      2.805      3.454
REMARK  Name = 
REMARK  6 active torsions:
REMARK  status: ('A' for Active; 'I' for Inactive)
REMARK    1  A    between atoms: C_2  and  C_4
REMARK    2  A    between atoms: C_4  and  C_5
REMARK    3  A    between atoms: C_5  and  N_6
REMARK    4  A    between atoms: C_7  and  C_9
REMARK    5  A    between atoms: C_14  and  C_15
REMARK    6  A    between atoms: C_21  and  C_22
REMARK                            x       y       z     vdW  Elec       q    Type
REMARK                         _______ _______ _______ _____ _____    ______ ____
ROOT
ATOM      1  C   UNL     1      37.413   3.952  15.849  0.00  0.00    +0.000 A 
ATOM      2  C   UNL     1      36.304   3.486  16.519  0.00  0.00    +0.000 A 
ATOM      3  C   UNL     1      35.988   2.153  16.598  0.00  0.00    +0.000 A 
ATOM      4  C   UNL     1      36.807   1.233  15.985  0.00  0.00    +0.000 A 
ATOM      5  N   UNL     1      36.549  -0.090  16.029  0.00  0.00    +0.000 NA
ATOM      6  C   UNL     1      37.376  -0.958  15.416  0.00  0.00    +0.000 A 
ATOM      7  C   UNL     1      38.499  -0.559  14.732  0.00  0.00    +0.000 A 
ATOM      8  N   UNL     1      38.742   0.762  14.698  0.00  0.00    +0.000 NA
ATOM      9  C   UNL     1      37.924   1.666  15.307  0.00  0.00    +0.000 A 
ATOM     10  C   UNL     1      38.229   3.026  15.238  0.00  0.00    +0.000 A 
ENDROOT
BRANCH   6  11
ATOM     11  C   UNL     1      37.015  -2.370  15.519  0.00  0.00    +0.000 A 
ATOM     12  C   UNL     1      37.552  -3.144  16.512  0.00  0.00    +0.000 A 
ATOM     13  C   UNL     1      37.224  -4.494  16.637  0.00  0.00    +0.000 A 
ATOM     14  C   UNL     1      36.347  -5.102  15.764  0.00  0.00    +0.000 A 
ATOM     15  C   UNL     1      35.805  -4.328  14.762  0.00  0.00    +0.000 A 
ATOM     16  C   UNL     1      36.138  -2.986  14.650  0.00  0.00    +0.000 A 
ENDBRANCH   6  11
BRANCH   7  17
ATOM     17  C   UNL     1      39.401  -1.503  14.065  0.00  0.00    +0.000 A 
ATOM     18  C   UNL     1      40.511  -1.986  14.670  0.00  0.00    +0.000 A 
ATOM     19  C   UNL     1      41.330  -2.865  14.013  0.00  0.00    +0.000 A 
ATOM     20  C   UNL     1      41.038  -3.280  12.712  0.00  0.00    +0.000 A 
ATOM     21  C   UNL     1      39.910  -2.794  12.085  0.00  0.00    +0.000 A 
ATOM     22  C   UNL     1      39.116  -1.919  12.767  0.00  0.00    +0.000 A 
ENDBRANCH   7  17
BRANCH   1  24
ATOM     23  N   UNL     1      38.208   6.010  16.945  0.00  0.00    +0.000 NA
ATOM     24  C   UNL     1      37.699   5.406  15.808  0.00  0.00    +0.000 C 
ATOM     25  O   UNL     1      37.484   6.064  14.769  0.00  0.00    +0.000 OA
BRANCH  23  26
ATOM     26  C   UNL     1      38.561   7.340  17.170  0.00  0.00    +0.000 C 
BRANCH  26  27
ATOM     27  C   UNL     1      39.447   7.740  18.252  0.00  0.00    +0.000 C 
BRANCH  27  29
ATOM     28  C   UNL     1      38.840   8.022  20.588  0.00  0.00    +0.000 C 
ATOM     29  C   UNL     1      39.324   7.019  19.541  0.00  0.00    +0.000 C 
ATOM     30  C   UNL     1      40.601   6.368  19.996  0.00  0.00    +0.000 C 
ENDBRANCH  27  29
ENDBRANCH  26  27
ENDBRANCH  23  26
ENDBRANCH   1  24
TORSDOF 6
ENDMDL
MODEL 4
REMARK VINA RESULT:      -7.4      3.772      9.211
REMARK  Name = 
REMARK  6 active torsions:
REMARK  status: ('A' for Active; 'I' for Inactive)
REMARK    1  A    between atoms: C_2  and  C_4
REMARK    2  A    between atoms: C_4  and  C_5
REMARK    3  A    between atoms: C_5  and  N_6
REMARK    4  A    between atoms: C_7  and  C_9
REMARK    5  A    between atoms: C_14  and  C_15
REMARK    6  A    between atoms: C_21  and  C_22
REMARK                            x       y       z     vdW  Elec       q    Type
REMARK                         _______ _______ _______ _____ _____    ______ ____
ROOT
ATOM      1  C   UNL     1      36.051   1.253  15.586  0.00  0.00    +0.000 A 
ATOM      2  C   UNL     1      35.395   2.021  14.651  0.00  0.00    +0.000 A 
ATOM      3  C   UNL     1      35.654   3.357  14.471  0.00  0.00    +0.000 A 
ATOM      4  C   UNL     1      36.606   3.966  15.254  0.00  0.00    +0.000 A 
ATOM      5  N   UNL     1      36.905   5.275  15.123  0.00  0.00    +0.000 NA
ATOM      6  C   UNL     1      37.845   5.833  15.908  0.00  0.00    +0.000 A 
ATOM      7  C   UNL     1      38.536   5.123  16.860  0.00  0.00    +0.000 A 
ATOM      8  N   UNL     1      38.227   3.821  16.978  0.00  0.00    +0.000 NA
ATOM      9  C   UNL     1      37.281   3.227  16.198  0.00  0.00    +0.000 A 
ATOM     10  C   UNL     1      37.005   1.869  16.367  0.00  0.00    +0.000 A 
ENDROOT
BRANCH   6  11
ATOM     11  C   UNL     1      38.100   7.256  15.692  0.00  0.00    +0.000 A 
ATOM     12  C   UNL     1      38.875   7.661  14.640  0.00  0.00    +0.000 A 
ATOM     13  C   UNL     1      39.134   9.012  14.407  0.00  0.00    +0.000 A 
ATOM     14  C   UNL     1      38.619   9.991  15.229  0.00  0.00    +0.000 A 
ATOM     15  C   UNL     1      37.838   9.589  16.289  0.00  0.00    +0.000 A 
ATOM     16  C   UNL     1      37.588   8.242  16.509  0.00  0.00    +0.000 A 
ENDBRANCH   6  11
BRANCH   7  17
ATOM     17  C   UNL     1      39.561   5.730  17.716  0.00  0.00    +0.000 A 
ATOM     18  C   UNL     1      40.797   6.031  17.253  0.00  0.00    +0.000 A 
ATOM     19  C   UNL     1      41.728   6.595  18.085  0.00  0.00    +0.000 A 
ATOM     20  C   UNL     1      41.423   6.870  19.419  0.00  0.00    +0.000 A 
ATOM     21  C   UNL     1      40.166   6.567  19.901  0.00  0.00    +0.000 A 
ATOM     22  C   UNL     1      39.263   6.006  19.047  0.00  0.00    +0.000 A 
ENDBRANCH   7  17
BRANCH   1  24
ATOM     23  N   UNL     1      36.441  -1.099  14.967  0.00  0.00    +0.000 NA
ATOM     24  C   UNL     1      35.726  -0.187  15.725  0.00  0.00    +0.000 C 
ATOM     25  O   UNL     1      34.830  -0.561  16.509  0.00  0.00    +0.000 OA
BRANCH  23  26
ATOM     26  C   UNL     1      36.340  -2.488  14.908  0.00  0.00    +0.000 C 
BRANCH  26  27
ATOM     27  C   UNL     1      37.214  -3.367  15.668  0.00  0.00    +0.000 C 
BRANCH  27  29
ATOM     28  C   UNL     1      39.581  -2.912  15.357  0.00  0.00    +0.000 C 
ATOM     29  C   UNL     1      38.400  -2.761  16.317  0.00  0.00    +0.000 C 
ATOM     30  C   UNL     1      38.736  -3.363  17.653  0.00  0.00    +0.000 C 
ENDBRANCH  27  29
ENDBRANCH  26  27
ENDBRANCH  23  26
ENDBRANCH   1  24
TORSDOF 6
ENDMDL
MODEL 5
REMARK VINA RESULT:      -7.3     26.479     30.607
REMARK  Name = 
REMARK  6 active torsions:
REMARK  status: ('A' for Active; 'I' for Inactive)
REMARK    1  A    between atoms: C_2  and  C_4
REMARK    2  A    between atoms: C_4  and  C_5
REMARK    3  A    between atoms: C_5  and  N_6
REMARK    4  A    between atoms: C_7  and  C_9
REMARK    5  A    between atoms: C_14  and  C_15
REMARK    6  A    between atoms: C_21  and  C_22
REMARK                            x       y       z     vdW  Elec       q    Type
REMARK                         _______ _______ _______ _____ _____    ______ ____
ROOT
ATOM      1  C   UNL     1      24.012  15.445  40.920  0.00  0.00    +0.000 A 
ATOM      2  C   UNL     1      25.277  15.700  41.399  0.00  0.00    +0.000 A 
ATOM      3  C   UNL     1      26.353  15.925  40.577  0.00  0.00    +0.000 A 
ATOM      4  C   UNL     1      26.172  15.896  39.214  0.00  0.00    +0.000 A 
ATOM      5  N   UNL     1      27.190  16.111  38.356  0.00  0.00    +0.000 NA
ATOM      6  C   UNL     1      26.971  16.075  37.029  0.00  0.00    +0.000 A 
ATOM      7  C   UNL     1      25.734  15.827  36.485  0.00  0.00    +0.000 A 
ATOM      8  N   UNL     1      24.730  15.615  37.353  0.00  0.00    +0.000 NA
ATOM      9  C   UNL     1      24.920  15.645  38.702  0.00  0.00    +0.000 A 
ATOM     10  C   UNL     1      23.837  15.419  39.554  0.00  0.00    +0.000 A 
ENDROOT
BRANCH   6  11
ATOM     11  C   UNL     1      28.135  16.320  36.179  0.00  0.00    +0.000 A 
ATOM     12  C   UNL     1      28.949  15.281  35.816  0.00  0.00    +0.000 A 
ATOM     13  C   UNL     1      30.065  15.483  35.004  0.00  0.00    +0.000 A 
ATOM     14  C   UNL     1      30.392  16.738  34.536  0.00  0.00    +0.000 A 
ATOM     15  C   UNL     1      29.576  17.786  34.898  0.00  0.00    +0.000 A 
ATOM     16  C   UNL     1      28.469  17.571  35.706  0.00  0.00    +0.000 A 
ENDBRANCH   6  11
BRANCH   7  17
ATOM     17  C   UNL     1      25.493  15.788  35.039  0.00  0.00    +0.000 A 
ATOM     18  C   UNL     1      25.086  16.879  34.349  0.00  0.00    +0.000 A 
ATOM     19  C   UNL     1      24.870  16.802  32.999  0.00  0.00    +0.000 A 
ATOM     20  C   UNL     1      25.065  15.603  32.310  0.00  0.00    +0.000 A 
ATOM     21  C   UNL     1      25.480  14.486  33.003  0.00  0.00    +0.000 A 
ATOM     22  C   UNL     1      25.686  14.595  34.347  0.00  0.00    +0.000 A 
ENDBRANCH   7  17
BRANCH   1  24
ATOM     23  N   UNL     1      21.718  14.671  41.374  0.00  0.00    +0.000 NA
ATOM     24  C   UNL     1      22.893  15.217  41.864  0.00  0.00    +0.000 C 
ATOM     25  O   UNL     1      23.013  15.510  43.071  0.00  0.00    +0.000 OA
BRANCH  23  26
ATOM     26  C   UNL     1      20.533  14.357  42.036  0.00  0.00    +0.000 C 
BRANCH  26  27
ATOM     27  C   UNL     1      19.924  13.038  41.964  0.00  0.00    +0.000 C 
BRANCH  27  29
ATOM     28  C   UNL     1      19.295  11.518  43.752  0.00  0.00    +0.000 C 
ATOM     29  C   UNL     1      18.846  12.727  42.931  0.00  0.00    +0.000 C 
ATOM     30  C   UNL     1      17.514  12.453  42.289  0.00  0.00    +0.000 C 
ENDBRANCH  27  29
ENDBRANCH  26  27
ENDBRANCH  23  26
ENDBRANCH   1  24
TORSDOF 6
ENDMDL
MODEL 6
REMARK VINA RESULT:      -7.1      1.943      4.137
REMARK  Name = 
REMARK  6 active torsions:
REMARK  status: ('A' for Active; 'I' for Inactive)
REMARK    1  A    between atoms: C_2  and  C_4
REMARK    2  A    between atoms: C_4  and  C_5
REMARK    3  A    between atoms: C_5  and  N_6
REMARK    4  A    between atoms: C_7  and  C_9
REMARK    5  A    between atoms: C_14  and  C_15
REMARK    6  A    between atoms: C_21  and  C_22
REMARK                            x       y       z     vdW  Elec       q    Type
REMARK                         _______ _______ _______ _____ _____    ______ ____
ROOT
ATOM      1  C   UNL     1      35.281   5.633  13.361  0.00  0.00    +0.000 A 
ATOM      2  C   UNL     1      36.217   5.285  12.413  0.00  0.00    +0.000 A 
ATOM      3  C   UNL     1      36.898   4.094  12.443  0.00  0.00    +0.000 A 
ATOM      4  C   UNL     1      36.644   3.202  13.458  0.00  0.00    +0.000 A 
ATOM      5  N   UNL     1      37.281   2.015  13.539  0.00  0.00    +0.000 NA
ATOM      6  C   UNL     1      37.003   1.170  14.549  0.00  0.00    +0.000 A 
ATOM      7  C   UNL     1      36.080   1.456  15.526  0.00  0.00    +0.000 A 
ATOM      8  N   UNL     1      35.455   2.641  15.431  0.00  0.00    +0.000 NA
ATOM      9  C   UNL     1      35.715   3.519  14.422  0.00  0.00    +0.000 A 
ATOM     10  C   UNL     1      35.031   4.735  14.375  0.00  0.00    +0.000 A 
ENDROOT
BRANCH   6  11
ATOM     11  C   UNL     1      37.743  -0.091  14.552  0.00  0.00    +0.000 A 
ATOM     12  C   UNL     1      37.307  -1.143  13.792  0.00  0.00    +0.000 A 
ATOM     13  C   UNL     1      37.993  -2.357  13.773  0.00  0.00    +0.000 A 
ATOM     14  C   UNL     1      39.136  -2.545  14.520  0.00  0.00    +0.000 A 
ATOM     15  C   UNL     1      39.578  -1.490  15.287  0.00  0.00    +0.000 A 
ATOM     16  C   UNL     1      38.887  -0.287  15.296  0.00  0.00    +0.000 A 
ENDBRANCH   6  11
BRANCH   7  17
ATOM     17  C   UNL     1      35.776   0.535  16.626  0.00  0.00    +0.000 A 
ATOM     18  C   UNL     1      35.065  -0.601  16.436  0.00  0.00    +0.000 A 
ATOM     19  C   UNL     1      34.800  -1.435  17.490  0.00  0.00    +0.000 A 
ATOM     20  C   UNL     1      35.254  -1.132  18.775  0.00  0.00    +0.000 A 
ATOM     21  C   UNL     1      35.979   0.023  18.980  0.00  0.00    +0.000 A 
ATOM     22  C   UNL     1      36.226   0.832  17.910  0.00  0.00    +0.000 A 
ENDBRANCH   7  17
BRANCH   1  24
ATOM     23  N   UNL     1      34.361   7.652  14.431  0.00  0.00    +0.000 NA
ATOM     24  C   UNL     1      34.577   6.934  13.267  0.00  0.00    +0.000 C 
ATOM     25  O   UNL     1      34.192   7.366  12.161  0.00  0.00    +0.000 OA
BRANCH  23  26
ATOM     26  C   UNL     1      33.736   8.884  14.619  0.00  0.00    +0.000 C 
BRANCH  26  27
ATOM     27  C   UNL     1      34.388   9.994  15.296  0.00  0.00    +0.000 C 
BRANCH  27  29
ATOM     28  C   UNL     1      34.949  10.988  17.441  0.00  0.00    +0.000 C 
ATOM     29  C   UNL     1      33.806  10.451  16.580  0.00  0.00    +0.000 C 
ATOM     30  C   UNL     1      33.054   9.380  17.321  0.00  0.00    +0.000 C 
ENDBRANCH  27  29
ENDBRANCH  26  27
ENDBRANCH  23  26
ENDBRANCH   1  24
TORSDOF 6
ENDMDL
MODEL 7
REMARK VINA RESULT:      -7.1      4.179      9.150
REMARK  Name = 
REMARK  6 active torsions:
REMARK  status: ('A' for Active; 'I' for Inactive)
REMARK    1  A    between atoms: C_2  and  C_4
REMARK    2  A    between atoms: C_4  and  C_5
REMARK    3  A    between atoms: C_5  and  N_6
REMARK    4  A    between atoms: C_7  and  C_9
REMARK    5  A    between atoms: C_14  and  C_15
REMARK    6  A    between atoms: C_21  and  C_22
REMARK                            x       y       z     vdW  Elec       q    Type
REMARK                         _______ _______ _______ _____ _____    ______ ____
ROOT
ATOM      1  C   UNL     1      36.843   2.498  14.363  0.00  0.00    +0.000 A 
ATOM      2  C   UNL     1      36.096   3.509  13.801  0.00  0.00    +0.000 A 
ATOM      3  C   UNL     1      36.241   4.827  14.157  0.00  0.00    +0.000 A 
ATOM      4  C   UNL     1      37.169   5.164  15.114  0.00  0.00    +0.000 A 
ATOM      5  N   UNL     1      37.358   6.442  15.503  0.00  0.00    +0.000 NA
ATOM      6  C   UNL     1      38.278   6.730  16.443  0.00  0.00    +0.000 A 
ATOM      7  C   UNL     1      39.056   5.769  17.043  0.00  0.00    +0.000 A 
ATOM      8  N   UNL     1      38.855   4.502  16.644  0.00  0.00    +0.000 NA
ATOM      9  C   UNL     1      37.932   4.178  15.695  0.00  0.00    +0.000 A 
ATOM     10  C   UNL     1      37.771   2.843  15.321  0.00  0.00    +0.000 A 
ENDROOT
BRANCH   6  11
ATOM     11  C   UNL     1      38.411   8.142  16.799  0.00  0.00    +0.000 A 
ATOM     12  C   UNL     1      37.584   8.691  17.741  0.00  0.00    +0.000 A 
ATOM     13  C   UNL     1      37.689  10.034  18.104  0.00  0.00    +0.000 A 
ATOM     14  C   UNL     1      38.630  10.860  17.527  0.00  0.00    +0.000 A 
ATOM     15  C   UNL     1      39.464  10.312  16.578  0.00  0.00    +0.000 A 
ATOM     16  C   UNL     1      39.349   8.975  16.227  0.00  0.00    +0.000 A 
ENDBRANCH   6  11
BRANCH   7  17
ATOM     17  C   UNL     1      40.058   6.082  18.066  0.00  0.00    +0.000 A 
ATOM     18  C   UNL     1      39.733   6.211  19.374  0.00  0.00    +0.000 A 
ATOM     19  C   UNL     1      40.698   6.506  20.300  0.00  0.00    +0.000 A 
ATOM     20  C   UNL     1      42.029   6.680  19.917  0.00  0.00    +0.000 A 
ATOM     21  C   UNL     1      42.371   6.551  18.587  0.00  0.00    +0.000 A 
ATOM     22  C   UNL     1      41.387   6.257  17.690  0.00  0.00    +0.000 A 
ENDBRANCH   7  17
BRANCH   1  24
ATOM     23  N   UNL     1      36.693   0.096  14.885  0.00  0.00    +0.000 NA
ATOM     24  C   UNL     1      36.639   1.096  13.929  0.00  0.00    +0.000 C 
ATOM     25  O   UNL     1      36.424   0.830  12.729  0.00  0.00    +0.000 OA
BRANCH  23  26
ATOM     26  C   UNL     1      36.536  -1.282  14.749  0.00  0.00    +0.000 C 
BRANCH  26  27
ATOM     27  C   UNL     1      35.932  -2.106  15.784  0.00  0.00    +0.000 C 
BRANCH  27  29
ATOM     28  C   UNL     1      36.307  -1.806  18.166  0.00  0.00    +0.000 C 
ATOM     29  C   UNL     1      35.411  -1.419  16.990  0.00  0.00    +0.000 C 
ATOM     30  C   UNL     1      33.976  -1.743  17.300  0.00  0.00    +0.000 C 
ENDBRANCH  27  29
ENDBRANCH  26  27
ENDBRANCH  23  26
ENDBRANCH   1  24
TORSDOF 6
ENDMDL
MODEL 8
REMARK VINA RESULT:      -7.0      5.042      8.347
REMARK  Name = 
REMARK  6 active torsions:
REMARK  status: ('A' for Active; 'I' for Inactive)
REMARK    1  A    between atoms: C_2  and  C_4
REMARK    2  A    between atoms: C_4  and  C_5
REMARK    3  A    between atoms: C_5  and  N_6
REMARK    4  A    between atoms: C_7  and  C_9
REMARK    5  A    between atoms: C_14  and  C_15
REMARK    6  A    between atoms: C_21  and  C_22
REMARK                            x       y       z     vdW  Elec       q    Type
REMARK                         _______ _______ _______ _____ _____    ______ ____
ROOT
ATOM      1  C   UNL     1      42.392  -1.006  13.463  0.00  0.00    +0.000 A 
ATOM      2  C   UNL     1      42.074  -2.086  12.671  0.00  0.00    +0.000 A 
ATOM      3  C   UNL     1      40.932  -2.827  12.846  0.00  0.00    +0.000 A 
ATOM      4  C   UNL     1      40.060  -2.485  13.853  0.00  0.00    +0.000 A 
ATOM      5  N   UNL     1      38.920  -3.174  14.073  0.00  0.00    +0.000 NA
ATOM      6  C   UNL     1      38.093  -2.807  15.068  0.00  0.00    +0.000 A 
ATOM      7  C   UNL     1      38.351  -1.739  15.894  0.00  0.00    +0.000 A 
ATOM      8  N   UNL     1      39.488  -1.064  15.662  0.00  0.00    +0.000 NA
ATOM      9  C   UNL     1      40.347  -1.411  14.663  0.00  0.00    +0.000 A 
ATOM     10  C   UNL     1      41.513  -0.669  14.470  0.00  0.00    +0.000 A 
ENDROOT
BRANCH   6  11
ATOM     11  C   UNL     1      36.884  -3.613  15.229  0.00  0.00    +0.000 A 
ATOM     12  C   UNL     1      35.732  -3.256  14.582  0.00  0.00    +0.000 A 
ATOM     13  C   UNL     1      34.564  -4.007  14.714  0.00  0.00    +0.000 A 
ATOM     14  C   UNL     1      34.524  -5.138  15.502  0.00  0.00    +0.000 A 
ATOM     15  C   UNL     1      35.681  -5.501  16.155  0.00  0.00    +0.000 A 
ATOM     16  C   UNL     1      36.836  -4.745  16.015  0.00  0.00    +0.000 A 
ENDBRANCH   6  11
BRANCH   7  17
ATOM     17  C   UNL     1      37.449  -1.338  16.979  0.00  0.00    +0.000 A 
ATOM     18  C   UNL     1      37.614  -1.776  18.249  0.00  0.00    +0.000 A 
ATOM     19  C   UNL     1      36.750  -1.380  19.235  0.00  0.00    +0.000 A 
ATOM     20  C   UNL     1      35.686  -0.520  18.952  0.00  0.00    +0.000 A 
ATOM     21  C   UNL     1      35.509  -0.068  17.661  0.00  0.00    +0.000 A 
ATOM     22  C   UNL     1      36.387  -0.482  16.703  0.00  0.00    +0.000 A 
ENDBRANCH   7  17
BRANCH   1  24
ATOM     23  N   UNL     1      44.657  -0.327  14.152  0.00  0.00    +0.000 NA
ATOM     24  C   UNL     1      43.640  -0.246  13.216  0.00  0.00    +0.000 C 
ATOM     25  O   UNL     1      43.764   0.448  12.186  0.00  0.00    +0.000 OA
BRANCH  23  26
ATOM     26  C   UNL     1      45.913   0.276  14.163  0.00  0.00    +0.000 C 
BRANCH  26  27
ATOM     27  C   UNL     1      46.879   0.050  15.226  0.00  0.00    +0.000 C 
BRANCH  27  29
ATOM     28  C   UNL     1      47.881   1.119  17.165  0.00  0.00    +0.000 C 
ATOM     29  C   UNL     1      46.571   0.611  16.563  0.00  0.00    +0.000 C 
ATOM     30  C   UNL     1      45.916  -0.369  17.496  0.00  0.00    +0.000 C 
ENDBRANCH  27  29
ENDBRANCH  26  27
ENDBRANCH  23  26
ENDBRANCH   1  24
TORSDOF 6
ENDMDL
MODEL 9
REMARK VINA RESULT:      -7.0      5.052      8.725
REMARK  Name = 
REMARK  6 active torsions:
REMARK  status: ('A' for Active; 'I' for Inactive)
REMARK    1  A    between atoms: C_2  and  C_4
REMARK    2  A    between atoms: C_4  and  C_5
REMARK    3  A    between atoms: C_5  and  N_6
REMARK    4  A    between atoms: C_7  and  C_9
REMARK    5  A    between atoms: C_14  and  C_15
REMARK    6  A    between atoms: C_21  and  C_22
REMARK                            x       y       z     vdW  Elec       q    Type
REMARK                         _______ _______ _______ _____ _____    ______ ____
ROOT
ATOM      1  C   UNL     1      41.758  -1.366  12.375  0.00  0.00    +0.000 A 
ATOM      2  C   UNL     1      41.916  -0.263  13.183  0.00  0.00    +0.000 A 
ATOM      3  C   UNL     1      41.073   0.020  14.229  0.00  0.00    +0.000 A 
ATOM      4  C   UNL     1      40.023  -0.827  14.492  0.00  0.00    +0.000 A 
ATOM      5  N   UNL     1      39.163  -0.603  15.506  0.00  0.00    +0.000 NA
ATOM      6  C   UNL     1      38.148  -1.457  15.730  0.00  0.00    +0.000 A 
ATOM      7  C   UNL     1      37.934  -2.576  14.962  0.00  0.00    +0.000 A 
ATOM      8  N   UNL     1      38.799  -2.786  13.956  0.00  0.00    +0.000 NA
ATOM      9  C   UNL     1      39.837  -1.939  13.704  0.00  0.00    +0.000 A 
ATOM     10  C   UNL     1      40.703  -2.211  12.644  0.00  0.00    +0.000 A 
ENDROOT
BRANCH   6  11
ATOM     11  C   UNL     1      37.269  -1.131  16.852  0.00  0.00    +0.000 A 
ATOM     12  C   UNL     1      36.174  -0.334  16.655  0.00  0.00    +0.000 A 
ATOM     13  C   UNL     1      35.316  -0.007  17.705  0.00  0.00    +0.000 A 
ATOM     14  C   UNL     1      35.538  -0.474  18.983  0.00  0.00    +0.000 A 
ATOM     15  C   UNL     1      36.639  -1.276  19.186  0.00  0.00    +0.000 A 
ATOM     16  C   UNL     1      37.484  -1.594  18.133  0.00  0.00    +0.000 A 
ENDBRANCH   6  11
BRANCH   7  17
ATOM     17  C   UNL     1      36.828  -3.509  15.205  0.00  0.00    +0.000 A 
ATOM     18  C   UNL     1      35.602  -3.326  14.661  0.00  0.00    +0.000 A 
ATOM     19  C   UNL     1      34.595  -4.218  14.914  0.00  0.00    +0.000 A 
ATOM     20  C   UNL     1      34.809  -5.329  15.734  0.00  0.00    +0.000 A 
ATOM     21  C   UNL     1      36.055  -5.524  16.293  0.00  0.00    +0.000 A 
ATOM     22  C   UNL     1      37.037  -4.617  16.022  0.00  0.00    +0.000 A 
ENDBRANCH   7  17
BRANCH   1  24
ATOM     23  N   UNL     1      42.206  -1.712   9.978  0.00  0.00    +0.000 NA
ATOM     24  C   UNL     1      42.707  -1.615  11.265  0.00  0.00    +0.000 C 
ATOM     25  O   UNL     1      43.929  -1.734  11.492  0.00  0.00    +0.000 OA
BRANCH  23  26
ATOM     26  C   UNL     1      42.870  -1.937   8.774  0.00  0.00    +0.000 C 
BRANCH  26  27
ATOM     27  C   UNL     1      43.013  -3.264   8.196  0.00  0.00    +0.000 C 
BRANCH  27  29
ATOM     28  C   UNL     1      43.212  -5.315   9.484  0.00  0.00    +0.000 C 
ATOM     29  C   UNL     1      42.227  -4.364   8.804  0.00  0.00    +0.000 C 
ATOM     30  C   UNL     1      41.374  -5.116   7.820  0.00  0.00    +0.000 C 
ENDBRANCH  27  29
ENDBRANCH  26  27
ENDBRANCH  23  26
ENDBRANCH   1  24
TORSDOF 6
ENDMDL
MODEL 10
REMARK VINA RESULT:      -7.0     23.856     27.529
REMARK  Name = 
REMARK  6 active torsions:
REMARK  status: ('A' for Active; 'I' for Inactive)
REMARK    1  A    between atoms: C_2  and  C_4
REMARK    2  A    between atoms: C_4  and  C_5
REMARK    3  A    between atoms: C_5  and  N_6
REMARK    4  A    between atoms: C_7  and  C_9
REMARK    5  A    between atoms: C_14  and  C_15
REMARK    6  A    between atoms: C_21  and  C_22
REMARK                            x       y       z     vdW  Elec       q    Type
REMARK                         _______ _______ _______ _____ _____    ______ ____
ROOT
ATOM      1  C   UNL     1      32.522  14.309  36.152  0.00  0.00    +0.000 A 
ATOM      2  C   UNL     1      32.322  14.594  37.484  0.00  0.00    +0.000 A 
ATOM      3  C   UNL     1      31.108  14.993  37.985  0.00  0.00    +0.000 A 
ATOM      4  C   UNL     1      30.039  15.119  37.130  0.00  0.00    +0.000 A 
ATOM      5  N   UNL     1      28.822  15.506  37.564  0.00  0.00    +0.000 NA
ATOM      6  C   UNL     1      27.800  15.616  36.695  0.00  0.00    +0.000 A 
ATOM      7  C   UNL     1      27.932  15.346  35.354  0.00  0.00    +0.000 A 
ATOM      8  N   UNL     1      29.150  14.962  34.938  0.00  0.00    +0.000 NA
ATOM      9  C   UNL     1      30.204  14.841  35.793  0.00  0.00    +0.000 A 
ATOM     10  C   UNL     1      31.446  14.436  35.301  0.00  0.00    +0.000 A 
ENDROOT
BRANCH   6  11
ATOM     11  C   UNL     1      26.520  16.041  37.258  0.00  0.00    +0.000 A 
ATOM     12  C   UNL     1      26.245  17.374  37.402  0.00  0.00    +0.000 A 
ATOM     13  C   UNL     1      25.031  17.811  37.934  0.00  0.00    +0.000 A 
ATOM     14  C   UNL     1      24.063  16.916  38.336  0.00  0.00    +0.000 A 
ATOM     15  C   UNL     1      24.335  15.574  38.193  0.00  0.00    +0.000 A 
ATOM     16  C   UNL     1      25.546  15.153  37.662  0.00  0.00    +0.000 A 
ENDBRANCH   6  11
BRANCH   7  17
ATOM     17  C   UNL     1      26.820  15.465  34.406  0.00  0.00    +0.000 A 
ATOM     18  C   UNL     1      26.139  14.384  33.958  0.00  0.00    +0.000 A 
ATOM     19  C   UNL     1      25.107  14.536  33.071  0.00  0.00    +0.000 A 
ATOM     20  C   UNL     1      24.738  15.802  32.612  0.00  0.00    +0.000 A 
ATOM     21  C   UNL     1      25.425  16.910  33.061  0.00  0.00    +0.000 A 
ATOM     22  C   UNL     1      26.448  16.724  33.944  0.00  0.00    +0.000 A 
ENDBRANCH   7  17
BRANCH   1  24
ATOM     23  N   UNL     1      34.542  12.924  36.413  0.00  0.00    +0.000 NA
ATOM     24  C   UNL     1      33.858  13.877  35.678  0.00  0.00    +0.000 C 
ATOM     25  O   UNL     1      34.348  14.364  34.638  0.00  0.00    +0.000 OA
BRANCH  23  26
ATOM     26  C   UNL     1      35.793  12.350  36.191  0.00  0.00    +0.000 C 
BRANCH  26  27
ATOM     27  C   UNL     1      35.979  10.914  36.050  0.00  0.00    +0.000 C 
BRANCH  27  29
ATOM     28  C   UNL     1      36.470  10.435  38.381  0.00  0.00    +0.000 C 
ATOM     29  C   UNL     1      36.962  10.259  36.944  0.00  0.00    +0.000 C 
ATOM     30  C   UNL     1      38.361  10.794  36.804  0.00  0.00    +0.000 C 
ENDBRANCH  27  29
ENDBRANCH  26  27
ENDBRANCH  23  26
ENDBRANCH   1  24
TORSDOF 6
ENDMDL
