MODEL 1
REMARK VINA RESULT:      -6.2      0.000      0.000
REMARK  Name = 
REMARK  4 active torsions:
REMARK  status: ('A' for Active; 'I' for Inactive)
REMARK    1  A    between atoms: C_6  and  C_7
REMARK    2  A    between atoms: C_10  and  N_11
REMARK    3  A    between atoms: C_12  and  C_14
REMARK    4  A    between atoms: C_19  and  N_20
REMARK                            x       y       z     vdW  Elec       q    Type
REMARK                         _______ _______ _______ _____ _____    ______ ____
ROOT
ATOM      1  N   UNL     1      28.554  22.689  27.187  0.00  0.00    +0.000 NA
ATOM      2  C   UNL     1      28.245  23.796  26.432  0.00  0.00    +0.000 C 
ATOM      3  O   UNL     1      28.558  24.950  26.798  0.00  0.00    +0.000 OA
ENDROOT
BRANCH   1  10
ATOM      4  C   UNL     1      31.510  22.827  27.584  0.00  0.00    +0.000 C 
ATOM      5  C   UNL     1      30.532  22.736  28.705  0.00  0.00    +0.000 A 
ATOM      6  C   UNL     1      31.041  22.700  30.013  0.00  0.00    +0.000 A 
ATOM      7  C   UNL     1      30.197  22.618  31.082  0.00  0.00    +0.000 A 
ATOM      8  C   UNL     1      28.856  22.572  30.809  0.00  0.00    +0.000 A 
ATOM      9  C   UNL     1      28.360  22.607  29.540  0.00  0.00    +0.000 A 
ATOM     10  C   UNL     1      29.191  22.690  28.413  0.00  0.00    +0.000 A 
BRANCH   9  11
ATOM     11  C   UNL     1      26.876  22.574  29.396  0.00  0.00    +0.000 C 
ATOM     12  C   UNL     1      26.283  21.599  30.426  0.00  0.00    +0.000 C 
ATOM     13  C   UNL     1      26.265  23.959  29.686  0.00  0.00    +0.000 C 
ENDBRANCH   9  11
ENDBRANCH   1  10
BRANCH   2  14
ATOM     14  C   UNL     1      27.520  23.696  25.168  0.00  0.00    +0.000 A 
ATOM     15  C   UNL     1      26.144  23.384  25.282  0.00  0.00    +0.000 A 
ATOM     16  C   UNL     1      25.416  23.199  24.159  0.00  0.00    +0.000 A 
ATOM     17  C   UNL     1      25.966  23.306  22.899  0.00  0.00    +0.000 A 
ATOM     18  C   UNL     1      27.288  23.608  22.761  0.00  0.00    +0.000 A 
ATOM     19  C   UNL     1      28.057  23.803  23.934  0.00  0.00    +0.000 A 
BRANCH  19  20
ATOM     20  N   UNL     1      29.429  24.168  23.758  0.00  0.00    +0.000 N 
ATOM     21  O   UNL     1      29.620  25.418  23.575  0.00  0.00    +0.000 OA
ATOM     22  O   UNL     1      30.484  23.342  23.797  0.00  0.00    +0.000 OA
ENDBRANCH  19  20
ENDBRANCH   2  14
TORSDOF 4
ENDMDL
MODEL 2
REMARK VINA RESULT:      -6.0     15.759     18.458
REMARK  Name = 
REMARK  4 active torsions:
REMARK  status: ('A' for Active; 'I' for Inactive)
REMARK    1  A    between atoms: C_6  and  C_7
REMARK    2  A    between atoms: C_10  and  N_11
REMARK    3  A    between atoms: C_12  and  C_14
REMARK    4  A    between atoms: C_19  and  N_20
REMARK                            x       y       z     vdW  Elec       q    Type
REMARK                         _______ _______ _______ _____ _____    ______ ____
ROOT
ATOM      1  N   UNL     1      12.333  23.012  20.437  0.00  0.00    +0.000 NA
ATOM      2  C   UNL     1      11.450  22.239  21.153  0.00  0.00    +0.000 C 
ATOM      3  O   UNL     1      11.310  22.373  22.388  0.00  0.00    +0.000 OA
ENDROOT
BRANCH   1  10
ATOM      4  C   UNL     1      15.084  22.502  21.479  0.00  0.00    +0.000 C 
ATOM      5  C   UNL     1      14.445  23.848  21.466  0.00  0.00    +0.000 A 
ATOM      6  C   UNL     1      15.181  24.924  21.987  0.00  0.00    +0.000 A 
ATOM      7  C   UNL     1      14.651  26.182  22.004  0.00  0.00    +0.000 A 
ATOM      8  C   UNL     1      13.389  26.328  21.494  0.00  0.00    +0.000 A 
ATOM      9  C   UNL     1      12.673  25.284  20.988  0.00  0.00    +0.000 A 
ATOM     10  C   UNL     1      13.178  23.977  20.953  0.00  0.00    +0.000 A 
BRANCH   9  11
ATOM     11  C   UNL     1      11.320  25.597  20.445  0.00  0.00    +0.000 C 
ATOM     12  C   UNL     1      10.348  25.854  21.608  0.00  0.00    +0.000 C 
ATOM     13  C   UNL     1      11.352  26.882  19.595  0.00  0.00    +0.000 C 
ENDBRANCH   9  11
ENDBRANCH   1  10
BRANCH   2  14
ATOM     14  C   UNL     1      10.635  21.205  20.523  0.00  0.00    +0.000 A 
ATOM     15  C   UNL     1      11.216  19.913  20.486  0.00  0.00    +0.000 A 
ATOM     16  C   UNL     1      10.561  18.915  19.853  0.00  0.00    +0.000 A 
ATOM     17  C   UNL     1       9.341  19.107  19.240  0.00  0.00    +0.000 A 
ATOM     18  C   UNL     1       8.759  20.338  19.263  0.00  0.00    +0.000 A 
ATOM     19  C   UNL     1       9.439  21.390  19.923  0.00  0.00    +0.000 A 
BRANCH  19  20
ATOM     20  N   UNL     1       8.781  22.659  19.974  0.00  0.00    +0.000 N 
ATOM     21  O   UNL     1       8.944  23.378  18.931  0.00  0.00    +0.000 OA
ATOM     22  O   UNL     1       8.016  23.120  20.974  0.00  0.00    +0.000 OA
ENDBRANCH  19  20
ENDBRANCH   2  14
TORSDOF 4
ENDMDL
MODEL 3
REMARK VINA RESULT:      -6.0      1.911      6.066
REMARK  Name = 
REMARK  4 active torsions:
REMARK  status: ('A' for Active; 'I' for Inactive)
REMARK    1  A    between atoms: C_6  and  C_7
REMARK    2  A    between atoms: C_10  and  N_11
REMARK    3  A    between atoms: C_12  and  C_14
REMARK    4  A    between atoms: C_19  and  N_20
REMARK                            x       y       z     vdW  Elec       q    Type
REMARK                         _______ _______ _______ _____ _____    ______ ____
ROOT
ATOM      1  N   UNL     1      27.978  23.238  25.515  0.00  0.00    +0.000 NA
ATOM      2  C   UNL     1      27.702  24.020  26.612  0.00  0.00    +0.000 C 
ATOM      3  O   UNL     1      27.507  25.251  26.511  0.00  0.00    +0.000 OA
ENDROOT
BRANCH   1  10
ATOM      4  C   UNL     1      25.792  23.246  23.482  0.00  0.00    +0.000 C 
ATOM      5  C   UNL     1      27.179  23.713  23.201  0.00  0.00    +0.000 A 
ATOM      6  C   UNL     1      27.465  24.164  21.903  0.00  0.00    +0.000 A 
ATOM      7  C   UNL     1      28.717  24.604  21.583  0.00  0.00    +0.000 A 
ATOM      8  C   UNL     1      29.655  24.578  22.580  0.00  0.00    +0.000 A 
ATOM      9  C   UNL     1      29.379  24.140  23.841  0.00  0.00    +0.000 A 
ATOM     10  C   UNL     1      28.108  23.678  24.212  0.00  0.00    +0.000 A 
BRANCH   9  11
ATOM     11  C   UNL     1      30.494  24.192  24.830  0.00  0.00    +0.000 C 
ATOM     12  C   UNL     1      31.577  23.174  24.436  0.00  0.00    +0.000 C 
ATOM     13  C   UNL     1      31.162  25.580  24.833  0.00  0.00    +0.000 C 
ENDBRANCH   9  11
ENDBRANCH   1  10
BRANCH   2  14
ATOM     14  C   UNL     1      27.636  23.468  27.962  0.00  0.00    +0.000 A 
ATOM     15  C   UNL     1      26.346  23.444  28.546  0.00  0.00    +0.000 A 
ATOM     16  C   UNL     1      26.208  23.019  29.821  0.00  0.00    +0.000 A 
ATOM     17  C   UNL     1      27.283  22.604  30.579  0.00  0.00    +0.000 A 
ATOM     18  C   UNL     1      28.534  22.616  30.041  0.00  0.00    +0.000 A 
ATOM     19  C   UNL     1      28.687  23.060  28.706  0.00  0.00    +0.000 A 
BRANCH  19  20
ATOM     20  N   UNL     1      30.005  23.013  28.152  0.00  0.00    +0.000 N 
ATOM     21  O   UNL     1      30.684  24.082  28.321  0.00  0.00    +0.000 OA
ATOM     22  O   UNL     1      30.568  21.972  27.522  0.00  0.00    +0.000 OA
ENDBRANCH  19  20
ENDBRANCH   2  14
TORSDOF 4
ENDMDL
MODEL 4
REMARK VINA RESULT:      -6.0     15.672     18.435
REMARK  Name = 
REMARK  4 active torsions:
REMARK  status: ('A' for Active; 'I' for Inactive)
REMARK    1  A    between atoms: C_6  and  C_7
REMARK    2  A    between atoms: C_10  and  N_11
REMARK    3  A    between atoms: C_12  and  C_14
REMARK    4  A    between atoms: C_19  and  N_20
REMARK                            x       y       z     vdW  Elec       q    Type
REMARK                         _______ _______ _______ _____ _____    ______ ____
ROOT
ATOM      1  N   UNL     1      11.950  23.341  20.494  0.00  0.00    +0.000 NA
ATOM      2  C   UNL     1      11.065  22.561  21.199  0.00  0.00    +0.000 C 
ATOM      3  O   UNL     1      10.818  22.772  22.406  0.00  0.00    +0.000 OA
ENDROOT
BRANCH   1  10
ATOM      4  C   UNL     1      11.077  26.196  20.482  0.00  0.00    +0.000 C 
ATOM      5  C   UNL     1      12.385  25.738  21.028  0.00  0.00    +0.000 A 
ATOM      6  C   UNL     1      13.251  26.712  21.550  0.00  0.00    +0.000 A 
ATOM      7  C   UNL     1      14.464  26.356  22.065  0.00  0.00    +0.000 A 
ATOM      8  C   UNL     1      14.778  25.023  22.042  0.00  0.00    +0.000 A 
ATOM      9  C   UNL     1      13.939  24.076  21.536  0.00  0.00    +0.000 A 
ATOM     10  C   UNL     1      12.685  24.398  20.996  0.00  0.00    +0.000 A 
BRANCH   9  11
ATOM     11  C   UNL     1      14.404  22.661  21.600  0.00  0.00    +0.000 C 
ATOM     12  C   UNL     1      14.692  22.151  20.179  0.00  0.00    +0.000 C 
ATOM     13  C   UNL     1      15.721  22.551  22.392  0.00  0.00    +0.000 C 
ENDBRANCH   9  11
ENDBRANCH   1  10
BRANCH   2  14
ATOM     14  C   UNL     1      10.373  21.428  20.590  0.00  0.00    +0.000 A 
ATOM     15  C   UNL     1      11.106  20.217  20.554  0.00  0.00    +0.000 A 
ATOM     16  C   UNL     1      10.569  19.141  19.940  0.00  0.00    +0.000 A 
ATOM     17  C   UNL     1       9.325  19.176  19.346  0.00  0.00    +0.000 A 
ATOM     18  C   UNL     1       8.597  20.327  19.369  0.00  0.00    +0.000 A 
ATOM     19  C   UNL     1       9.154  21.460  20.010  0.00  0.00    +0.000 A 
BRANCH  19  20
ATOM     20  N   UNL     1       8.346  22.640  20.062  0.00  0.00    +0.000 N 
ATOM     21  O   UNL     1       7.509  22.661  21.026  0.00  0.00    +0.000 OA
ATOM     22  O   UNL     1       8.416  23.690  19.232  0.00  0.00    +0.000 OA
ENDBRANCH  19  20
ENDBRANCH   2  14
TORSDOF 4
ENDMDL
MODEL 5
REMARK VINA RESULT:      -6.0      2.682      5.635
REMARK  Name = 
REMARK  4 active torsions:
REMARK  status: ('A' for Active; 'I' for Inactive)
REMARK    1  A    between atoms: C_6  and  C_7
REMARK    2  A    between atoms: C_10  and  N_11
REMARK    3  A    between atoms: C_12  and  C_14
REMARK    4  A    between atoms: C_19  and  N_20
REMARK                            x       y       z     vdW  Elec       q    Type
REMARK                         _______ _______ _______ _____ _____    ______ ____
ROOT
ATOM      1  N   UNL     1      27.536  24.572  26.776  0.00  0.00    +0.000 NA
ATOM      2  C   UNL     1      26.527  24.048  27.548  0.00  0.00    +0.000 C 
ATOM      3  O   UNL     1      26.433  22.819  27.762  0.00  0.00    +0.000 OA
ENDROOT
BRANCH   1  10
ATOM      4  C   UNL     1      29.951  23.406  28.088  0.00  0.00    +0.000 C 
ATOM      5  C   UNL     1      29.671  23.292  26.629  0.00  0.00    +0.000 A 
ATOM      6  C   UNL     1      30.609  22.610  25.838  0.00  0.00    +0.000 A 
ATOM      7  C   UNL     1      30.410  22.471  24.494  0.00  0.00    +0.000 A 
ATOM      8  C   UNL     1      29.269  23.025  23.978  0.00  0.00    +0.000 A 
ATOM      9  C   UNL     1      28.358  23.688  24.745  0.00  0.00    +0.000 A 
ATOM     10  C   UNL     1      28.524  23.855  26.127  0.00  0.00    +0.000 A 
BRANCH   9  11
ATOM     11  C   UNL     1      27.151  24.218  24.049  0.00  0.00    +0.000 C 
ATOM     12  C   UNL     1      27.516  24.592  22.603  0.00  0.00    +0.000 C 
ATOM     13  C   UNL     1      26.047  23.146  23.970  0.00  0.00    +0.000 C 
ENDBRANCH   9  11
ENDBRANCH   1  10
BRANCH   2  14
ATOM     14  C   UNL     1      25.495  24.886  28.151  0.00  0.00    +0.000 A 
ATOM     15  C   UNL     1      24.522  25.389  27.253  0.00  0.00    +0.000 A 
ATOM     16  C   UNL     1      23.575  26.235  27.716  0.00  0.00    +0.000 A 
ATOM     17  C   UNL     1      23.518  26.626  29.037  0.00  0.00    +0.000 A 
ATOM     18  C   UNL     1      24.440  26.154  29.922  0.00  0.00    +0.000 A 
ATOM     19  C   UNL     1      25.437  25.268  29.445  0.00  0.00    +0.000 A 
BRANCH  19  20
ATOM     20  N   UNL     1      26.360  24.750  30.406  0.00  0.00    +0.000 N 
ATOM     21  O   UNL     1      25.962  23.690  30.998  0.00  0.00    +0.000 OA
ATOM     22  O   UNL     1      27.568  25.251  30.700  0.00  0.00    +0.000 OA
ENDBRANCH  19  20
ENDBRANCH   2  14
TORSDOF 4
ENDMDL
MODEL 6
REMARK VINA RESULT:      -5.9      2.650      4.753
REMARK  Name = 
REMARK  4 active torsions:
REMARK  status: ('A' for Active; 'I' for Inactive)
REMARK    1  A    between atoms: C_6  and  C_7
REMARK    2  A    between atoms: C_10  and  N_11
REMARK    3  A    between atoms: C_12  and  C_14
REMARK    4  A    between atoms: C_19  and  N_20
REMARK                            x       y       z     vdW  Elec       q    Type
REMARK                         _______ _______ _______ _____ _____    ______ ____
ROOT
ATOM      1  N   UNL     1      26.569  25.042  26.648  0.00  0.00    +0.000 NA
ATOM      2  C   UNL     1      26.659  23.848  25.973  0.00  0.00    +0.000 C 
ATOM      3  O   UNL     1      25.662  23.112  25.801  0.00  0.00    +0.000 OA
ENDROOT
BRANCH   1  10
ATOM      4  C   UNL     1      24.293  26.290  25.172  0.00  0.00    +0.000 C 
ATOM      5  C   UNL     1      24.342  26.165  26.656  0.00  0.00    +0.000 A 
ATOM      6  C   UNL     1      23.261  26.679  27.389  0.00  0.00    +0.000 A 
ATOM      7  C   UNL     1      23.246  26.596  28.752  0.00  0.00    +0.000 A 
ATOM      8  C   UNL     1      24.324  25.997  29.346  0.00  0.00    +0.000 A 
ATOM      9  C   UNL     1      25.375  25.497  28.636  0.00  0.00    +0.000 A 
ATOM     10  C   UNL     1      25.432  25.563  27.236  0.00  0.00    +0.000 A 
BRANCH   9  11
ATOM     11  C   UNL     1      26.468  24.850  29.417  0.00  0.00    +0.000 C 
ATOM     12  C   UNL     1      26.584  25.525  30.793  0.00  0.00    +0.000 C 
ATOM     13  C   UNL     1      26.156  23.363  29.671  0.00  0.00    +0.000 C 
ENDBRANCH   9  11
ENDBRANCH   1  10
BRANCH   2  14
ATOM     14  C   UNL     1      27.922  23.355  25.431  0.00  0.00    +0.000 A 
ATOM     15  C   UNL     1      28.775  22.718  26.365  0.00  0.00    +0.000 A 
ATOM     16  C   UNL     1      29.996  22.301  25.963  0.00  0.00    +0.000 A 
ATOM     17  C   UNL     1      30.443  22.471  24.670  0.00  0.00    +0.000 A 
ATOM     18  C   UNL     1      29.641  23.079  23.751  0.00  0.00    +0.000 A 
ATOM     19  C   UNL     1      28.361  23.520  24.165  0.00  0.00    +0.000 A 
BRANCH  19  20
ATOM     20  N   UNL     1      27.522  24.108  23.167  0.00  0.00    +0.000 N 
ATOM     21  O   UNL     1      26.880  23.263  22.456  0.00  0.00    +0.000 OA
ATOM     22  O   UNL     1      27.344  25.419  22.948  0.00  0.00    +0.000 OA
ENDBRANCH  19  20
ENDBRANCH   2  14
TORSDOF 4
ENDMDL
MODEL 7
REMARK VINA RESULT:      -5.9     31.344     32.784
REMARK  Name = 
REMARK  4 active torsions:
REMARK  status: ('A' for Active; 'I' for Inactive)
REMARK    1  A    between atoms: C_6  and  C_7
REMARK    2  A    between atoms: C_10  and  N_11
REMARK    3  A    between atoms: C_12  and  C_14
REMARK    4  A    between atoms: C_19  and  N_20
REMARK                            x       y       z     vdW  Elec       q    Type
REMARK                         _______ _______ _______ _____ _____    ______ ____
ROOT
ATOM      1  N   UNL     1      21.236  -7.529  26.004  0.00  0.00    +0.000 NA
ATOM      2  C   UNL     1      21.671  -7.879  24.748  0.00  0.00    +0.000 C 
ATOM      3  O   UNL     1      20.873  -8.216  23.846  0.00  0.00    +0.000 OA
ENDROOT
BRANCH   1  10
ATOM      4  C   UNL     1      19.417  -5.161  25.973  0.00  0.00    +0.000 C 
ATOM      5  C   UNL     1      19.015  -6.501  26.485  0.00  0.00    +0.000 A 
ATOM      6  C   UNL     1      17.713  -6.642  26.990  0.00  0.00    +0.000 A 
ATOM      7  C   UNL     1      17.284  -7.844  27.474  0.00  0.00    +0.000 A 
ATOM      8  C   UNL     1      18.179  -8.879  27.439  0.00  0.00    +0.000 A 
ATOM      9  C   UNL     1      19.444  -8.745  26.948  0.00  0.00    +0.000 A 
ATOM     10  C   UNL     1      19.926  -7.528  26.444  0.00  0.00    +0.000 A 
BRANCH   9  11
ATOM     11  C   UNL     1      20.300  -9.965  26.950  0.00  0.00    +0.000 C 
ATOM     12  C   UNL     1      20.687 -10.318  28.396  0.00  0.00    +0.000 C 
ATOM     13  C   UNL     1      19.533 -11.176  26.384  0.00  0.00    +0.000 C 
ENDBRANCH   9  11
ENDBRANCH   1  10
BRANCH   2  14
ATOM     14  C   UNL     1      23.087  -7.899  24.394  0.00  0.00    +0.000 A 
ATOM     15  C   UNL     1      23.619  -6.663  23.952  0.00  0.00    +0.000 A 
ATOM     16  C   UNL     1      24.902  -6.612  23.533  0.00  0.00    +0.000 A 
ATOM     17  C   UNL     1      25.719  -7.723  23.521  0.00  0.00    +0.000 A 
ATOM     18  C   UNL     1      25.233  -8.924  23.943  0.00  0.00    +0.000 A 
ATOM     19  C   UNL     1      23.888  -8.986  24.383  0.00  0.00    +0.000 A 
BRANCH  19  20
ATOM     20  N   UNL     1      23.421 -10.248  24.867  0.00  0.00    +0.000 N 
ATOM     21  O   UNL     1      23.695 -10.474  26.094  0.00  0.00    +0.000 OA
ATOM     22  O   UNL     1      22.724 -11.159  24.173  0.00  0.00    +0.000 OA
ENDBRANCH  19  20
ENDBRANCH   2  14
TORSDOF 4
ENDMDL
MODEL 8
REMARK VINA RESULT:      -5.9      2.184      3.738
REMARK  Name = 
REMARK  4 active torsions:
REMARK  status: ('A' for Active; 'I' for Inactive)
REMARK    1  A    between atoms: C_6  and  C_7
REMARK    2  A    between atoms: C_10  and  N_11
REMARK    3  A    between atoms: C_12  and  C_14
REMARK    4  A    between atoms: C_19  and  N_20
REMARK                            x       y       z     vdW  Elec       q    Type
REMARK                         _______ _______ _______ _____ _____    ______ ____
ROOT
ATOM      1  N   UNL     1      28.064  24.247  26.446  0.00  0.00    +0.000 NA
ATOM      2  C   UNL     1      27.852  23.417  25.370  0.00  0.00    +0.000 C 
ATOM      3  O   UNL     1      27.440  22.246  25.515  0.00  0.00    +0.000 OA
ENDROOT
BRANCH   1  10
ATOM      4  C   UNL     1      25.473  24.350  27.925  0.00  0.00    +0.000 C 
ATOM      5  C   UNL     1      26.762  23.941  28.550  0.00  0.00    +0.000 A 
ATOM      6  C   UNL     1      26.746  23.602  29.913  0.00  0.00    +0.000 A 
ATOM      7  C   UNL     1      27.895  23.219  30.544  0.00  0.00    +0.000 A 
ATOM      8  C   UNL     1      29.035  23.187  29.787  0.00  0.00    +0.000 A 
ATOM      9  C   UNL     1      29.052  23.516  28.464  0.00  0.00    +0.000 A 
ATOM     10  C   UNL     1      27.897  23.917  27.777  0.00  0.00    +0.000 A 
BRANCH   9  11
ATOM     11  C   UNL     1      30.363  23.412  27.761  0.00  0.00    +0.000 C 
ATOM     12  C   UNL     1      31.493  23.812  28.723  0.00  0.00    +0.000 C 
ATOM     13  C   UNL     1      30.638  21.960  27.324  0.00  0.00    +0.000 C 
ENDBRANCH   9  11
ENDBRANCH   1  10
BRANCH   2  14
ATOM     14  C   UNL     1      28.109  23.844  23.998  0.00  0.00    +0.000 A 
ATOM     15  C   UNL     1      29.452  24.192  23.713  0.00  0.00    +0.000 A 
ATOM     16  C   UNL     1      29.762  24.669  22.487  0.00  0.00    +0.000 A 
ATOM     17  C   UNL     1      28.815  24.828  21.497  0.00  0.00    +0.000 A 
ATOM     18  C   UNL     1      27.517  24.498  21.745  0.00  0.00    +0.000 A 
ATOM     19  C   UNL     1      27.183  23.998  23.027  0.00  0.00    +0.000 A 
BRANCH  19  20
ATOM     20  N   UNL     1      25.823  23.613  23.241  0.00  0.00    +0.000 N 
ATOM     21  O   UNL     1      25.390  22.736  22.419  0.00  0.00    +0.000 OA
ATOM     22  O   UNL     1      25.012  24.059  24.211  0.00  0.00    +0.000 OA
ENDBRANCH  19  20
ENDBRANCH   2  14
TORSDOF 4
ENDMDL
MODEL 9
REMARK VINA RESULT:      -5.8     18.289     20.514
REMARK  Name = 
REMARK  4 active torsions:
REMARK  status: ('A' for Active; 'I' for Inactive)
REMARK    1  A    between atoms: C_6  and  C_7
REMARK    2  A    between atoms: C_10  and  N_11
REMARK    3  A    between atoms: C_12  and  C_14
REMARK    4  A    between atoms: C_19  and  N_20
REMARK                            x       y       z     vdW  Elec       q    Type
REMARK                         _______ _______ _______ _____ _____    ______ ____
ROOT
ATOM      1  N   UNL     1      18.879   9.545  38.348  0.00  0.00    +0.000 NA
ATOM      2  C   UNL     1      19.993  10.318  38.577  0.00  0.00    +0.000 C 
ATOM      3  O   UNL     1      19.919  11.418  39.167  0.00  0.00    +0.000 OA
ENDROOT
BRANCH   1  10
ATOM      4  C   UNL     1      17.546   8.809  40.915  0.00  0.00    +0.000 C 
ATOM      5  C   UNL     1      16.871   9.568  39.825  0.00  0.00    +0.000 A 
ATOM      6  C   UNL     1      15.531   9.939  40.023  0.00  0.00    +0.000 A 
ATOM      7  C   UNL     1      14.857  10.636  39.062  0.00  0.00    +0.000 A 
ATOM      8  C   UNL     1      15.549  10.942  37.921  0.00  0.00    +0.000 A 
ATOM      9  C   UNL     1      16.849  10.583  37.728  0.00  0.00    +0.000 A 
ATOM     10  C   UNL     1      17.578   9.866  38.687  0.00  0.00    +0.000 A 
BRANCH   9  11
ATOM     11  C   UNL     1      17.481  11.008  36.446  0.00  0.00    +0.000 C 
ATOM     12  C   UNL     1      17.061  10.045  35.324  0.00  0.00    +0.000 C 
ATOM     13  C   UNL     1      17.001  12.413  36.035  0.00  0.00    +0.000 C 
ENDBRANCH   9  11
ENDBRANCH   1  10
BRANCH   2  14
ATOM     14  C   UNL     1      21.323   9.916  38.131  0.00  0.00    +0.000 A 
ATOM     15  C   UNL     1      21.605  10.161  36.765  0.00  0.00    +0.000 A 
ATOM     16  C   UNL     1      22.786   9.750  36.253  0.00  0.00    +0.000 A 
ATOM     17  C   UNL     1      23.733   9.098  37.015  0.00  0.00    +0.000 A 
ATOM     18  C   UNL     1      23.487   8.852  38.332  0.00  0.00    +0.000 A 
ATOM     19  C   UNL     1      22.252   9.279  38.876  0.00  0.00    +0.000 A 
BRANCH  19  20
ATOM     20  N   UNL     1      22.043   9.052  40.273  0.00  0.00    +0.000 N 
ATOM     21  O   UNL     1      21.717   7.852  40.567  0.00  0.00    +0.000 OA
ATOM     22  O   UNL     1      22.186   9.952  41.256  0.00  0.00    +0.000 OA
ENDBRANCH  19  20
ENDBRANCH   2  14
TORSDOF 4
ENDMDL
MODEL 10
REMARK VINA RESULT:      -5.8     18.145     20.649
REMARK  Name = 
REMARK  4 active torsions:
REMARK  status: ('A' for Active; 'I' for Inactive)
REMARK    1  A    between atoms: C_6  and  C_7
REMARK    2  A    between atoms: C_10  and  N_11
REMARK    3  A    between atoms: C_12  and  C_14
REMARK    4  A    between atoms: C_19  and  N_20
REMARK                            x       y       z     vdW  Elec       q    Type
REMARK                         _______ _______ _______ _____ _____    ______ ____
ROOT
ATOM      1  N   UNL     1      19.041   9.595  38.074  0.00  0.00    +0.000 NA
ATOM      2  C   UNL     1      20.135  10.419  38.193  0.00  0.00    +0.000 C 
ATOM      3  O   UNL     1      20.023  11.612  38.552  0.00  0.00    +0.000 OA
ENDROOT
BRANCH   1  10
ATOM      4  C   UNL     1      17.321  11.052  36.117  0.00  0.00    +0.000 C 
ATOM      5  C   UNL     1      16.854  10.627  37.467  0.00  0.00    +0.000 A 
ATOM      6  C   UNL     1      15.537  10.948  37.831  0.00  0.00    +0.000 A 
ATOM      7  C   UNL     1      15.050  10.586  39.055  0.00  0.00    +0.000 A 
ATOM      8  C   UNL     1      15.903   9.909  39.884  0.00  0.00    +0.000 A 
ATOM      9  C   UNL     1      17.182   9.597  39.531  0.00  0.00    +0.000 A 
ATOM     10  C   UNL     1      17.723   9.951  38.287  0.00  0.00    +0.000 A 
BRANCH   9  11
ATOM     11  C   UNL     1      17.988   8.836  40.528  0.00  0.00    +0.000 C 
ATOM     12  C   UNL     1      18.015   9.603  41.860  0.00  0.00    +0.000 C 
ATOM     13  C   UNL     1      17.352   7.462  40.815  0.00  0.00    +0.000 C 
ENDBRANCH   9  11
ENDBRANCH   1  10
BRANCH   2  14
ATOM     14  C   UNL     1      21.488   9.962  37.893  0.00  0.00    +0.000 A 
ATOM     15  C   UNL     1      21.887  10.095  36.540  0.00  0.00    +0.000 A 
ATOM     16  C   UNL     1      23.097   9.626  36.163  0.00  0.00    +0.000 A 
ATOM     17  C   UNL     1      23.963   9.023  37.050  0.00  0.00    +0.000 A 
ATOM     18  C   UNL     1      23.605   8.886  38.357  0.00  0.00    +0.000 A 
ATOM     19  C   UNL     1      22.339   9.373  38.761  0.00  0.00    +0.000 A 
BRANCH  19  20
ATOM     20  N   UNL     1      22.012   9.260  40.149  0.00  0.00    +0.000 N 
ATOM     21  O   UNL     1      21.489   8.141  40.475  0.00  0.00    +0.000 OA
ATOM     22  O   UNL     1      22.227  10.185  41.095  0.00  0.00    +0.000 OA
ENDBRANCH  19  20
ENDBRANCH   2  14
TORSDOF 4
ENDMDL
