MODEL 1
REMARK VINA RESULT:      -7.4      0.000      0.000
REMARK  Name = 
REMARK  9 active torsions:
REMARK  status: ('A' for Active; 'I' for Inactive)
REMARK    1  A    between atoms: C_2  and  N_5
REMARK    2  A    between atoms: N_5  and  C_6
REMARK    3  A    between atoms: C_6  and  C_7
REMARK    4  A    between atoms: C_7  and  C_8
REMARK    5  A    between atoms: C_8  and  O_9
REMARK    6  A    between atoms: O_9  and  C_10
REMARK    7  A    between atoms: C_13  and  S_14
REMARK    8  A    between atoms: S_14  and  C_17
REMARK    9  A    between atoms: C_18  and  C_19
REMARK                            x       y       z     vdW  Elec       q    Type
REMARK                         _______ _______ _______ _____ _____    ______ ____
ROOT
ATOM      1  S   UNL     1      37.573   1.034  14.214  0.00  0.00    +0.000 S 
ATOM      2  O   UNL     1      36.077   0.808  14.450  0.00  0.00    +0.000 OA
ATOM      3  O   UNL     1      37.784   1.181  12.750  0.00  0.00    +0.000 OA
ENDROOT
BRANCH   1   4
ATOM      4  C   UNL     1      38.463  -0.359  14.803  0.00  0.00    +0.000 A 
ATOM      5  C   UNL     1      37.982  -1.318  15.659  0.00  0.00    +0.000 A 
ATOM      6  C   UNL     1      39.055  -2.208  15.832  0.00  0.00    +0.000 A 
ATOM      7  N   UNL     1      40.104  -1.779  15.110  0.00  0.00    +0.000 N 
ATOM      8  C   UNL     1      41.353  -2.262  14.930  0.00  0.00    +0.000 A 
ATOM      9  C   UNL     1      42.299  -1.655  14.126  0.00  0.00    +0.000 A 
ATOM     10  C   UNL     1      41.963  -0.493  13.465  0.00  0.00    +0.000 A 
ATOM     11  C   UNL     1      40.687   0.012  13.640  0.00  0.00    +0.000 A 
ATOM     12  C   UNL     1      39.788  -0.642  14.458  0.00  0.00    +0.000 A 
BRANCH   5  13
ATOM     13  C   UNL     1      36.665  -1.444  16.281  0.00  0.00    +0.000 A 
ATOM     14  C   UNL     1      36.432  -0.665  17.401  0.00  0.00    +0.000 A 
ATOM     15  C   UNL     1      35.233  -0.686  18.066  0.00  0.00    +0.000 A 
ATOM     16  C   UNL     1      34.241  -1.515  17.592  0.00  0.00    +0.000 A 
ATOM     17  C   UNL     1      34.475  -2.288  16.478  0.00  0.00    +0.000 A 
ATOM     18  C   UNL     1      35.676  -2.267  15.812  0.00  0.00    +0.000 A 
ENDBRANCH   5  13
ENDBRANCH   1   4
BRANCH   1  22
ATOM     19  C   UNL     1      38.547   4.673  16.569  0.00  0.00    +0.000 A 
ATOM     20  C   UNL     1      39.334   4.367  15.482  0.00  0.00    +0.000 A 
ATOM     21  C   UNL     1      39.048   3.236  14.736  0.00  0.00    +0.000 A 
ATOM     22  C   UNL     1      37.988   2.464  15.117  0.00  0.00    +0.000 A 
ATOM     23  C   UNL     1      37.218   2.786  16.205  0.00  0.00    +0.000 A 
ATOM     24  C   UNL     1      37.464   3.894  16.968  0.00  0.00    +0.000 A 
BRANCH  19  25
ATOM     25  O   UNL     1      38.788   5.802  17.356  0.00  0.00    +0.000 OA
BRANCH  25  26
ATOM     26  C   UNL     1      38.979   5.623  18.760  0.00  0.00    +0.000 C 
BRANCH  26  27
ATOM     27  C   UNL     1      40.314   6.124  19.201  0.00  0.00    +0.000 C 
BRANCH  27  28
ATOM     28  C   UNL     1      40.252   7.573  19.612  0.00  0.00    +0.000 C 
BRANCH  28  29
ATOM     29  N   UNL     1      39.103   7.767  20.509  0.00  0.00    +0.000 NA
BRANCH  29  31
ATOM     30  C   UNL     1      38.523  10.022  21.144  0.00  0.00    +0.000 C 
ATOM     31  C   UNL     1      38.434   8.995  20.047  0.00  0.00    +0.000 C 
ATOM     32  C   UNL     1      39.125   9.494  18.787  0.00  0.00    +0.000 C 
ATOM     33  C   UNL     1      36.994   8.711  19.646  0.00  0.00    +0.000 C 
ENDBRANCH  29  31
ENDBRANCH  28  29
ENDBRANCH  27  28
ENDBRANCH  26  27
ENDBRANCH  25  26
ENDBRANCH  19  25
ENDBRANCH   1  22
TORSDOF 9
ENDMDL
MODEL 2
REMARK VINA RESULT:      -7.4      2.715      7.937
REMARK  Name = 
REMARK  9 active torsions:
REMARK  status: ('A' for Active; 'I' for Inactive)
REMARK    1  A    between atoms: C_2  and  N_5
REMARK    2  A    between atoms: N_5  and  C_6
REMARK    3  A    between atoms: C_6  and  C_7
REMARK    4  A    between atoms: C_7  and  C_8
REMARK    5  A    between atoms: C_8  and  O_9
REMARK    6  A    between atoms: O_9  and  C_10
REMARK    7  A    between atoms: C_13  and  S_14
REMARK    8  A    between atoms: S_14  and  C_17
REMARK    9  A    between atoms: C_18  and  C_19
REMARK                            x       y       z     vdW  Elec       q    Type
REMARK                         _______ _______ _______ _____ _____    ______ ____
ROOT
ATOM      1  S   UNL     1      36.449   3.192  15.420  0.00  0.00    +0.000 S 
ATOM      2  O   UNL     1      35.307   3.427  14.426  0.00  0.00    +0.000 OA
ATOM      3  O   UNL     1      35.857   3.134  16.782  0.00  0.00    +0.000 OA
ENDROOT
BRANCH   1   4
ATOM      4  C   UNL     1      37.579   4.531  15.321  0.00  0.00    +0.000 A 
ATOM      5  C   UNL     1      37.879   5.248  14.191  0.00  0.00    +0.000 A 
ATOM      6  C   UNL     1      38.825   6.196  14.615  0.00  0.00    +0.000 A 
ATOM      7  N   UNL     1      39.057   6.030  15.928  0.00  0.00    +0.000 N 
ATOM      8  C   UNL     1      39.861   6.670  16.806  0.00  0.00    +0.000 A 
ATOM      9  C   UNL     1      39.951   6.335  18.143  0.00  0.00    +0.000 A 
ATOM     10  C   UNL     1      39.184   5.295  18.623  0.00  0.00    +0.000 A 
ATOM     11  C   UNL     1      38.356   4.632  17.735  0.00  0.00    +0.000 A 
ATOM     12  C   UNL     1      38.311   5.015  16.409  0.00  0.00    +0.000 A 
BRANCH   5  13
ATOM     13  C   UNL     1      37.368   5.110  12.828  0.00  0.00    +0.000 A 
ATOM     14  C   UNL     1      36.423   6.037  12.424  0.00  0.00    +0.000 A 
ATOM     15  C   UNL     1      35.877   6.020  11.166  0.00  0.00    +0.000 A 
ATOM     16  C   UNL     1      36.292   5.041  10.291  0.00  0.00    +0.000 A 
ATOM     17  C   UNL     1      37.232   4.121  10.695  0.00  0.00    +0.000 A 
ATOM     18  C   UNL     1      37.779   4.139  11.955  0.00  0.00    +0.000 A 
ENDBRANCH   5  13
ENDBRANCH   1   4
BRANCH   1  22
ATOM     19  C   UNL     1      38.294  -0.658  14.193  0.00  0.00    +0.000 A 
ATOM     20  C   UNL     1      39.115   0.430  14.383  0.00  0.00    +0.000 A 
ATOM     21  C   UNL     1      38.559   1.640  14.763  0.00  0.00    +0.000 A 
ATOM     22  C   UNL     1      37.206   1.702  14.934  0.00  0.00    +0.000 A 
ATOM     23  C   UNL     1      36.405   0.605  14.739  0.00  0.00    +0.000 A 
ATOM     24  C   UNL     1      36.913  -0.608  14.364  0.00  0.00    +0.000 A 
BRANCH  19  25
ATOM     25  O   UNL     1      38.800  -1.903  13.811  0.00  0.00    +0.000 OA
BRANCH  25  26
ATOM     26  C   UNL     1      38.695  -2.991  14.730  0.00  0.00    +0.000 C 
BRANCH  26  27
ATOM     27  C   UNL     1      39.571  -2.789  15.922  0.00  0.00    +0.000 C 
BRANCH  27  28
ATOM     28  C   UNL     1      38.776  -2.819  17.203  0.00  0.00    +0.000 C 
BRANCH  28  29
ATOM     29  N   UNL     1      38.356  -1.451  17.538  0.00  0.00    +0.000 NA
BRANCH  29  31
ATOM     30  C   UNL     1      37.381  -2.121  19.642  0.00  0.00    +0.000 C 
ATOM     31  C   UNL     1      37.083  -1.587  18.266  0.00  0.00    +0.000 C 
ATOM     32  C   UNL     1      36.412  -0.224  18.354  0.00  0.00    +0.000 C 
ATOM     33  C   UNL     1      36.114  -2.479  17.505  0.00  0.00    +0.000 C 
ENDBRANCH  29  31
ENDBRANCH  28  29
ENDBRANCH  27  28
ENDBRANCH  26  27
ENDBRANCH  25  26
ENDBRANCH  19  25
ENDBRANCH   1  22
TORSDOF 9
ENDMDL
MODEL 3
REMARK VINA RESULT:      -7.4      1.936      4.364
REMARK  Name = 
REMARK  9 active torsions:
REMARK  status: ('A' for Active; 'I' for Inactive)
REMARK    1  A    between atoms: C_2  and  N_5
REMARK    2  A    between atoms: N_5  and  C_6
REMARK    3  A    between atoms: C_6  and  C_7
REMARK    4  A    between atoms: C_7  and  C_8
REMARK    5  A    between atoms: C_8  and  O_9
REMARK    6  A    between atoms: O_9  and  C_10
REMARK    7  A    between atoms: C_13  and  S_14
REMARK    8  A    between atoms: S_14  and  C_17
REMARK    9  A    between atoms: C_18  and  C_19
REMARK                            x       y       z     vdW  Elec       q    Type
REMARK                         _______ _______ _______ _____ _____    ______ ____
ROOT
ATOM      1  S   UNL     1      37.104   0.234  14.832  0.00  0.00    +0.000 S 
ATOM      2  O   UNL     1      35.629   0.105  15.225  0.00  0.00    +0.000 OA
ATOM      3  O   UNL     1      37.199   0.036  13.362  0.00  0.00    +0.000 OA
ENDROOT
BRANCH   1   4
ATOM      4  C   UNL     1      38.028  -1.006  15.659  0.00  0.00    +0.000 A 
ATOM      5  C   UNL     1      39.078  -1.714  15.129  0.00  0.00    +0.000 A 
ATOM      6  C   UNL     1      39.478  -2.578  16.162  0.00  0.00    +0.000 A 
ATOM      7  N   UNL     1      38.694  -2.376  17.234  0.00  0.00    +0.000 N 
ATOM      8  C   UNL     1      38.659  -2.935  18.464  0.00  0.00    +0.000 A 
ATOM      9  C   UNL     1      37.752  -2.574  19.442  0.00  0.00    +0.000 A 
ATOM     10  C   UNL     1      36.827  -1.591  19.162  0.00  0.00    +0.000 A 
ATOM     11  C   UNL     1      36.852  -1.011  17.907  0.00  0.00    +0.000 A 
ATOM     12  C   UNL     1      37.784  -1.416  16.972  0.00  0.00    +0.000 A 
BRANCH   5  13
ATOM     13  C   UNL     1      39.690  -1.634  13.803  0.00  0.00    +0.000 A 
ATOM     14  C   UNL     1      39.314  -2.602  12.889  0.00  0.00    +0.000 A 
ATOM     15  C   UNL     1      39.809  -2.627  11.610  0.00  0.00    +0.000 A 
ATOM     16  C   UNL     1      40.708  -1.652  11.242  0.00  0.00    +0.000 A 
ATOM     17  C   UNL     1      41.080  -0.690  12.153  0.00  0.00    +0.000 A 
ATOM     18  C   UNL     1      40.583  -0.665  13.434  0.00  0.00    +0.000 A 
ENDBRANCH   5  13
ENDBRANCH   1   4
BRANCH   1  22
ATOM     19  C   UNL     1      38.276   4.298  16.192  0.00  0.00    +0.000 A 
ATOM     20  C   UNL     1      39.045   3.682  15.231  0.00  0.00    +0.000 A 
ATOM     21  C   UNL     1      38.698   2.414  14.795  0.00  0.00    +0.000 A 
ATOM     22  C   UNL     1      37.596   1.824  15.345  0.00  0.00    +0.000 A 
ATOM     23  C   UNL     1      36.844   2.455  16.303  0.00  0.00    +0.000 A 
ATOM     24  C   UNL     1      37.152   3.707  16.760  0.00  0.00    +0.000 A 
BRANCH  19  25
ATOM     25  O   UNL     1      38.579   5.576  16.668  0.00  0.00    +0.000 OA
BRANCH  25  26
ATOM     26  C   UNL     1      39.745   5.741  17.475  0.00  0.00    +0.000 C 
BRANCH  26  27
ATOM     27  C   UNL     1      39.404   5.791  18.928  0.00  0.00    +0.000 C 
BRANCH  27  28
ATOM     28  C   UNL     1      40.447   6.542  19.715  0.00  0.00    +0.000 C 
BRANCH  28  29
ATOM     29  N   UNL     1      41.704   6.558  18.951  0.00  0.00    +0.000 NA
BRANCH  29  31
ATOM     30  C   UNL     1      42.430   8.349  20.396  0.00  0.00    +0.000 C 
ATOM     31  C   UNL     1      42.750   6.963  19.904  0.00  0.00    +0.000 C 
ATOM     32  C   UNL     1      42.778   5.976  21.063  0.00  0.00    +0.000 C 
ATOM     33  C   UNL     1      44.128   6.888  19.263  0.00  0.00    +0.000 C 
ENDBRANCH  29  31
ENDBRANCH  28  29
ENDBRANCH  27  28
ENDBRANCH  26  27
ENDBRANCH  25  26
ENDBRANCH  19  25
ENDBRANCH   1  22
TORSDOF 9
ENDMDL
MODEL 4
REMARK VINA RESULT:      -7.4      4.786     11.077
REMARK  Name = 
REMARK  9 active torsions:
REMARK  status: ('A' for Active; 'I' for Inactive)
REMARK    1  A    between atoms: C_2  and  N_5
REMARK    2  A    between atoms: N_5  and  C_6
REMARK    3  A    between atoms: C_6  and  C_7
REMARK    4  A    between atoms: C_7  and  C_8
REMARK    5  A    between atoms: C_8  and  O_9
REMARK    6  A    between atoms: O_9  and  C_10
REMARK    7  A    between atoms: C_13  and  S_14
REMARK    8  A    between atoms: S_14  and  C_17
REMARK    9  A    between atoms: C_18  and  C_19
REMARK                            x       y       z     vdW  Elec       q    Type
REMARK                         _______ _______ _______ _____ _____    ______ ____
ROOT
ATOM      1  S   UNL     1      37.040  -1.233  16.998  0.00  0.00    +0.000 S 
ATOM      2  O   UNL     1      36.074  -0.758  18.088  0.00  0.00    +0.000 OA
ATOM      3  O   UNL     1      38.389  -1.357  17.612  0.00  0.00    +0.000 OA
ENDROOT
BRANCH   1   4
ATOM      4  C   UNL     1      37.082  -0.042  15.711  0.00  0.00    +0.000 A 
ATOM      5  C   UNL     1      37.943  -0.043  14.642  0.00  0.00    +0.000 A 
ATOM      6  C   UNL     1      37.590   1.099  13.904  0.00  0.00    +0.000 A 
ATOM      7  N   UNL     1      36.574   1.726  14.520  0.00  0.00    +0.000 N 
ATOM      8  C   UNL     1      35.876   2.846  14.230  0.00  0.00    +0.000 A 
ATOM      9  C   UNL     1      34.845   3.328  15.013  0.00  0.00    +0.000 A 
ATOM     10  C   UNL     1      34.498   2.638  16.155  0.00  0.00    +0.000 A 
ATOM     11  C   UNL     1      35.204   1.490  16.464  0.00  0.00    +0.000 A 
ATOM     12  C   UNL     1      36.226   1.060  15.640  0.00  0.00    +0.000 A 
BRANCH   5  13
ATOM     13  C   UNL     1      39.004  -0.986  14.293  0.00  0.00    +0.000 A 
ATOM     14  C   UNL     1      40.286  -0.653  14.696  0.00  0.00    +0.000 A 
ATOM     15  C   UNL     1      41.363  -1.461  14.439  0.00  0.00    +0.000 A 
ATOM     16  C   UNL     1      41.146  -2.636  13.756  0.00  0.00    +0.000 A 
ATOM     17  C   UNL     1      39.870  -2.966  13.356  0.00  0.00    +0.000 A 
ATOM     18  C   UNL     1      38.791  -2.156  13.615  0.00  0.00    +0.000 A 
ENDBRANCH   5  13
ENDBRANCH   1   4
BRANCH   1  22
ATOM     19  C   UNL     1      35.333  -5.054  15.507  0.00  0.00    +0.000 A 
ATOM     20  C   UNL     1      36.533  -5.092  16.181  0.00  0.00    +0.000 A 
ATOM     21  C   UNL     1      37.083  -3.911  16.651  0.00  0.00    +0.000 A 
ATOM     22  C   UNL     1      36.404  -2.749  16.424  0.00  0.00    +0.000 A 
ATOM     23  C   UNL     1      35.210  -2.733  15.749  0.00  0.00    +0.000 A 
ATOM     24  C   UNL     1      34.632  -3.876  15.269  0.00  0.00    +0.000 A 
BRANCH  19  25
ATOM     25  O   UNL     1      34.732  -6.214  15.012  0.00  0.00    +0.000 OA
BRANCH  25  26
ATOM     26  C   UNL     1      33.356  -6.447  15.312  0.00  0.00    +0.000 C 
BRANCH  26  27
ATOM     27  C   UNL     1      33.161  -7.747  16.021  0.00  0.00    +0.000 C 
BRANCH  27  28
ATOM     28  C   UNL     1      31.743  -7.902  16.509  0.00  0.00    +0.000 C 
BRANCH  28  29
ATOM     29  N   UNL     1      31.358  -9.319  16.419  0.00  0.00    +0.000 NA
BRANCH  29  31
ATOM     30  C   UNL     1      29.774  -9.643  14.627  0.00  0.00    +0.000 C 
ATOM     31  C   UNL     1      29.923  -9.326  16.091  0.00  0.00    +0.000 C 
ATOM     32  C   UNL     1      29.224 -10.377  16.942  0.00  0.00    +0.000 C 
ATOM     33  C   UNL     1      29.275  -7.999  16.457  0.00  0.00    +0.000 C 
ENDBRANCH  29  31
ENDBRANCH  28  29
ENDBRANCH  27  28
ENDBRANCH  26  27
ENDBRANCH  25  26
ENDBRANCH  19  25
ENDBRANCH   1  22
TORSDOF 9
ENDMDL
MODEL 5
REMARK VINA RESULT:      -7.3      6.458      9.503
REMARK  Name = 
REMARK  9 active torsions:
REMARK  status: ('A' for Active; 'I' for Inactive)
REMARK    1  A    between atoms: C_2  and  N_5
REMARK    2  A    between atoms: N_5  and  C_6
REMARK    3  A    between atoms: C_6  and  C_7
REMARK    4  A    between atoms: C_7  and  C_8
REMARK    5  A    between atoms: C_8  and  O_9
REMARK    6  A    between atoms: O_9  and  C_10
REMARK    7  A    between atoms: C_13  and  S_14
REMARK    8  A    between atoms: S_14  and  C_17
REMARK    9  A    between atoms: C_18  and  C_19
REMARK                            x       y       z     vdW  Elec       q    Type
REMARK                         _______ _______ _______ _____ _____    ______ ____
ROOT
ATOM      1  S   UNL     1      41.780   9.612  19.884  0.00  0.00    +0.000 S 
ATOM      2  O   UNL     1      42.483   9.871  18.549  0.00  0.00    +0.000 OA
ATOM      3  O   UNL     1      42.099  10.746  20.791  0.00  0.00    +0.000 OA
ENDROOT
BRANCH   1   4
ATOM      4  C   UNL     1      42.386   8.116  20.571  0.00  0.00    +0.000 A 
ATOM      5  C   UNL     1      42.076   6.850  20.142  0.00  0.00    +0.000 A 
ATOM      6  C   UNL     1      42.796   6.000  20.999  0.00  0.00    +0.000 A 
ATOM      7  N   UNL     1      43.485   6.744  21.879  0.00  0.00    +0.000 N 
ATOM      8  C   UNL     1      44.319   6.426  22.895  0.00  0.00    +0.000 A 
ATOM      9  C   UNL     1      44.940   7.365  23.696  0.00  0.00    +0.000 A 
ATOM     10  C   UNL     1      44.706   8.703  23.458  0.00  0.00    +0.000 A 
ATOM     11  C   UNL     1      43.855   9.042  22.421  0.00  0.00    +0.000 A 
ATOM     12  C   UNL     1      43.265   8.055  21.656  0.00  0.00    +0.000 A 
BRANCH   5  13
ATOM     13  C   UNL     1      41.207   6.416  19.049  0.00  0.00    +0.000 A 
ATOM     14  C   UNL     1      39.950   5.956  19.403  0.00  0.00    +0.000 A 
ATOM     15  C   UNL     1      39.040   5.533  18.468  0.00  0.00    +0.000 A 
ATOM     16  C   UNL     1      39.405   5.573  17.142  0.00  0.00    +0.000 A 
ATOM     17  C   UNL     1      40.654   6.031  16.792  0.00  0.00    +0.000 A 
ATOM     18  C   UNL     1      41.566   6.455  17.729  0.00  0.00    +0.000 A 
ENDBRANCH   5  13
ENDBRANCH   1   4
BRANCH   1  22
ATOM     19  C   UNL     1      37.471   9.311  18.845  0.00  0.00    +0.000 A 
ATOM     20  C   UNL     1      37.833   9.213  20.169  0.00  0.00    +0.000 A 
ATOM     21  C   UNL     1      39.171   9.302  20.513  0.00  0.00    +0.000 A 
ATOM     22  C   UNL     1      40.083   9.484  19.514  0.00  0.00    +0.000 A 
ATOM     23  C   UNL     1      39.701   9.578  18.200  0.00  0.00    +0.000 A 
ATOM     24  C   UNL     1      38.390   9.496  17.816  0.00  0.00    +0.000 A 
BRANCH  19  25
ATOM     25  O   UNL     1      36.136   9.230  18.440  0.00  0.00    +0.000 OA
BRANCH  25  26
ATOM     26  C   UNL     1      35.626  10.242  17.572  0.00  0.00    +0.000 C 
BRANCH  26  27
ATOM     27  C   UNL     1      34.166  10.063  17.318  0.00  0.00    +0.000 C 
BRANCH  27  28
ATOM     28  C   UNL     1      33.872   9.948  15.843  0.00  0.00    +0.000 C 
BRANCH  28  29
ATOM     29  N   UNL     1      33.572   8.544  15.523  0.00  0.00    +0.000 NA
BRANCH  29  31
ATOM     30  C   UNL     1      35.726   7.808  14.719  0.00  0.00    +0.000 C 
ATOM     31  C   UNL     1      34.342   8.234  14.307  0.00  0.00    +0.000 C 
ATOM     32  C   UNL     1      33.641   7.119  13.545  0.00  0.00    +0.000 C 
ATOM     33  C   UNL     1      34.369   9.427  13.363  0.00  0.00    +0.000 C 
ENDBRANCH  29  31
ENDBRANCH  28  29
ENDBRANCH  27  28
ENDBRANCH  26  27
ENDBRANCH  25  26
ENDBRANCH  19  25
ENDBRANCH   1  22
TORSDOF 9
ENDMDL
MODEL 6
REMARK VINA RESULT:      -7.3      2.499      7.477
REMARK  Name = 
REMARK  9 active torsions:
REMARK  status: ('A' for Active; 'I' for Inactive)
REMARK    1  A    between atoms: C_2  and  N_5
REMARK    2  A    between atoms: N_5  and  C_6
REMARK    3  A    between atoms: C_6  and  C_7
REMARK    4  A    between atoms: C_7  and  C_8
REMARK    5  A    between atoms: C_8  and  O_9
REMARK    6  A    between atoms: O_9  and  C_10
REMARK    7  A    between atoms: C_13  and  S_14
REMARK    8  A    between atoms: S_14  and  C_17
REMARK    9  A    between atoms: C_18  and  C_19
REMARK                            x       y       z     vdW  Elec       q    Type
REMARK                         _______ _______ _______ _____ _____    ______ ____
ROOT
ATOM      1  S   UNL     1      39.758   4.946  14.346  0.00  0.00    +0.000 S 
ATOM      2  O   UNL     1      41.284   5.008  14.223  0.00  0.00    +0.000 OA
ATOM      3  O   UNL     1      39.197   6.097  13.591  0.00  0.00    +0.000 OA
ENDROOT
BRANCH   1   4
ATOM      4  C   UNL     1      39.315   5.075  16.039  0.00  0.00    +0.000 A 
ATOM      5  C   UNL     1      38.137   4.644  16.596  0.00  0.00    +0.000 A 
ATOM      6  C   UNL     1      38.252   4.969  17.958  0.00  0.00    +0.000 A 
ATOM      7  N   UNL     1      39.440   5.558  18.172  0.00  0.00    +0.000 N 
ATOM      8  C   UNL     1      40.033   6.050  19.282  0.00  0.00    +0.000 A 
ATOM      9  C   UNL     1      41.288   6.627  19.285  0.00  0.00    +0.000 A 
ATOM     10  C   UNL     1      41.986   6.712  18.099  0.00  0.00    +0.000 A 
ATOM     11  C   UNL     1      41.390   6.211  16.955  0.00  0.00    +0.000 A 
ATOM     12  C   UNL     1      40.132   5.646  17.018  0.00  0.00    +0.000 A 
BRANCH   5  13
ATOM     13  C   UNL     1      36.987   3.990  15.972  0.00  0.00    +0.000 A 
ATOM     14  C   UNL     1      36.740   2.682  16.350  0.00  0.00    +0.000 A 
ATOM     15  C   UNL     1      35.685   1.966  15.845  0.00  0.00    +0.000 A 
ATOM     16  C   UNL     1      34.857   2.582  14.934  0.00  0.00    +0.000 A 
ATOM     17  C   UNL     1      35.106   3.883  14.560  0.00  0.00    +0.000 A 
ATOM     18  C   UNL     1      36.163   4.601  15.066  0.00  0.00    +0.000 A 
ENDBRANCH   5  13
ENDBRANCH   1   4
BRANCH   1  22
ATOM     19  C   UNL     1      38.629   0.961  12.742  0.00  0.00    +0.000 A 
ATOM     20  C   UNL     1      38.081   2.080  12.157  0.00  0.00    +0.000 A 
ATOM     21  C   UNL     1      38.419   3.332  12.644  0.00  0.00    +0.000 A 
ATOM     22  C   UNL     1      39.288   3.401  13.695  0.00  0.00    +0.000 A 
ATOM     23  C   UNL     1      39.822   2.272  14.263  0.00  0.00    +0.000 A 
ATOM     24  C   UNL     1      39.515   1.018  13.813  0.00  0.00    +0.000 A 
BRANCH  19  25
ATOM     25  O   UNL     1      38.324  -0.326  12.291  0.00  0.00    +0.000 OA
BRANCH  25  26
ATOM     26  C   UNL     1      38.173  -1.366  13.257  0.00  0.00    +0.000 C 
BRANCH  26  27
ATOM     27  C   UNL     1      37.059  -1.074  14.208  0.00  0.00    +0.000 C 
BRANCH  27  28
ATOM     28  C   UNL     1      37.213  -1.846  15.493  0.00  0.00    +0.000 C 
BRANCH  28  29
ATOM     29  N   UNL     1      37.630  -0.923  16.559  0.00  0.00    +0.000 NA
BRANCH  29  31
ATOM     30  C   UNL     1      36.396  -0.370  18.559  0.00  0.00    +0.000 C 
ATOM     31  C   UNL     1      37.086  -1.479  17.810  0.00  0.00    +0.000 C 
ATOM     32  C   UNL     1      36.103  -2.592  17.473  0.00  0.00    +0.000 C 
ATOM     33  C   UNL     1      38.183  -2.131  18.637  0.00  0.00    +0.000 C 
ENDBRANCH  29  31
ENDBRANCH  28  29
ENDBRANCH  27  28
ENDBRANCH  26  27
ENDBRANCH  25  26
ENDBRANCH  19  25
ENDBRANCH   1  22
TORSDOF 9
ENDMDL
MODEL 7
REMARK VINA RESULT:      -7.3      3.126      5.222
REMARK  Name = 
REMARK  9 active torsions:
REMARK  status: ('A' for Active; 'I' for Inactive)
REMARK    1  A    between atoms: C_2  and  N_5
REMARK    2  A    between atoms: N_5  and  C_6
REMARK    3  A    between atoms: C_6  and  C_7
REMARK    4  A    between atoms: C_7  and  C_8
REMARK    5  A    between atoms: C_8  and  O_9
REMARK    6  A    between atoms: O_9  and  C_10
REMARK    7  A    between atoms: C_13  and  S_14
REMARK    8  A    between atoms: S_14  and  C_17
REMARK    9  A    between atoms: C_18  and  C_19
REMARK                            x       y       z     vdW  Elec       q    Type
REMARK                         _______ _______ _______ _____ _____    ______ ____
ROOT
ATOM      1  S   UNL     1      38.667   3.933  15.137  0.00  0.00    +0.000 S 
ATOM      2  O   UNL     1      39.453   4.423  13.917  0.00  0.00    +0.000 OA
ATOM      3  O   UNL     1      38.930   2.478  15.290  0.00  0.00    +0.000 OA
ENDROOT
BRANCH   1   4
ATOM      4  C   UNL     1      36.955   4.200  14.861  0.00  0.00    +0.000 A 
ATOM      5  C   UNL     1      35.955   3.284  15.070  0.00  0.00    +0.000 A 
ATOM      6  C   UNL     1      34.777   3.959  14.706  0.00  0.00    +0.000 A 
ATOM      7  N   UNL     1      35.088   5.203  14.308  0.00  0.00    +0.000 N 
ATOM      8  C   UNL     1      34.340   6.239  13.867  0.00  0.00    +0.000 A 
ATOM      9  C   UNL     1      34.868   7.462  13.501  0.00  0.00    +0.000 A 
ATOM     10  C   UNL     1      36.231   7.650  13.585  0.00  0.00    +0.000 A 
ATOM     11  C   UNL     1      37.008   6.598  14.034  0.00  0.00    +0.000 A 
ATOM     12  C   UNL     1      36.419   5.399  14.385  0.00  0.00    +0.000 A 
BRANCH   5  13
ATOM     13  C   UNL     1      36.029   1.907  15.558  0.00  0.00    +0.000 A 
ATOM     14  C   UNL     1      36.197   0.920  14.603  0.00  0.00    +0.000 A 
ATOM     15  C   UNL     1      36.293  -0.407  14.936  0.00  0.00    +0.000 A 
ATOM     16  C   UNL     1      36.216  -0.750  16.267  0.00  0.00    +0.000 A 
ATOM     17  C   UNL     1      36.049   0.234  17.215  0.00  0.00    +0.000 A 
ATOM     18  C   UNL     1      35.954   1.563  16.881  0.00  0.00    +0.000 A 
ENDBRANCH   5  13
ENDBRANCH   1   4
BRANCH   1  22
ATOM     19  C   UNL     1      40.041   6.313  18.627  0.00  0.00    +0.000 A 
ATOM     20  C   UNL     1      40.653   6.521  17.412  0.00  0.00    +0.000 A 
ATOM     21  C   UNL     1      40.241   5.787  16.312  0.00  0.00    +0.000 A 
ATOM     22  C   UNL     1      39.235   4.879  16.484  0.00  0.00    +0.000 A 
ATOM     23  C   UNL     1      38.640   4.688  17.704  0.00  0.00    +0.000 A 
ATOM     24  C   UNL     1      39.016   5.391  18.815  0.00  0.00    +0.000 A 
BRANCH  19  25
ATOM     25  O   UNL     1      40.416   7.026  19.769  0.00  0.00    +0.000 OA
BRANCH  25  26
ATOM     26  C   UNL     1      40.027   8.395  19.874  0.00  0.00    +0.000 C 
BRANCH  26  27
ATOM     27  C   UNL     1      38.742   8.546  20.620  0.00  0.00    +0.000 C 
BRANCH  27  28
ATOM     28  C   UNL     1      37.567   8.646  19.680  0.00  0.00    +0.000 C 
BRANCH  28  29
ATOM     29  N   UNL     1      37.510  10.008  19.129  0.00  0.00    +0.000 NA
BRANCH  29  31
ATOM     30  C   UNL     1      37.529  11.015  16.936  0.00  0.00    +0.000 C 
ATOM     31  C   UNL     1      37.004   9.865  17.753  0.00  0.00    +0.000 C 
ATOM     32  C   UNL     1      37.484   8.538  17.182  0.00  0.00    +0.000 C 
ATOM     33  C   UNL     1      35.485   9.798  17.737  0.00  0.00    +0.000 C 
ENDBRANCH  29  31
ENDBRANCH  28  29
ENDBRANCH  27  28
ENDBRANCH  26  27
ENDBRANCH  25  26
ENDBRANCH  19  25
ENDBRANCH   1  22
TORSDOF 9
ENDMDL
MODEL 8
REMARK VINA RESULT:      -7.2      1.359      2.281
REMARK  Name = 
REMARK  9 active torsions:
REMARK  status: ('A' for Active; 'I' for Inactive)
REMARK    1  A    between atoms: C_2  and  N_5
REMARK    2  A    between atoms: N_5  and  C_6
REMARK    3  A    between atoms: C_6  and  C_7
REMARK    4  A    between atoms: C_7  and  C_8
REMARK    5  A    between atoms: C_8  and  O_9
REMARK    6  A    between atoms: O_9  and  C_10
REMARK    7  A    between atoms: C_13  and  S_14
REMARK    8  A    between atoms: S_14  and  C_17
REMARK    9  A    between atoms: C_18  and  C_19
REMARK                            x       y       z     vdW  Elec       q    Type
REMARK                         _______ _______ _______ _____ _____    ______ ____
ROOT
ATOM      1  S   UNL     1      37.759   0.993  13.986  0.00  0.00    +0.000 S 
ATOM      2  O   UNL     1      36.280   0.595  13.988  0.00  0.00    +0.000 OA
ATOM      3  O   UNL     1      38.138   1.318  12.585  0.00  0.00    +0.000 OA
ENDROOT
BRANCH   1   4
ATOM      4  C   UNL     1      38.718  -0.360  14.559  0.00  0.00    +0.000 A 
ATOM      5  C   UNL     1      38.271  -1.380  15.361  0.00  0.00    +0.000 A 
ATOM      6  C   UNL     1      39.395  -2.203  15.545  0.00  0.00    +0.000 A 
ATOM      7  N   UNL     1      40.437  -1.680  14.879  0.00  0.00    +0.000 N 
ATOM      8  C   UNL     1      41.722  -2.073  14.730  0.00  0.00    +0.000 A 
ATOM      9  C   UNL     1      42.653  -1.376  13.985  0.00  0.00    +0.000 A 
ATOM     10  C   UNL     1      42.265  -0.215  13.352  0.00  0.00    +0.000 A 
ATOM     11  C   UNL     1      40.953   0.199  13.496  0.00  0.00    +0.000 A 
ATOM     12  C   UNL     1      40.070  -0.542  14.255  0.00  0.00    +0.000 A 
BRANCH   5  13
ATOM     13  C   UNL     1      36.944  -1.615  15.928  0.00  0.00    +0.000 A 
ATOM     14  C   UNL     1      36.614  -0.885  17.056  0.00  0.00    +0.000 A 
ATOM     15  C   UNL     1      35.395  -1.008  17.673  0.00  0.00    +0.000 A 
ATOM     16  C   UNL     1      34.483  -1.891  17.140  0.00  0.00    +0.000 A 
ATOM     17  C   UNL     1      34.814  -2.616  16.017  0.00  0.00    +0.000 A 
ATOM     18  C   UNL     1      36.035  -2.492  15.400  0.00  0.00    +0.000 A 
ENDBRANCH   5  13
ENDBRANCH   1   4
BRANCH   1  22
ATOM     19  C   UNL     1      38.185   4.475  16.711  0.00  0.00    +0.000 A 
ATOM     20  C   UNL     1      37.085   3.661  16.856  0.00  0.00    +0.000 A 
ATOM     21  C   UNL     1      36.933   2.572  16.015  0.00  0.00    +0.000 A 
ATOM     22  C   UNL     1      37.890   2.351  15.067  0.00  0.00    +0.000 A 
ATOM     23  C   UNL     1      38.979   3.176  14.939  0.00  0.00    +0.000 A 
ATOM     24  C   UNL     1      39.168   4.261  15.749  0.00  0.00    +0.000 A 
BRANCH  19  25
ATOM     25  O   UNL     1      38.390   5.587  17.532  0.00  0.00    +0.000 OA
BRANCH  25  26
ATOM     26  C   UNL     1      39.066   5.398  18.775  0.00  0.00    +0.000 C 
BRANCH  26  27
ATOM     27  C   UNL     1      39.496   6.698  19.370  0.00  0.00    +0.000 C 
BRANCH  27  28
ATOM     28  C   UNL     1      40.806   6.563  20.104  0.00  0.00    +0.000 C 
BRANCH  28  29
ATOM     29  N   UNL     1      41.684   7.681  19.726  0.00  0.00    +0.000 NA
BRANCH  29  31
ATOM     30  C   UNL     1      43.505   8.534  21.061  0.00  0.00    +0.000 C 
ATOM     31  C   UNL     1      43.012   7.352  20.269  0.00  0.00    +0.000 C 
ATOM     32  C   UNL     1      42.896   6.121  21.157  0.00  0.00    +0.000 C 
ATOM     33  C   UNL     1      43.975   6.970  19.154  0.00  0.00    +0.000 C 
ENDBRANCH  29  31
ENDBRANCH  28  29
ENDBRANCH  27  28
ENDBRANCH  26  27
ENDBRANCH  25  26
ENDBRANCH  19  25
ENDBRANCH   1  22
TORSDOF 9
ENDMDL
MODEL 9
REMARK VINA RESULT:      -7.2      3.262      9.124
REMARK  Name = 
REMARK  9 active torsions:
REMARK  status: ('A' for Active; 'I' for Inactive)
REMARK    1  A    between atoms: C_2  and  N_5
REMARK    2  A    between atoms: N_5  and  C_6
REMARK    3  A    between atoms: C_6  and  C_7
REMARK    4  A    between atoms: C_7  and  C_8
REMARK    5  A    between atoms: C_8  and  O_9
REMARK    6  A    between atoms: O_9  and  C_10
REMARK    7  A    between atoms: C_13  and  S_14
REMARK    8  A    between atoms: S_14  and  C_17
REMARK    9  A    between atoms: C_18  and  C_19
REMARK                            x       y       z     vdW  Elec       q    Type
REMARK                         _______ _______ _______ _____ _____    ______ ____
ROOT
ATOM      1  S   UNL     1      37.543   5.608  14.427  0.00  0.00    +0.000 S 
ATOM      2  O   UNL     1      39.024   5.308  14.675  0.00  0.00    +0.000 OA
ATOM      3  O   UNL     1      37.332   5.657  12.956  0.00  0.00    +0.000 OA
ENDROOT
BRANCH   1   4
ATOM      4  C   UNL     1      37.145   7.163  15.135  0.00  0.00    +0.000 A 
ATOM      5  C   UNL     1      37.741   7.719  16.238  0.00  0.00    +0.000 A 
ATOM      6  C   UNL     1      37.084   8.950  16.412  0.00  0.00    +0.000 A 
ATOM      7  N   UNL     1      36.155   9.091  15.452  0.00  0.00    +0.000 N 
ATOM      8  C   UNL     1      35.269  10.072  15.171  0.00  0.00    +0.000 A 
ATOM      9  C   UNL     1      34.382  10.021  14.113  0.00  0.00    +0.000 A 
ATOM     10  C   UNL     1      34.391   8.914  13.290  0.00  0.00    +0.000 A 
ATOM     11  C   UNL     1      35.293   7.903  13.567  0.00  0.00    +0.000 A 
ATOM     12  C   UNL     1      36.154   8.015  14.640  0.00  0.00    +0.000 A 
BRANCH   5  13
ATOM     13  C   UNL     1      38.818   7.205  17.084  0.00  0.00    +0.000 A 
ATOM     14  C   UNL     1      38.447   6.343  18.101  0.00  0.00    +0.000 A 
ATOM     15  C   UNL     1      39.366   5.785  18.953  0.00  0.00    +0.000 A 
ATOM     16  C   UNL     1      40.693   6.104  18.777  0.00  0.00    +0.000 A 
ATOM     17  C   UNL     1      41.059   6.961  17.764  0.00  0.00    +0.000 A 
ATOM     18  C   UNL     1      40.138   7.520  16.911  0.00  0.00    +0.000 A 
ENDBRANCH   5  13
ENDBRANCH   1   4
BRANCH   1  22
ATOM     19  C   UNL     1      35.206   2.364  16.364  0.00  0.00    +0.000 A 
ATOM     20  C   UNL     1      36.488   2.600  16.806  0.00  0.00    +0.000 A 
ATOM     21  C   UNL     1      37.233   3.606  16.213  0.00  0.00    +0.000 A 
ATOM     22  C   UNL     1      36.659   4.325  15.205  0.00  0.00    +0.000 A 
ATOM     23  C   UNL     1      35.380   4.072  14.780  0.00  0.00    +0.000 A 
ATOM     24  C   UNL     1      34.609   3.090  15.338  0.00  0.00    +0.000 A 
BRANCH  19  25
ATOM     25  O   UNL     1      34.408   1.364  16.926  0.00  0.00    +0.000 OA
BRANCH  25  26
ATOM     26  C   UNL     1      35.050   0.284  17.605  0.00  0.00    +0.000 C 
BRANCH  26  27
ATOM     27  C   UNL     1      34.531  -1.039  17.147  0.00  0.00    +0.000 C 
BRANCH  27  28
ATOM     28  C   UNL     1      35.461  -1.681  16.149  0.00  0.00    +0.000 C 
BRANCH  28  29
ATOM     29  N   UNL     1      36.780  -1.036  16.240  0.00  0.00    +0.000 NA
BRANCH  29  31
ATOM     30  C   UNL     1      36.859  -0.004  14.060  0.00  0.00    +0.000 C 
ATOM     31  C   UNL     1      37.375  -1.144  14.897  0.00  0.00    +0.000 C 
ATOM     32  C   UNL     1      38.891  -1.078  15.018  0.00  0.00    +0.000 C 
ATOM     33  C   UNL     1      37.067  -2.497  14.274  0.00  0.00    +0.000 C 
ENDBRANCH  29  31
ENDBRANCH  28  29
ENDBRANCH  27  28
ENDBRANCH  26  27
ENDBRANCH  25  26
ENDBRANCH  19  25
ENDBRANCH   1  22
TORSDOF 9
ENDMDL
MODEL 10
REMARK VINA RESULT:      -7.2     24.193     28.076
REMARK  Name = 
REMARK  9 active torsions:
REMARK  status: ('A' for Active; 'I' for Inactive)
REMARK    1  A    between atoms: C_2  and  N_5
REMARK    2  A    between atoms: N_5  and  C_6
REMARK    3  A    between atoms: C_6  and  C_7
REMARK    4  A    between atoms: C_7  and  C_8
REMARK    5  A    between atoms: C_8  and  O_9
REMARK    6  A    between atoms: O_9  and  C_10
REMARK    7  A    between atoms: C_13  and  S_14
REMARK    8  A    between atoms: S_14  and  C_17
REMARK    9  A    between atoms: C_18  and  C_19
REMARK                            x       y       z     vdW  Elec       q    Type
REMARK                         _______ _______ _______ _____ _____    ______ ____
ROOT
ATOM      1  S   UNL     1      10.764  -1.554  27.513  0.00  0.00    +0.000 S 
ATOM      2  O   UNL     1      10.944  -3.064  27.330  0.00  0.00    +0.000 OA
ATOM      3  O   UNL     1       9.943  -1.342  28.734  0.00  0.00    +0.000 OA
ENDROOT
BRANCH   1   4
ATOM      4  C   UNL     1       9.927  -0.903  26.115  0.00  0.00    +0.000 A 
ATOM      5  C   UNL     1       9.696   0.426  25.864  0.00  0.00    +0.000 A 
ATOM      6  C   UNL     1       8.998   0.438  24.644  0.00  0.00    +0.000 A 
ATOM      7  N   UNL     1       8.835  -0.825  24.217  0.00  0.00    +0.000 N 
ATOM      8  C   UNL     1       8.246  -1.355  23.123  0.00  0.00    +0.000 A 
ATOM      9  C   UNL     1       8.188  -2.711  22.867  0.00  0.00    +0.000 A 
ATOM     10  C   UNL     1       8.760  -3.584  23.768  0.00  0.00    +0.000 A 
ATOM     11  C   UNL     1       9.367  -3.055  24.892  0.00  0.00    +0.000 A 
ATOM     12  C   UNL     1       9.391  -1.689  25.091  0.00  0.00    +0.000 A 
BRANCH   5  13
ATOM     13  C   UNL     1      10.067   1.607  26.642  0.00  0.00    +0.000 A 
ATOM     14  C   UNL     1      11.264   2.216  26.311  0.00  0.00    +0.000 A 
ATOM     15  C   UNL     1      11.715   3.337  26.960  0.00  0.00    +0.000 A 
ATOM     16  C   UNL     1      10.939   3.859  27.971  0.00  0.00    +0.000 A 
ATOM     17  C   UNL     1       9.748   3.251  28.298  0.00  0.00    +0.000 A 
ATOM     18  C   UNL     1       9.297   2.128  27.647  0.00  0.00    +0.000 A 
ENDBRANCH   5  13
ENDBRANCH   1   4
BRANCH   1  22
ATOM     19  C   UNL     1      14.883   0.092  27.749  0.00  0.00    +0.000 A 
ATOM     20  C   UNL     1      14.079   0.180  28.863  0.00  0.00    +0.000 A 
ATOM     21  C   UNL     1      12.791  -0.326  28.808  0.00  0.00    +0.000 A 
ATOM     22  C   UNL     1      12.370  -0.893  27.640  0.00  0.00    +0.000 A 
ATOM     23  C   UNL     1      13.188  -0.970  26.542  0.00  0.00    +0.000 A 
ATOM     24  C   UNL     1      14.467  -0.484  26.553  0.00  0.00    +0.000 A 
BRANCH  19  25
ATOM     25  O   UNL     1      16.191   0.584  27.747  0.00  0.00    +0.000 OA
BRANCH  25  26
ATOM     26  C   UNL     1      16.733   1.068  26.518  0.00  0.00    +0.000 C 
BRANCH  26  27
ATOM     27  C   UNL     1      18.213   0.881  26.459  0.00  0.00    +0.000 C 
BRANCH  27  28
ATOM     28  C   UNL     1      18.622   0.100  25.237  0.00  0.00    +0.000 C 
BRANCH  28  29
ATOM     29  N   UNL     1      19.177   1.027  24.239  0.00  0.00    +0.000 NA
BRANCH  29  31
ATOM     30  C   UNL     1      21.541   0.539  24.191  0.00  0.00    +0.000 C 
ATOM     31  C   UNL     1      20.219   0.272  23.522  0.00  0.00    +0.000 C 
ATOM     32  C   UNL     1      19.881  -1.212  23.573  0.00  0.00    +0.000 C 
ATOM     33  C   UNL     1      20.240   0.642  22.047  0.00  0.00    +0.000 C 
ENDBRANCH  29  31
ENDBRANCH  28  29
ENDBRANCH  27  28
ENDBRANCH  26  27
ENDBRANCH  25  26
ENDBRANCH  19  25
ENDBRANCH   1  22
TORSDOF 9
ENDMDL
