MODEL 1
REMARK VINA RESULT:      -5.9      0.000      0.000
REMARK  Name = 
REMARK  3 active torsions:
REMARK  status: ('A' for Active; 'I' for Inactive)
REMARK    1  A    between atoms: C_2  and  N_3
REMARK    2  A    between atoms: C_6  and  C_7
REMARK    3  A    between atoms: C_13  and  O_14
REMARK                            x       y       z     vdW  Elec       q    Type
REMARK                         _______ _______ _______ _____ _____    ______ ____
ROOT
ATOM      1  C   UNL     1      33.212  -3.799  33.873  0.00  0.00    +0.000 A 
ATOM      2  C   UNL     1      32.500  -4.177  34.996  0.00  0.00    +0.000 A 
ATOM      3  N   UNL     1      32.134  -3.080  35.682  0.00  0.00    +0.000 NA
ATOM      4  C   UNL     1      32.578  -1.976  35.054  0.00  0.00    +0.000 A 
ATOM      5  C   UNL     1      32.469  -0.647  35.343  0.00  0.00    +0.000 A 
ATOM      6  C   UNL     1      33.032   0.304  34.511  0.00  0.00    +0.000 A 
ATOM      7  C   UNL     1      33.713  -0.114  33.371  0.00  0.00    +0.000 A 
ATOM      8  C   UNL     1      33.815  -1.461  33.093  0.00  0.00    +0.000 A 
ATOM      9  C   UNL     1      33.245  -2.423  33.936  0.00  0.00    +0.000 A 
ENDROOT
BRANCH   1  13
ATOM     10  N   UNL     1      33.577  -5.561  29.325  0.00  0.00    +0.000 NA
ATOM     11  C   UNL     1      33.956  -5.466  30.716  0.00  0.00    +0.000 A 
ATOM     12  N   UNL     1      33.385  -4.671  31.598  0.00  0.00    +0.000 NA
ATOM     13  C   UNL     1      33.811  -4.671  32.828  0.00  0.00    +0.000 A 
ATOM     14  C   UNL     1      34.850  -5.516  33.131  0.00  0.00    +0.000 A 
ATOM     15  S   UNL     1      35.151  -6.264  31.626  0.00  0.00    +0.000 S 
BRANCH  10  17
ATOM     16  C   UNL     1      33.621  -7.820  28.352  0.00  0.00    +0.000 C 
ATOM     17  C   UNL     1      34.302  -6.484  28.478  0.00  0.00    +0.000 C 
ENDBRANCH  10  17
ENDBRANCH   1  13
BRANCH   7  18
ATOM     18  O   UNL     1      34.257   0.878  32.573  0.00  0.00    +0.000 OA
ATOM     19  C   UNL     1      33.937   2.220  32.778  0.00  0.00    +0.000 C 
ENDBRANCH   7  18
TORSDOF 3
ENDMDL
MODEL 2
REMARK VINA RESULT:      -5.7     28.970     32.007
REMARK  Name = 
REMARK  3 active torsions:
REMARK  status: ('A' for Active; 'I' for Inactive)
REMARK    1  A    between atoms: C_2  and  N_3
REMARK    2  A    between atoms: C_6  and  C_7
REMARK    3  A    between atoms: C_13  and  O_14
REMARK                            x       y       z     vdW  Elec       q    Type
REMARK                         _______ _______ _______ _____ _____    ______ ____
ROOT
ATOM      1  C   UNL     1      33.311  20.514  10.454  0.00  0.00    +0.000 A 
ATOM      2  C   UNL     1      33.084  20.242   9.117  0.00  0.00    +0.000 A 
ATOM      3  N   UNL     1      31.814  20.557   8.808  0.00  0.00    +0.000 NA
ATOM      4  C   UNL     1      31.181  21.032   9.897  0.00  0.00    +0.000 A 
ATOM      5  C   UNL     1      29.907  21.478  10.097  0.00  0.00    +0.000 A 
ATOM      6  C   UNL     1      29.503  21.922  11.344  0.00  0.00    +0.000 A 
ATOM      7  C   UNL     1      30.417  21.907  12.394  0.00  0.00    +0.000 A 
ATOM      8  C   UNL     1      31.701  21.453  12.176  0.00  0.00    +0.000 A 
ATOM      9  C   UNL     1      32.108  21.003  10.913  0.00  0.00    +0.000 A 
ENDROOT
BRANCH   1  13
ATOM     10  N   UNL     1      36.167  18.150  13.645  0.00  0.00    +0.000 NA
ATOM     11  C   UNL     1      35.863  19.208  12.710  0.00  0.00    +0.000 A 
ATOM     12  N   UNL     1      34.729  19.325  12.049  0.00  0.00    +0.000 NA
ATOM     13  C   UNL     1      34.566  20.324  11.231  0.00  0.00    +0.000 A 
ATOM     14  C   UNL     1      35.608  21.209  11.107  0.00  0.00    +0.000 A 
ATOM     15  S   UNL     1      36.763  20.551  12.178  0.00  0.00    +0.000 S 
BRANCH  10  17
ATOM     16  C   UNL     1      37.418  18.760  15.673  0.00  0.00    +0.000 C 
ATOM     17  C   UNL     1      37.461  18.159  14.294  0.00  0.00    +0.000 C 
ENDBRANCH  10  17
ENDBRANCH   1  13
BRANCH   7  18
ATOM     18  O   UNL     1      29.962  22.361  13.620  0.00  0.00    +0.000 OA
ATOM     19  C   UNL     1      29.144  23.486  13.710  0.00  0.00    +0.000 C 
ENDBRANCH   7  18
TORSDOF 3
ENDMDL
MODEL 3
REMARK VINA RESULT:      -5.7     28.119     30.969
REMARK  Name = 
REMARK  3 active torsions:
REMARK  status: ('A' for Active; 'I' for Inactive)
REMARK    1  A    between atoms: C_2  and  N_3
REMARK    2  A    between atoms: C_6  and  C_7
REMARK    3  A    between atoms: C_13  and  O_14
REMARK                            x       y       z     vdW  Elec       q    Type
REMARK                         _______ _______ _______ _____ _____    ______ ____
ROOT
ATOM      1  C   UNL     1      28.956  24.750  21.992  0.00  0.00    +0.000 A 
ATOM      2  C   UNL     1      27.894  23.869  21.899  0.00  0.00    +0.000 A 
ATOM      3  N   UNL     1      27.999  22.940  22.864  0.00  0.00    +0.000 NA
ATOM      4  C   UNL     1      29.100  23.168  23.604  0.00  0.00    +0.000 A 
ATOM      5  C   UNL     1      29.636  22.520  24.678  0.00  0.00    +0.000 A 
ATOM      6  C   UNL     1      30.805  22.973  25.263  0.00  0.00    +0.000 A 
ATOM      7  C   UNL     1      31.428  24.103  24.741  0.00  0.00    +0.000 A 
ATOM      8  C   UNL     1      30.873  24.747  23.655  0.00  0.00    +0.000 A 
ATOM      9  C   UNL     1      29.690  24.287  23.062  0.00  0.00    +0.000 A 
ENDROOT
BRANCH   1  13
ATOM     10  N   UNL     1      30.705  26.913  17.969  0.00  0.00    +0.000 NA
ATOM     11  C   UNL     1      30.067  26.902  19.265  0.00  0.00    +0.000 A 
ATOM     12  N   UNL     1      29.832  25.819  19.978  0.00  0.00    +0.000 NA
ATOM     13  C   UNL     1      29.249  25.931  21.137  0.00  0.00    +0.000 A 
ATOM     14  C   UNL     1      28.909  27.196  21.547  0.00  0.00    +0.000 A 
ATOM     15  S   UNL     1      29.450  28.152  20.241  0.00  0.00    +0.000 S 
BRANCH  10  17
ATOM     16  C   UNL     1      32.302  28.701  17.420  0.00  0.00    +0.000 C 
ATOM     17  C   UNL     1      30.893  28.187  17.308  0.00  0.00    +0.000 C 
ENDBRANCH  10  17
ENDBRANCH   1  13
BRANCH   7  18
ATOM     18  O   UNL     1      32.593  24.515  25.364  0.00  0.00    +0.000 OA
ATOM     19  C   UNL     1      32.771  24.348  26.736  0.00  0.00    +0.000 C 
ENDBRANCH   7  18
TORSDOF 3
ENDMDL
MODEL 4
REMARK VINA RESULT:      -5.7     15.721     17.382
REMARK  Name = 
REMARK  3 active torsions:
REMARK  status: ('A' for Active; 'I' for Inactive)
REMARK    1  A    between atoms: C_2  and  N_3
REMARK    2  A    between atoms: C_6  and  C_7
REMARK    3  A    between atoms: C_13  and  O_14
REMARK                            x       y       z     vdW  Elec       q    Type
REMARK                         _______ _______ _______ _____ _____    ______ ____
ROOT
ATOM      1  C   UNL     1      17.957  -7.837  27.305  0.00  0.00    +0.000 A 
ATOM      2  C   UNL     1      17.308  -6.629  27.129  0.00  0.00    +0.000 A 
ATOM      3  N   UNL     1      18.099  -5.796  26.431  0.00  0.00    +0.000 NA
ATOM      4  C   UNL     1      19.261  -6.407  26.133  0.00  0.00    +0.000 A 
ATOM      5  C   UNL     1      20.369  -5.992  25.453  0.00  0.00    +0.000 A 
ATOM      6  C   UNL     1      21.451  -6.839  25.286  0.00  0.00    +0.000 A 
ATOM      7  C   UNL     1      21.393  -8.122  25.821  0.00  0.00    +0.000 A 
ATOM      8  C   UNL     1      20.265  -8.526  26.506  0.00  0.00    +0.000 A 
ATOM      9  C   UNL     1      19.171  -7.668  26.675  0.00  0.00    +0.000 A 
ENDROOT
BRANCH   1  13
ATOM     10  N   UNL     1      17.537 -10.755  31.207  0.00  0.00    +0.000 NA
ATOM     11  C   UNL     1      17.290 -10.378  29.835  0.00  0.00    +0.000 A 
ATOM     12  N   UNL     1      17.754  -9.287  29.261  0.00  0.00    +0.000 NA
ATOM     13  C   UNL     1      17.467  -9.049  28.014  0.00  0.00    +0.000 A 
ATOM     14  C   UNL     1      16.683  -9.971  27.365  0.00  0.00    +0.000 A 
ATOM     15  S   UNL     1      16.406 -11.127  28.590  0.00  0.00    +0.000 S 
BRANCH  10  17
ATOM     16  C   UNL     1      15.612 -11.789  32.337  0.00  0.00    +0.000 C 
ATOM     17  C   UNL     1      16.957 -11.989  31.694  0.00  0.00    +0.000 C 
ENDBRANCH  10  17
ENDBRANCH   1  13
BRANCH   7  18
ATOM     18  O   UNL     1      22.501  -8.929  25.626  0.00  0.00    +0.000 OA
ATOM     19  C   UNL     1      23.445  -8.625  24.646  0.00  0.00    +0.000 C 
ENDBRANCH   7  18
TORSDOF 3
ENDMDL
MODEL 5
REMARK VINA RESULT:      -5.6     25.268     28.118
REMARK  Name = 
REMARK  3 active torsions:
REMARK  status: ('A' for Active; 'I' for Inactive)
REMARK    1  A    between atoms: C_2  and  N_3
REMARK    2  A    between atoms: C_6  and  C_7
REMARK    3  A    between atoms: C_13  and  O_14
REMARK                            x       y       z     vdW  Elec       q    Type
REMARK                         _______ _______ _______ _____ _____    ______ ____
ROOT
ATOM      1  C   UNL     1      28.389  23.205  26.119  0.00  0.00    +0.000 A 
ATOM      2  C   UNL     1      27.125  22.902  26.591  0.00  0.00    +0.000 A 
ATOM      3  N   UNL     1      26.251  22.924  25.569  0.00  0.00    +0.000 NA
ATOM      4  C   UNL     1      26.890  23.232  24.425  0.00  0.00    +0.000 A 
ATOM      5  C   UNL     1      26.454  23.376  23.140  0.00  0.00    +0.000 A 
ATOM      6  C   UNL     1      27.339  23.706  22.129  0.00  0.00    +0.000 A 
ATOM      7  C   UNL     1      28.683  23.889  22.441  0.00  0.00    +0.000 A 
ATOM      8  C   UNL     1      29.108  23.740  23.745  0.00  0.00    +0.000 A 
ATOM      9  C   UNL     1      28.211  23.406  24.768  0.00  0.00    +0.000 A 
ENDROOT
BRANCH   1  13
ATOM     10  N   UNL     1      32.066  21.320  28.736  0.00  0.00    +0.000 NA
ATOM     11  C   UNL     1      31.347  22.396  28.094  0.00  0.00    +0.000 A 
ATOM     12  N   UNL     1      30.221  22.253  27.425  0.00  0.00    +0.000 NA
ATOM     13  C   UNL     1      29.659  23.297  26.887  0.00  0.00    +0.000 A 
ATOM     14  C   UNL     1      30.291  24.504  27.056  0.00  0.00    +0.000 A 
ATOM     15  S   UNL     1      31.657  24.065  27.981  0.00  0.00    +0.000 S 
BRANCH  10  17
ATOM     16  C   UNL     1      33.274  21.203  30.875  0.00  0.00    +0.000 C 
ATOM     17  C   UNL     1      33.293  21.638  29.436  0.00  0.00    +0.000 C 
ENDBRANCH  10  17
ENDBRANCH   1  13
BRANCH   7  18
ATOM     18  O   UNL     1      29.526  24.217  21.393  0.00  0.00    +0.000 OA
ATOM     19  C   UNL     1      29.411  25.442  20.737  0.00  0.00    +0.000 C 
ENDBRANCH   7  18
TORSDOF 3
ENDMDL
MODEL 6
REMARK VINA RESULT:      -5.6     21.323     22.274
REMARK  Name = 
REMARK  3 active torsions:
REMARK  status: ('A' for Active; 'I' for Inactive)
REMARK    1  A    between atoms: C_2  and  N_3
REMARK    2  A    between atoms: C_6  and  C_7
REMARK    3  A    between atoms: C_13  and  O_14
REMARK                            x       y       z     vdW  Elec       q    Type
REMARK                         _______ _______ _______ _____ _____    ______ ____
ROOT
ATOM      1  C   UNL     1      18.248  11.442  37.742  0.00  0.00    +0.000 A 
ATOM      2  C   UNL     1      19.461  12.097  37.842  0.00  0.00    +0.000 A 
ATOM      3  N   UNL     1      20.134  11.626  38.907  0.00  0.00    +0.000 NA
ATOM      4  C   UNL     1      19.410  10.675  39.525  0.00  0.00    +0.000 A 
ATOM      5  C   UNL     1      19.650   9.909  40.628  0.00  0.00    +0.000 A 
ATOM      6  C   UNL     1      18.715   8.985  41.061  0.00  0.00    +0.000 A 
ATOM      7  C   UNL     1      17.525   8.846  40.354  0.00  0.00    +0.000 A 
ATOM      8  C   UNL     1      17.297   9.628  39.240  0.00  0.00    +0.000 A 
ATOM      9  C   UNL     1      18.243  10.564  38.803  0.00  0.00    +0.000 A 
ENDROOT
BRANCH   1  13
ATOM     10  N   UNL     1      16.267  10.843  33.310  0.00  0.00    +0.000 NA
ATOM     11  C   UNL     1      16.290  11.341  34.666  0.00  0.00    +0.000 A 
ATOM     12  N   UNL     1      17.268  11.136  35.525  0.00  0.00    +0.000 NA
ATOM     13  C   UNL     1      17.180  11.636  36.724  0.00  0.00    +0.000 A 
ATOM     14  C   UNL     1      16.050  12.357  37.020  0.00  0.00    +0.000 A 
ATOM     15  S   UNL     1      15.181  12.276  35.554  0.00  0.00    +0.000 S 
BRANCH  10  17
ATOM     16  C   UNL     1      14.384   9.925  32.021  0.00  0.00    +0.000 C 
ATOM     17  C   UNL     1      15.119  11.153  32.485  0.00  0.00    +0.000 C 
ENDBRANCH  10  17
ENDBRANCH   1  13
BRANCH   7  18
ATOM     18  O   UNL     1      16.625   7.908  40.828  0.00  0.00    +0.000 OA
ATOM     19  C   UNL     1      17.025   6.598  41.090  0.00  0.00    +0.000 C 
ENDBRANCH   7  18
TORSDOF 3
ENDMDL
MODEL 7
REMARK VINA RESULT:      -5.5     18.948     21.580
REMARK  Name = 
REMARK  3 active torsions:
REMARK  status: ('A' for Active; 'I' for Inactive)
REMARK    1  A    between atoms: C_2  and  N_3
REMARK    2  A    between atoms: C_6  and  C_7
REMARK    3  A    between atoms: C_13  and  O_14
REMARK                            x       y       z     vdW  Elec       q    Type
REMARK                         _______ _______ _______ _____ _____    ______ ____
ROOT
ATOM      1  C   UNL     1      17.122   8.981  40.640  0.00  0.00    +0.000 A 
ATOM      2  C   UNL     1      16.297   9.358  41.683  0.00  0.00    +0.000 A 
ATOM      3  N   UNL     1      16.182   8.338  42.551  0.00  0.00    +0.000 NA
ATOM      4  C   UNL     1      16.906   7.287  42.124  0.00  0.00    +0.000 A 
ATOM      5  C   UNL     1      17.112   6.041  42.641  0.00  0.00    +0.000 A 
ATOM      6  C   UNL     1      17.920   5.130  41.985  0.00  0.00    +0.000 A 
ATOM      7  C   UNL     1      18.522   5.502  40.787  0.00  0.00    +0.000 A 
ATOM      8  C   UNL     1      18.304   6.765  40.276  0.00  0.00    +0.000 A 
ATOM      9  C   UNL     1      17.485   7.687  40.941  0.00  0.00    +0.000 A 
ENDROOT
BRANCH   1  13
ATOM     10  N   UNL     1      16.335  11.080  36.293  0.00  0.00    +0.000 NA
ATOM     11  C   UNL     1      17.137  10.742  37.446  0.00  0.00    +0.000 A 
ATOM     12  N   UNL     1      16.718  10.025  38.469  0.00  0.00    +0.000 NA
ATOM     13  C   UNL     1      17.531   9.782  39.455  0.00  0.00    +0.000 A 
ATOM     14  C   UNL     1      18.800  10.300  39.363  0.00  0.00    +0.000 A 
ATOM     15  S   UNL     1      18.747  11.106  37.859  0.00  0.00    +0.000 S 
BRANCH  10  17
ATOM     16  C   UNL     1      16.731  11.297  33.875  0.00  0.00    +0.000 C 
ATOM     17  C   UNL     1      16.940  11.877  35.247  0.00  0.00    +0.000 C 
ENDBRANCH  10  17
ENDBRANCH   1  13
BRANCH   7  18
ATOM     18  O   UNL     1      19.320   4.553  40.171  0.00  0.00    +0.000 OA
ATOM     19  C   UNL     1      19.684   3.382  40.834  0.00  0.00    +0.000 C 
ENDBRANCH   7  18
TORSDOF 3
ENDMDL
MODEL 8
REMARK VINA RESULT:      -5.4      2.946      6.422
REMARK  Name = 
REMARK  3 active torsions:
REMARK  status: ('A' for Active; 'I' for Inactive)
REMARK    1  A    between atoms: C_2  and  N_3
REMARK    2  A    between atoms: C_6  and  C_7
REMARK    3  A    between atoms: C_13  and  O_14
REMARK                            x       y       z     vdW  Elec       q    Type
REMARK                         _______ _______ _______ _____ _____    ______ ____
ROOT
ATOM      1  C   UNL     1      34.035  -4.411  34.104  0.00  0.00    +0.000 A 
ATOM      2  C   UNL     1      34.708  -5.225  34.996  0.00  0.00    +0.000 A 
ATOM      3  N   UNL     1      35.033  -6.379  34.387  0.00  0.00    +0.000 NA
ATOM      4  C   UNL     1      34.598  -6.365  33.113  0.00  0.00    +0.000 A 
ATOM      5  C   UNL     1      34.678  -7.281  32.105  0.00  0.00    +0.000 A 
ATOM      6  C   UNL     1      34.135  -7.009  30.862  0.00  0.00    +0.000 A 
ATOM      7  C   UNL     1      33.503  -5.787  30.653  0.00  0.00    +0.000 A 
ATOM      8  C   UNL     1      33.430  -4.872  31.683  0.00  0.00    +0.000 A 
ATOM      9  C   UNL     1      33.980  -5.147  32.942  0.00  0.00    +0.000 A 
ENDROOT
BRANCH   1  13
ATOM     10  N   UNL     1      33.754   0.397  33.250  0.00  0.00    +0.000 NA
ATOM     11  C   UNL     1      33.380  -0.827  33.919  0.00  0.00    +0.000 A 
ATOM     12  N   UNL     1      33.903  -2.010  33.669  0.00  0.00    +0.000 NA
ATOM     13  C   UNL     1      33.487  -3.047  34.337  0.00  0.00    +0.000 A 
ATOM     14  C   UNL     1      32.510  -2.835  35.278  0.00  0.00    +0.000 A 
ATOM     15  S   UNL     1      32.248  -1.154  35.147  0.00  0.00    +0.000 S 
BRANCH  10  17
ATOM     16  C   UNL     1      33.791   2.854  33.139  0.00  0.00    +0.000 C 
ATOM     17  C   UNL     1      33.087   1.622  33.638  0.00  0.00    +0.000 C 
ENDBRANCH  10  17
ENDBRANCH   1  13
BRANCH   7  18
ATOM     18  O   UNL     1      32.977  -5.566  29.392  0.00  0.00    +0.000 OA
ATOM     19  C   UNL     1      33.534  -6.170  28.266  0.00  0.00    +0.000 C 
ENDBRANCH   7  18
TORSDOF 3
ENDMDL
MODEL 9
REMARK VINA RESULT:      -5.3     16.155     17.803
REMARK  Name = 
REMARK  3 active torsions:
REMARK  status: ('A' for Active; 'I' for Inactive)
REMARK    1  A    between atoms: C_2  and  N_3
REMARK    2  A    between atoms: C_6  and  C_7
REMARK    3  A    between atoms: C_13  and  O_14
REMARK                            x       y       z     vdW  Elec       q    Type
REMARK                         _______ _______ _______ _____ _____    ______ ____
ROOT
ATOM      1  C   UNL     1      17.937  -7.890  27.319  0.00  0.00    +0.000 A 
ATOM      2  C   UNL     1      17.259  -6.695  27.167  0.00  0.00    +0.000 A 
ATOM      3  N   UNL     1      18.027  -5.832  26.478  0.00  0.00    +0.000 NA
ATOM      4  C   UNL     1      19.201  -6.411  26.163  0.00  0.00    +0.000 A 
ATOM      5  C   UNL     1      20.295  -5.960  25.485  0.00  0.00    +0.000 A 
ATOM      6  C   UNL     1      21.395  -6.778  25.298  0.00  0.00    +0.000 A 
ATOM      7  C   UNL     1      21.370  -8.071  25.813  0.00  0.00    +0.000 A 
ATOM      8  C   UNL     1      20.256  -8.512  26.496  0.00  0.00    +0.000 A 
ATOM      9  C   UNL     1      19.143  -7.683  26.686  0.00  0.00    +0.000 A 
ENDROOT
BRANCH   1  13
ATOM     10  N   UNL     1      15.300 -11.995  27.655  0.00  0.00    +0.000 NA
ATOM     11  C   UNL     1      16.248 -11.018  28.136  0.00  0.00    +0.000 A 
ATOM     12  N   UNL     1      16.616  -9.939  27.476  0.00  0.00    +0.000 NA
ATOM     13  C   UNL     1      17.480  -9.125  28.011  0.00  0.00    +0.000 A 
ATOM     14  C   UNL     1      17.962  -9.453  29.254  0.00  0.00    +0.000 A 
ATOM     15  S   UNL     1      17.141 -10.913  29.581  0.00  0.00    +0.000 S 
BRANCH  10  17
ATOM     16  C   UNL     1      13.822 -12.889  29.407  0.00  0.00    +0.000 C 
ATOM     17  C   UNL     1      14.998 -13.131  28.500  0.00  0.00    +0.000 C 
ENDBRANCH  10  17
ENDBRANCH   1  13
BRANCH   7  18
ATOM     18  O   UNL     1      22.495  -8.848  25.598  0.00  0.00    +0.000 OA
ATOM     19  C   UNL     1      22.420 -10.240  25.613  0.00  0.00    +0.000 C 
ENDBRANCH   7  18
TORSDOF 3
ENDMDL
MODEL 10
REMARK VINA RESULT:      -5.2     19.572     22.039
REMARK  Name = 
REMARK  3 active torsions:
REMARK  status: ('A' for Active; 'I' for Inactive)
REMARK    1  A    between atoms: C_2  and  N_3
REMARK    2  A    between atoms: C_6  and  C_7
REMARK    3  A    between atoms: C_13  and  O_14
REMARK                            x       y       z     vdW  Elec       q    Type
REMARK                         _______ _______ _______ _____ _____    ______ ____
ROOT
ATOM      1  C   UNL     1      18.882  10.513  38.221  0.00  0.00    +0.000 A 
ATOM      2  C   UNL     1      19.977  11.349  38.342  0.00  0.00    +0.000 A 
ATOM      3  N   UNL     1      20.899  10.766  39.127  0.00  0.00    +0.000 NA
ATOM      4  C   UNL     1      20.457   9.562  39.538  0.00  0.00    +0.000 A 
ATOM      5  C   UNL     1      21.012   8.602  40.333  0.00  0.00    +0.000 A 
ATOM      6  C   UNL     1      20.329   7.430  40.603  0.00  0.00    +0.000 A 
ATOM      7  C   UNL     1      19.065   7.242  40.052  0.00  0.00    +0.000 A 
ATOM      8  C   UNL     1      18.518   8.223  39.250  0.00  0.00    +0.000 A 
ATOM      9  C   UNL     1      19.210   9.409  38.977  0.00  0.00    +0.000 A 
ENDROOT
BRANCH   1  13
ATOM     10  N   UNL     1      14.076  11.330  37.832  0.00  0.00    +0.000 NA
ATOM     11  C   UNL     1      15.404  11.122  37.305  0.00  0.00    +0.000 A 
ATOM     12  N   UNL     1      16.481  10.922  38.039  0.00  0.00    +0.000 NA
ATOM     13  C   UNL     1      17.629  10.744  37.453  0.00  0.00    +0.000 A 
ATOM     14  C   UNL     1      17.644  10.779  36.081  0.00  0.00    +0.000 A 
ATOM     15  S   UNL     1      16.002  11.064  35.714  0.00  0.00    +0.000 S 
BRANCH  10  17
ATOM     16  C   UNL     1      12.806  12.984  36.526  0.00  0.00    +0.000 C 
ATOM     17  C   UNL     1      12.992  11.537  36.895  0.00  0.00    +0.000 C 
ENDBRANCH  10  17
ENDBRANCH   1  13
BRANCH   7  18
ATOM     18  O   UNL     1      18.425   6.053  40.354  0.00  0.00    +0.000 OA
ATOM     19  C   UNL     1      17.284   6.035  41.155  0.00  0.00    +0.000 C 
ENDBRANCH   7  18
TORSDOF 3
ENDMDL
