MODEL 1
REMARK VINA RESULT:      -6.2      0.000      0.000
REMARK  Name = 
REMARK  4 active torsions:
REMARK  status: ('A' for Active; 'I' for Inactive)
REMARK    1  A    between atoms: C_2  and  O_3
REMARK    2  A    between atoms: O_3  and  C_4
REMARK    3  A    between atoms: C_4  and  C_6
REMARK    4  A    between atoms: C_9  and  C_10
REMARK                            x       y       z     vdW  Elec       q    Type
REMARK                         _______ _______ _______ _____ _____    ______ ____
ROOT
ATOM      1  C   UNL     1      28.102  23.939  24.205  0.00  0.00    +0.000 C 
ATOM      2  C   UNL     1      27.670  23.688  25.386  0.00  0.00    +0.000 C 
ATOM      3  C   UNL     1      28.585  24.025  26.543  0.00  0.00    +0.000 C 
ATOM      4  C   UNL     1      26.315  23.080  25.732  0.00  0.00    +0.000 C 
ATOM      5  N   UNL     1      25.604  22.838  24.474  0.00  0.00    +0.000 NA
ATOM      6  C   UNL     1      26.060  23.102  23.234  0.00  0.00    +0.000 C 
ATOM      7  O   UNL     1      25.383  22.864  22.178  0.00  0.00    +0.000 OA
ATOM      8  N   UNL     1      27.341  23.670  23.034  0.00  0.00    +0.000 N 
ATOM      9  C   UNL     1      27.837  23.957  21.713  0.00  0.00    +0.000 C 
ENDROOT
BRANCH   4  10
ATOM     10  C   UNL     1      25.600  24.340  26.331  0.00  0.00    +0.000 A 
ATOM     11  C   UNL     1      25.201  25.291  25.440  0.00  0.00    +0.000 A 
ATOM     12  C   UNL     1      24.550  26.458  25.908  0.00  0.00    +0.000 A 
ATOM     13  C   UNL     1      24.343  26.588  27.252  0.00  0.00    +0.000 A 
ATOM     14  C   UNL     1      24.748  25.627  28.126  0.00  0.00    +0.000 A 
ATOM     15  C   UNL     1      25.375  24.510  27.643  0.00  0.00    +0.000 A 
ATOM     16  F   UNL     1      25.808  23.510  28.445  0.00  0.00    +0.000 F 
ENDBRANCH   4  10
BRANCH   1  17
ATOM     17  C   UNL     1      29.439  24.535  23.961  0.00  0.00    +0.000 C 
ATOM     18  O   UNL     1      29.624  25.760  24.104  0.00  0.00    +0.000 OA
BRANCH  17  19
ATOM     19  O   UNL     1      30.508  23.750  23.570  0.00  0.00    +0.000 OA
BRANCH  19  21
ATOM     20  C   UNL     1      32.556  24.011  24.745  0.00  0.00    +0.000 C 
ATOM     21  C   UNL     1      31.320  23.124  24.545  0.00  0.00    +0.000 C 
ENDBRANCH  19  21
ENDBRANCH  17  19
ENDBRANCH   1  17
TORSDOF 4
ENDMDL
MODEL 2
REMARK VINA RESULT:      -5.9      0.880      1.657
REMARK  Name = 
REMARK  4 active torsions:
REMARK  status: ('A' for Active; 'I' for Inactive)
REMARK    1  A    between atoms: C_2  and  O_3
REMARK    2  A    between atoms: O_3  and  C_4
REMARK    3  A    between atoms: C_4  and  C_6
REMARK    4  A    between atoms: C_9  and  C_10
REMARK                            x       y       z     vdW  Elec       q    Type
REMARK                         _______ _______ _______ _____ _____    ______ ____
ROOT
ATOM      1  C   UNL     1      28.206  23.836  24.142  0.00  0.00    +0.000 C 
ATOM      2  C   UNL     1      27.783  23.544  25.317  0.00  0.00    +0.000 C 
ATOM      3  C   UNL     1      28.726  23.799  26.473  0.00  0.00    +0.000 C 
ATOM      4  C   UNL     1      26.416  22.962  25.657  0.00  0.00    +0.000 C 
ATOM      5  N   UNL     1      25.679  22.799  24.401  0.00  0.00    +0.000 NA
ATOM      6  C   UNL     1      26.124  23.106  23.167  0.00  0.00    +0.000 C 
ATOM      7  O   UNL     1      25.425  22.937  22.113  0.00  0.00    +0.000 OA
ATOM      8  N   UNL     1      27.420  23.644  22.973  0.00  0.00    +0.000 N 
ATOM      9  C   UNL     1      27.905  23.975  21.658  0.00  0.00    +0.000 C 
ENDROOT
BRANCH   4  10
ATOM     10  C   UNL     1      25.750  24.214  26.324  0.00  0.00    +0.000 A 
ATOM     11  C   UNL     1      25.378  25.222  25.485  0.00  0.00    +0.000 A 
ATOM     12  C   UNL     1      24.771  26.386  26.016  0.00  0.00    +0.000 A 
ATOM     13  C   UNL     1      24.578  26.455  27.367  0.00  0.00    +0.000 A 
ATOM     14  C   UNL     1      24.955  25.438  28.188  0.00  0.00    +0.000 A 
ATOM     15  C   UNL     1      25.539  24.326  27.645  0.00  0.00    +0.000 A 
ATOM     16  F   UNL     1      25.943  23.272  28.392  0.00  0.00    +0.000 F 
ENDBRANCH   4  10
BRANCH   1  17
ATOM     17  C   UNL     1      29.557  24.401  23.903  0.00  0.00    +0.000 C 
ATOM     18  O   UNL     1      30.509  23.659  23.590  0.00  0.00    +0.000 OA
BRANCH  17  19
ATOM     19  O   UNL     1      29.792  25.758  24.019  0.00  0.00    +0.000 OA
BRANCH  19  21
ATOM     20  C   UNL     1      28.596  27.324  25.346  0.00  0.00    +0.000 C 
ATOM     21  C   UNL     1      28.713  26.671  23.962  0.00  0.00    +0.000 C 
ENDBRANCH  19  21
ENDBRANCH  17  19
ENDBRANCH   1  17
TORSDOF 4
ENDMDL
MODEL 3
REMARK VINA RESULT:      -5.7     20.511     22.373
REMARK  Name = 
REMARK  4 active torsions:
REMARK  status: ('A' for Active; 'I' for Inactive)
REMARK    1  A    between atoms: C_2  and  O_3
REMARK    2  A    between atoms: O_3  and  C_4
REMARK    3  A    between atoms: C_4  and  C_6
REMARK    4  A    between atoms: C_9  and  C_10
REMARK                            x       y       z     vdW  Elec       q    Type
REMARK                         _______ _______ _______ _____ _____    ______ ____
ROOT
ATOM      1  C   UNL     1      18.529   9.991  37.386  0.00  0.00    +0.000 C 
ATOM      2  C   UNL     1      17.843  10.113  38.462  0.00  0.00    +0.000 C 
ATOM      3  C   UNL     1      16.346  10.273  38.313  0.00  0.00    +0.000 C 
ATOM      4  C   UNL     1      18.398  10.111  39.881  0.00  0.00    +0.000 C 
ATOM      5  N   UNL     1      19.851   9.945  39.789  0.00  0.00    +0.000 NA
ATOM      6  C   UNL     1      20.571   9.817  38.657  0.00  0.00    +0.000 C 
ATOM      7  O   UNL     1      21.839   9.676  38.651  0.00  0.00    +0.000 OA
ATOM      8  N   UNL     1      19.942   9.834  37.388  0.00  0.00    +0.000 N 
ATOM      9  C   UNL     1      20.702   9.697  36.173  0.00  0.00    +0.000 C 
ENDROOT
BRANCH   4  10
ATOM     10  C   UNL     1      17.891   8.710  40.368  0.00  0.00    +0.000 A 
ATOM     11  C   UNL     1      18.617   7.630  39.965  0.00  0.00    +0.000 A 
ATOM     12  C   UNL     1      18.218   6.330  40.363  0.00  0.00    +0.000 A 
ATOM     13  C   UNL     1      17.106   6.208  41.147  0.00  0.00    +0.000 A 
ATOM     14  C   UNL     1      16.395   7.299  41.540  0.00  0.00    +0.000 A 
ATOM     15  C   UNL     1      16.805   8.541  41.139  0.00  0.00    +0.000 A 
ATOM     16  F   UNL     1      16.154   9.676  41.485  0.00  0.00    +0.000 F 
ENDBRANCH   4  10
BRANCH   1  17
ATOM     17  C   UNL     1      17.902  10.003  36.041  0.00  0.00    +0.000 C 
ATOM     18  O   UNL     1      17.609   8.935  35.467  0.00  0.00    +0.000 OA
BRANCH  17  19
ATOM     19  O   UNL     1      17.629  11.193  35.393  0.00  0.00    +0.000 OA
BRANCH  19  21
ATOM     20  C   UNL     1      15.387  11.706  34.796  0.00  0.00    +0.000 C 
ATOM     21  C   UNL     1      16.748  11.210  34.286  0.00  0.00    +0.000 C 
ENDBRANCH  19  21
ENDBRANCH  17  19
ENDBRANCH   1  17
TORSDOF 4
ENDMDL
MODEL 4
REMARK VINA RESULT:      -5.7     19.248     20.745
REMARK  Name = 
REMARK  4 active torsions:
REMARK  status: ('A' for Active; 'I' for Inactive)
REMARK    1  A    between atoms: C_2  and  O_3
REMARK    2  A    between atoms: O_3  and  C_4
REMARK    3  A    between atoms: C_4  and  C_6
REMARK    4  A    between atoms: C_9  and  C_10
REMARK                            x       y       z     vdW  Elec       q    Type
REMARK                         _______ _______ _______ _____ _____    ______ ____
ROOT
ATOM      1  C   UNL     1      20.333  10.599  38.851  0.00  0.00    +0.000 C 
ATOM      2  C   UNL     1      19.240  11.193  38.540  0.00  0.00    +0.000 C 
ATOM      3  C   UNL     1      19.345  12.614  38.032  0.00  0.00    +0.000 C 
ATOM      4  C   UNL     1      17.840  10.597  38.635  0.00  0.00    +0.000 C 
ATOM      5  N   UNL     1      17.974   9.229  39.144  0.00  0.00    +0.000 NA
ATOM      6  C   UNL     1      19.124   8.607  39.471  0.00  0.00    +0.000 C 
ATOM      7  O   UNL     1      19.167   7.409  39.910  0.00  0.00    +0.000 OA
ATOM      8  N   UNL     1      20.371   9.265  39.340  0.00  0.00    +0.000 N 
ATOM      9  C   UNL     1      21.605   8.608  39.686  0.00  0.00    +0.000 C 
ENDROOT
BRANCH   4  10
ATOM     10  C   UNL     1      17.527  10.402  37.112  0.00  0.00    +0.000 A 
ATOM     11  C   UNL     1      18.158   9.366  36.491  0.00  0.00    +0.000 A 
ATOM     12  C   UNL     1      17.926   9.128  35.115  0.00  0.00    +0.000 A 
ATOM     13  C   UNL     1      17.065   9.957  34.452  0.00  0.00    +0.000 A 
ATOM     14  C   UNL     1      16.443  10.986  35.090  0.00  0.00    +0.000 A 
ATOM     15  C   UNL     1      16.688  11.190  36.420  0.00  0.00    +0.000 A 
ATOM     16  F   UNL     1      16.111  12.189  37.127  0.00  0.00    +0.000 F 
ENDBRANCH   4  10
BRANCH   1  17
ATOM     17  C   UNL     1      21.656  11.259  38.726  0.00  0.00    +0.000 C 
ATOM     18  O   UNL     1      22.186  11.811  39.710  0.00  0.00    +0.000 OA
BRANCH  17  19
ATOM     19  O   UNL     1      22.332  11.277  37.519  0.00  0.00    +0.000 OA
BRANCH  19  21
ATOM     20  C   UNL     1      23.389   9.431  36.462  0.00  0.00    +0.000 C 
ATOM     21  C   UNL     1      23.584  10.630  37.400  0.00  0.00    +0.000 C 
ENDBRANCH  19  21
ENDBRANCH  17  19
ENDBRANCH   1  17
TORSDOF 4
ENDMDL
MODEL 5
REMARK VINA RESULT:      -5.7     32.939     34.488
REMARK  Name = 
REMARK  4 active torsions:
REMARK  status: ('A' for Active; 'I' for Inactive)
REMARK    1  A    between atoms: C_2  and  O_3
REMARK    2  A    between atoms: O_3  and  C_4
REMARK    3  A    between atoms: C_4  and  C_6
REMARK    4  A    between atoms: C_9  and  C_10
REMARK                            x       y       z     vdW  Elec       q    Type
REMARK                         _______ _______ _______ _____ _____    ______ ____
ROOT
ATOM      1  C   UNL     1      16.811  -9.658  27.120  0.00  0.00    +0.000 C 
ATOM      2  C   UNL     1      17.375  -8.619  27.616  0.00  0.00    +0.000 C 
ATOM      3  C   UNL     1      18.320  -8.834  28.778  0.00  0.00    +0.000 C 
ATOM      4  C   UNL     1      17.179  -7.184  27.142  0.00  0.00    +0.000 C 
ATOM      5  N   UNL     1      16.235  -7.211  26.022  0.00  0.00    +0.000 NA
ATOM      6  C   UNL     1      15.643  -8.304  25.502  0.00  0.00    +0.000 C 
ATOM      7  O   UNL     1      14.827  -8.254  24.522  0.00  0.00    +0.000 OA
ATOM      8  N   UNL     1      15.903  -9.593  26.029  0.00  0.00    +0.000 N 
ATOM      9  C   UNL     1      15.276 -10.767  25.480  0.00  0.00    +0.000 C 
ENDROOT
BRANCH   4  10
ATOM     10  C   UNL     1      18.567  -6.936  26.457  0.00  0.00    +0.000 A 
ATOM     11  C   UNL     1      19.214  -8.037  25.983  0.00  0.00    +0.000 A 
ATOM     12  C   UNL     1      20.474  -7.892  25.352  0.00  0.00    +0.000 A 
ATOM     13  C   UNL     1      21.000  -6.635  25.243  0.00  0.00    +0.000 A 
ATOM     14  C   UNL     1      20.338  -5.548  25.722  0.00  0.00    +0.000 A 
ATOM     15  C   UNL     1      19.123  -5.720  26.326  0.00  0.00    +0.000 A 
ATOM     16  F   UNL     1      18.402  -4.692  26.829  0.00  0.00    +0.000 F 
ENDBRANCH   4  10
BRANCH   1  17
ATOM     17  C   UNL     1      17.061 -11.023  27.647  0.00  0.00    +0.000 C 
ATOM     18  O   UNL     1      16.430 -11.447  28.636  0.00  0.00    +0.000 OA
BRANCH  17  19
ATOM     19  O   UNL     1      17.994 -11.855  27.057  0.00  0.00    +0.000 OA
BRANCH  19  21
ATOM     20  C   UNL     1      20.337 -11.476  27.169  0.00  0.00    +0.000 C 
ATOM     21  C   UNL     1      19.151 -12.241  27.773  0.00  0.00    +0.000 C 
ENDBRANCH  19  21
ENDBRANCH  17  19
ENDBRANCH   1  17
TORSDOF 4
ENDMDL
MODEL 6
REMARK VINA RESULT:      -5.5     32.829     34.225
REMARK  Name = 
REMARK  4 active torsions:
REMARK  status: ('A' for Active; 'I' for Inactive)
REMARK    1  A    between atoms: C_2  and  O_3
REMARK    2  A    between atoms: O_3  and  C_4
REMARK    3  A    between atoms: C_4  and  C_6
REMARK    4  A    between atoms: C_9  and  C_10
REMARK                            x       y       z     vdW  Elec       q    Type
REMARK                         _______ _______ _______ _____ _____    ______ ____
ROOT
ATOM      1  C   UNL     1      19.560  -8.171  25.654  0.00  0.00    +0.000 C 
ATOM      2  C   UNL     1      18.667  -9.065  25.872  0.00  0.00    +0.000 C 
ATOM      3  C   UNL     1      19.027 -10.496  25.540  0.00  0.00    +0.000 C 
ATOM      4  C   UNL     1      17.274  -8.818  26.438  0.00  0.00    +0.000 C 
ATOM      5  N   UNL     1      17.144  -7.380  26.684  0.00  0.00    +0.000 NA
ATOM      6  C   UNL     1      18.083  -6.441  26.453  0.00  0.00    +0.000 C 
ATOM      7  O   UNL     1      17.900  -5.201  26.692  0.00  0.00    +0.000 OA
ATOM      8  N   UNL     1      19.348  -6.791  25.922  0.00  0.00    +0.000 N 
ATOM      9  C   UNL     1      20.358  -5.796  25.673  0.00  0.00    +0.000 C 
ENDROOT
BRANCH   4  10
ATOM     10  C   UNL     1      17.452  -9.429  27.870  0.00  0.00    +0.000 A 
ATOM     11  C   UNL     1      18.452  -8.905  28.632  0.00  0.00    +0.000 A 
ATOM     12  C   UNL     1      18.675  -9.408  29.937  0.00  0.00    +0.000 A 
ATOM     13  C   UNL     1      17.867 -10.413  30.388  0.00  0.00    +0.000 A 
ATOM     14  C   UNL     1      16.874 -10.924  29.612  0.00  0.00    +0.000 A 
ATOM     15  C   UNL     1      16.683 -10.416  28.356  0.00  0.00    +0.000 A 
ATOM     16  F   UNL     1      15.718 -10.869  27.522  0.00  0.00    +0.000 F 
ENDBRANCH   4  10
BRANCH   1  17
ATOM     17  C   UNL     1      20.895  -8.503  25.099  0.00  0.00    +0.000 C 
ATOM     18  O   UNL     1      21.053  -8.654  23.871  0.00  0.00    +0.000 OA
BRANCH  17  19
ATOM     19  O   UNL     1      21.993  -8.653  25.926  0.00  0.00    +0.000 OA
BRANCH  19  21
ATOM     20  C   UNL     1      22.271 -10.512  27.378  0.00  0.00    +0.000 C 
ATOM     21  C   UNL     1      22.644  -9.905  26.019  0.00  0.00    +0.000 C 
ENDBRANCH  19  21
ENDBRANCH  17  19
ENDBRANCH   1  17
TORSDOF 4
ENDMDL
MODEL 7
REMARK VINA RESULT:      -5.5      2.969      5.421
REMARK  Name = 
REMARK  4 active torsions:
REMARK  status: ('A' for Active; 'I' for Inactive)
REMARK    1  A    between atoms: C_2  and  O_3
REMARK    2  A    between atoms: O_3  and  C_4
REMARK    3  A    between atoms: C_4  and  C_6
REMARK    4  A    between atoms: C_9  and  C_10
REMARK                            x       y       z     vdW  Elec       q    Type
REMARK                         _______ _______ _______ _____ _____    ______ ____
ROOT
ATOM      1  C   UNL     1      27.659  23.730  26.228  0.00  0.00    +0.000 C 
ATOM      2  C   UNL     1      27.209  23.654  25.030  0.00  0.00    +0.000 C 
ATOM      3  C   UNL     1      25.790  24.122  24.794  0.00  0.00    +0.000 C 
ATOM      4  C   UNL     1      27.974  23.134  23.818  0.00  0.00    +0.000 C 
ATOM      5  N   UNL     1      29.310  22.740  24.273  0.00  0.00    +0.000 NA
ATOM      6  C   UNL     1      29.782  22.821  25.533  0.00  0.00    +0.000 C 
ATOM      7  O   UNL     1      30.961  22.458  25.859  0.00  0.00    +0.000 OA
ATOM      8  N   UNL     1      28.974  23.323  26.583  0.00  0.00    +0.000 N 
ATOM      9  C   UNL     1      29.469  23.414  27.932  0.00  0.00    +0.000 C 
ENDROOT
BRANCH   4  10
ATOM     10  C   UNL     1      28.219  24.481  23.056  0.00  0.00    +0.000 A 
ATOM     11  C   UNL     1      29.170  25.308  23.576  0.00  0.00    +0.000 A 
ATOM     12  C   UNL     1      29.446  26.544  22.943  0.00  0.00    +0.000 A 
ATOM     13  C   UNL     1      28.738  26.865  21.819  0.00  0.00    +0.000 A 
ATOM     14  C   UNL     1      27.793  26.027  21.314  0.00  0.00    +0.000 A 
ATOM     15  C   UNL     1      27.550  24.840  21.949  0.00  0.00    +0.000 A 
ATOM     16  F   UNL     1      26.627  23.951  21.512  0.00  0.00    +0.000 F 
ENDBRANCH   4  10
BRANCH   1  17
ATOM     17  C   UNL     1      26.841  24.252  27.350  0.00  0.00    +0.000 C 
ATOM     18  O   UNL     1      26.840  25.469  27.623  0.00  0.00    +0.000 OA
BRANCH  17  19
ATOM     19  O   UNL     1      26.062  23.406  28.118  0.00  0.00    +0.000 OA
BRANCH  19  21
ATOM     20  C   UNL     1      26.538  22.172  30.092  0.00  0.00    +0.000 C 
ATOM     21  C   UNL     1      26.071  23.521  29.528  0.00  0.00    +0.000 C 
ENDBRANCH  19  21
ENDBRANCH  17  19
ENDBRANCH   1  17
TORSDOF 4
ENDMDL
MODEL 8
REMARK VINA RESULT:      -5.5      2.770      4.577
REMARK  Name = 
REMARK  4 active torsions:
REMARK  status: ('A' for Active; 'I' for Inactive)
REMARK    1  A    between atoms: C_2  and  O_3
REMARK    2  A    between atoms: O_3  and  C_4
REMARK    3  A    between atoms: C_4  and  C_6
REMARK    4  A    between atoms: C_9  and  C_10
REMARK                            x       y       z     vdW  Elec       q    Type
REMARK                         _______ _______ _______ _____ _____    ______ ____
ROOT
ATOM      1  C   UNL     1      28.023  23.370  24.711  0.00  0.00    +0.000 C 
ATOM      2  C   UNL     1      28.944  22.704  25.305  0.00  0.00    +0.000 C 
ATOM      3  C   UNL     1      30.157  22.320  24.485  0.00  0.00    +0.000 C 
ATOM      4  C   UNL     1      28.931  22.263  26.764  0.00  0.00    +0.000 C 
ATOM      5  N   UNL     1      27.679  22.738  27.358  0.00  0.00    +0.000 NA
ATOM      6  C   UNL     1      26.711  23.437  26.733  0.00  0.00    +0.000 C 
ATOM      7  O   UNL     1      25.642  23.820  27.316  0.00  0.00    +0.000 OA
ATOM      8  N   UNL     1      26.835  23.791  25.368  0.00  0.00    +0.000 N 
ATOM      9  C   UNL     1      25.807  24.539  24.691  0.00  0.00    +0.000 C 
ENDROOT
BRANCH   4  10
ATOM     10  C   UNL     1      30.015  23.232  27.348  0.00  0.00    +0.000 A 
ATOM     11  C   UNL     1      29.718  24.562  27.319  0.00  0.00    +0.000 A 
ATOM     12  C   UNL     1      30.650  25.499  27.828  0.00  0.00    +0.000 A 
ATOM     13  C   UNL     1      31.828  25.028  28.336  0.00  0.00    +0.000 A 
ATOM     14  C   UNL     1      32.106  23.696  28.357  0.00  0.00    +0.000 A 
ATOM     15  C   UNL     1      31.185  22.816  27.858  0.00  0.00    +0.000 A 
ATOM     16  F   UNL     1      31.385  21.477  27.841  0.00  0.00    +0.000 F 
ENDBRANCH   4  10
BRANCH   1  17
ATOM     17  C   UNL     1      28.121  23.758  23.283  0.00  0.00    +0.000 C 
ATOM     18  O   UNL     1      27.590  23.058  22.397  0.00  0.00    +0.000 OA
BRANCH  17  19
ATOM     19  O   UNL     1      28.799  24.900  22.899  0.00  0.00    +0.000 OA
BRANCH  19  21
ATOM     20  C   UNL     1      29.047  26.299  20.994  0.00  0.00    +0.000 C 
ATOM     21  C   UNL     1      29.430  24.957  21.634  0.00  0.00    +0.000 C 
ENDBRANCH  19  21
ENDBRANCH  17  19
ENDBRANCH   1  17
TORSDOF 4
ENDMDL
MODEL 9
REMARK VINA RESULT:      -5.4      3.127      5.730
REMARK  Name = 
REMARK  4 active torsions:
REMARK  status: ('A' for Active; 'I' for Inactive)
REMARK    1  A    between atoms: C_2  and  O_3
REMARK    2  A    between atoms: O_3  and  C_4
REMARK    3  A    between atoms: C_4  and  C_6
REMARK    4  A    between atoms: C_9  and  C_10
REMARK                            x       y       z     vdW  Elec       q    Type
REMARK                         _______ _______ _______ _____ _____    ______ ____
ROOT
ATOM      1  C   UNL     1      27.723  23.151  25.990  0.00  0.00    +0.000 C 
ATOM      2  C   UNL     1      28.812  22.848  25.383  0.00  0.00    +0.000 C 
ATOM      3  C   UNL     1      28.818  22.969  23.875  0.00  0.00    +0.000 C 
ATOM      4  C   UNL     1      30.102  22.378  26.043  0.00  0.00    +0.000 C 
ATOM      5  N   UNL     1      29.871  22.335  27.489  0.00  0.00    +0.000 NA
ATOM      6  C   UNL     1      28.726  22.654  28.125  0.00  0.00    +0.000 C 
ATOM      7  O   UNL     1      28.595  22.593  29.394  0.00  0.00    +0.000 OA
ATOM      8  N   UNL     1      27.585  23.081  27.403  0.00  0.00    +0.000 N 
ATOM      9  C   UNL     1      26.358  23.423  28.074  0.00  0.00    +0.000 C 
ENDROOT
BRANCH   4  10
ATOM     10  C   UNL     1      30.989  23.654  25.842  0.00  0.00    +0.000 A 
ATOM     11  C   UNL     1      30.703  24.722  26.639  0.00  0.00    +0.000 A 
ATOM     12  C   UNL     1      31.461  25.912  26.514  0.00  0.00    +0.000 A 
ATOM     13  C   UNL     1      32.463  25.944  25.585  0.00  0.00    +0.000 A 
ATOM     14  C   UNL     1      32.733  24.868  24.799  0.00  0.00    +0.000 A 
ATOM     15  C   UNL     1      31.984  23.733  24.944  0.00  0.00    +0.000 A 
ATOM     16  F   UNL     1      32.187  22.620  24.201  0.00  0.00    +0.000 F 
ENDBRANCH   4  10
BRANCH   1  17
ATOM     17  C   UNL     1      26.510  23.602  25.264  0.00  0.00    +0.000 C 
ATOM     18  O   UNL     1      25.636  22.783  24.917  0.00  0.00    +0.000 OA
BRANCH  17  19
ATOM     19  O   UNL     1      26.319  24.937  24.956  0.00  0.00    +0.000 OA
BRANCH  19  21
ATOM     20  C   UNL     1      27.987  26.532  24.392  0.00  0.00    +0.000 C 
ATOM     21  C   UNL     1      27.156  25.922  25.530  0.00  0.00    +0.000 C 
ENDBRANCH  19  21
ENDBRANCH  17  19
ENDBRANCH   1  17
TORSDOF 4
ENDMDL
MODEL 10
REMARK VINA RESULT:      -5.4     33.190     34.838
REMARK  Name = 
REMARK  4 active torsions:
REMARK  status: ('A' for Active; 'I' for Inactive)
REMARK    1  A    between atoms: C_2  and  O_3
REMARK    2  A    between atoms: O_3  and  C_4
REMARK    3  A    between atoms: C_4  and  C_6
REMARK    4  A    between atoms: C_9  and  C_10
REMARK                            x       y       z     vdW  Elec       q    Type
REMARK                         _______ _______ _______ _____ _____    ______ ____
ROOT
ATOM      1  C   UNL     1      17.156 -10.296  26.386  0.00  0.00    +0.000 C 
ATOM      2  C   UNL     1      18.292  -9.817  26.033  0.00  0.00    +0.000 C 
ATOM      3  C   UNL     1      18.578  -9.743  24.549  0.00  0.00    +0.000 C 
ATOM      4  C   UNL     1      19.382  -9.314  26.972  0.00  0.00    +0.000 C 
ATOM      5  N   UNL     1      18.895  -9.478  28.344  0.00  0.00    +0.000 NA
ATOM      6  C   UNL     1      17.702  -9.982  28.714  0.00  0.00    +0.000 C 
ATOM      7  O   UNL     1      17.343 -10.096  29.934  0.00  0.00    +0.000 OA
ATOM      8  N   UNL     1      16.764 -10.420  27.747  0.00  0.00    +0.000 N 
ATOM      9  C   UNL     1      15.486 -10.960  28.133  0.00  0.00    +0.000 C 
ENDROOT
BRANCH   4  10
ATOM     10  C   UNL     1      19.268  -7.773  26.714  0.00  0.00    +0.000 A 
ATOM     11  C   UNL     1      18.199  -7.142  27.276  0.00  0.00    +0.000 A 
ATOM     12  C   UNL     1      18.028  -5.749  27.086  0.00  0.00    +0.000 A 
ATOM     13  C   UNL     1      18.955  -5.081  26.336  0.00  0.00    +0.000 A 
ATOM     14  C   UNL     1      20.016  -5.728  25.784  0.00  0.00    +0.000 A 
ATOM     15  C   UNL     1      20.154  -7.074  25.986  0.00  0.00    +0.000 A 
ATOM     16  F   UNL     1      21.179  -7.792  25.471  0.00  0.00    +0.000 F 
ENDBRANCH   4  10
BRANCH   1  17
ATOM     17  C   UNL     1      16.151 -10.764  25.400  0.00  0.00    +0.000 C 
ATOM     18  O   UNL     1      16.092 -11.967  25.076  0.00  0.00    +0.000 OA
BRANCH  17  19
ATOM     19  O   UNL     1      15.259  -9.882  24.819  0.00  0.00    +0.000 OA
BRANCH  19  21
ATOM     20  C   UNL     1      13.710  -8.502  25.977  0.00  0.00    +0.000 C 
ATOM     21  C   UNL     1      15.107  -8.578  25.347  0.00  0.00    +0.000 C 
ENDBRANCH  19  21
ENDBRANCH  17  19
ENDBRANCH   1  17
TORSDOF 4
ENDMDL
