MODEL 1
REMARK VINA RESULT:      -7.6      0.000      0.000
REMARK  Name = 
REMARK  7 active torsions:
REMARK  status: ('A' for Active; 'I' for Inactive)
REMARK    1  A    between atoms: C_2  and  O_3
REMARK    2  A    between atoms: O_3  and  C_4
REMARK    3  A    between atoms: C_7  and  C_8
REMARK    4  A    between atoms: C_10  and  C_11
REMARK    5  A    between atoms: N_13  and  C_14
REMARK    6  A    between atoms: C_23  and  O_24
REMARK    7  A    between atoms: C_26  and  O_27
REMARK                            x       y       z     vdW  Elec       q    Type
REMARK                         _______ _______ _______ _____ _____    ______ ____
ROOT
ATOM      1  C   UNL     1      38.744   5.006  16.843  0.00  0.00    +0.000 A 
ATOM      2  C   UNL     1      37.803   4.015  16.831  0.00  0.00    +0.000 A 
ATOM      3  C   UNL     1      37.708   3.095  15.786  0.00  0.00    +0.000 A 
ATOM      4  C   UNL     1      38.595   3.204  14.748  0.00  0.00    +0.000 A 
ATOM      5  C   UNL     1      39.563   4.205  14.738  0.00  0.00    +0.000 A 
ATOM      6  C   UNL     1      40.429   4.266  13.667  0.00  0.00    +0.000 A 
ATOM      7  C   UNL     1      41.380   5.263  13.674  0.00  0.00    +0.000 A 
ATOM      8  C   UNL     1      41.456   6.161  14.717  0.00  0.00    +0.000 A 
ATOM      9  C   UNL     1      40.576   6.098  15.803  0.00  0.00    +0.000 A 
ATOM     10  C   UNL     1      39.629   5.102  15.793  0.00  0.00    +0.000 A 
ENDROOT
BRANCH   1  14
ATOM     11  C   UNL     1      38.938   7.813  20.065  0.00  0.00    +0.000 A 
ATOM     12  C   UNL     1      39.786   6.733  20.033  0.00  0.00    +0.000 A 
ATOM     13  C   UNL     1      39.719   5.819  18.979  0.00  0.00    +0.000 A 
ATOM     14  C   UNL     1      38.822   5.960  17.955  0.00  0.00    +0.000 A 
ATOM     15  C   UNL     1      37.973   7.049  17.994  0.00  0.00    +0.000 A 
ATOM     16  C   UNL     1      38.032   7.967  19.042  0.00  0.00    +0.000 A 
BRANCH  11  17
ATOM     17  O   UNL     1      38.948   8.757  21.077  0.00  0.00    +0.000 OA
BRANCH  17  19
ATOM     18  C   UNL     1      40.172  10.776  20.937  0.00  0.00    +0.000 C 
ATOM     19  C   UNL     1      38.816  10.128  20.870  0.00  0.00    +0.000 C 
ENDBRANCH  17  19
ENDBRANCH  11  17
ENDBRANCH   1  14
BRANCH   3  20
ATOM     20  C   UNL     1      36.683   2.055  15.821  0.00  0.00    +0.000 C 
ATOM     21  O   UNL     1      35.545   2.195  15.359  0.00  0.00    +0.000 OA
ATOM     22  N   UNL     1      37.015   0.815  16.421  0.00  0.00    +0.000 NA
BRANCH  22  23
ATOM     23  C   UNL     1      36.102  -0.271  16.513  0.00  0.00    +0.000 A 
ATOM     24  C   UNL     1      35.076  -0.341  17.417  0.00  0.00    +0.000 A 
ATOM     25  C   UNL     1      34.218  -1.425  17.462  0.00  0.00    +0.000 A 
ATOM     26  C   UNL     1      34.383  -2.469  16.584  0.00  0.00    +0.000 A 
ATOM     27  C   UNL     1      35.408  -2.426  15.664  0.00  0.00    +0.000 A 
ATOM     28  C   UNL     1      36.261  -1.323  15.635  0.00  0.00    +0.000 A 
ENDBRANCH  22  23
ENDBRANCH   3  20
BRANCH   7  29
ATOM     29  O   UNL     1      42.270   5.347  12.599  0.00  0.00    +0.000 OA
ATOM     30  C   UNL     1      43.337   4.428  12.463  0.00  0.00    +0.000 C 
ENDBRANCH   7  29
BRANCH   8  31
ATOM     31  O   UNL     1      42.440   7.132  14.647  0.00  0.00    +0.000 OA
ATOM     32  C   UNL     1      43.543   7.041  15.521  0.00  0.00    +0.000 C 
ENDBRANCH   8  31
TORSDOF 7
ENDMDL
MODEL 2
REMARK VINA RESULT:      -7.4      3.016      4.196
REMARK  Name = 
REMARK  7 active torsions:
REMARK  status: ('A' for Active; 'I' for Inactive)
REMARK    1  A    between atoms: C_2  and  O_3
REMARK    2  A    between atoms: O_3  and  C_4
REMARK    3  A    between atoms: C_7  and  C_8
REMARK    4  A    between atoms: C_10  and  C_11
REMARK    5  A    between atoms: N_13  and  C_14
REMARK    6  A    between atoms: C_23  and  O_24
REMARK    7  A    between atoms: C_26  and  O_27
REMARK                            x       y       z     vdW  Elec       q    Type
REMARK                         _______ _______ _______ _____ _____    ______ ____
ROOT
ATOM      1  C   UNL     1      38.418   4.729  15.987  0.00  0.00    +0.000 A 
ATOM      2  C   UNL     1      38.462   3.381  15.760  0.00  0.00    +0.000 A 
ATOM      3  C   UNL     1      37.617   2.756  14.843  0.00  0.00    +0.000 A 
ATOM      4  C   UNL     1      36.722   3.534  14.156  0.00  0.00    +0.000 A 
ATOM      5  C   UNL     1      36.658   4.908  14.371  0.00  0.00    +0.000 A 
ATOM      6  C   UNL     1      35.737   5.640  13.651  0.00  0.00    +0.000 A 
ATOM      7  C   UNL     1      35.689   6.998  13.876  0.00  0.00    +0.000 A 
ATOM      8  C   UNL     1      36.533   7.595  14.787  0.00  0.00    +0.000 A 
ATOM      9  C   UNL     1      37.467   6.851  15.517  0.00  0.00    +0.000 A 
ATOM     10  C   UNL     1      37.513   5.497  15.290  0.00  0.00    +0.000 A 
ENDROOT
BRANCH   1  14
ATOM     11  C   UNL     1      41.012   6.562  18.853  0.00  0.00    +0.000 A 
ATOM     12  C   UNL     1      41.358   6.528  17.524  0.00  0.00    +0.000 A 
ATOM     13  C   UNL     1      40.508   5.929  16.592  0.00  0.00    +0.000 A 
ATOM     14  C   UNL     1      39.318   5.361  16.959  0.00  0.00    +0.000 A 
ATOM     15  C   UNL     1      38.976   5.399  18.297  0.00  0.00    +0.000 A 
ATOM     16  C   UNL     1      39.819   5.995  19.234  0.00  0.00    +0.000 A 
BRANCH  11  17
ATOM     17  O   UNL     1      41.805   7.139  19.829  0.00  0.00    +0.000 OA
BRANCH  17  19
ATOM     18  C   UNL     1      43.221   6.002  21.344  0.00  0.00    +0.000 C 
ATOM     19  C   UNL     1      43.132   6.790  20.066  0.00  0.00    +0.000 C 
ENDBRANCH  17  19
ENDBRANCH  11  17
ENDBRANCH   1  14
BRANCH   3  20
ATOM     20  C   UNL     1      37.704   1.313  14.637  0.00  0.00    +0.000 C 
ATOM     21  O   UNL     1      37.987   0.789  13.553  0.00  0.00    +0.000 OA
ATOM     22  N   UNL     1      37.450   0.467  15.744  0.00  0.00    +0.000 NA
BRANCH  22  23
ATOM     23  C   UNL     1      37.507  -0.952  15.666  0.00  0.00    +0.000 A 
ATOM     24  C   UNL     1      38.619  -1.695  15.954  0.00  0.00    +0.000 A 
ATOM     25  C   UNL     1      38.618  -3.076  15.859  0.00  0.00    +0.000 A 
ATOM     26  C   UNL     1      37.478  -3.735  15.467  0.00  0.00    +0.000 A 
ATOM     27  C   UNL     1      36.343  -3.013  15.171  0.00  0.00    +0.000 A 
ATOM     28  C   UNL     1      36.367  -1.622  15.273  0.00  0.00    +0.000 A 
ENDBRANCH  22  23
ENDBRANCH   3  20
BRANCH   7  29
ATOM     29  O   UNL     1      34.763   7.762  13.160  0.00  0.00    +0.000 OA
ATOM     30  C   UNL     1      34.041   7.206  12.078  0.00  0.00    +0.000 C 
ENDBRANCH   7  29
BRANCH   8  31
ATOM     31  O   UNL     1      36.419   8.964  14.954  0.00  0.00    +0.000 OA
ATOM     32  C   UNL     1      35.832   9.455  16.138  0.00  0.00    +0.000 C 
ENDBRANCH   8  31
TORSDOF 7
ENDMDL
MODEL 3
REMARK VINA RESULT:      -7.4      3.438      6.470
REMARK  Name = 
REMARK  7 active torsions:
REMARK  status: ('A' for Active; 'I' for Inactive)
REMARK    1  A    between atoms: C_2  and  O_3
REMARK    2  A    between atoms: O_3  and  C_4
REMARK    3  A    between atoms: C_7  and  C_8
REMARK    4  A    between atoms: C_10  and  C_11
REMARK    5  A    between atoms: N_13  and  C_14
REMARK    6  A    between atoms: C_23  and  O_24
REMARK    7  A    between atoms: C_26  and  O_27
REMARK                            x       y       z     vdW  Elec       q    Type
REMARK                         _______ _______ _______ _____ _____    ______ ____
ROOT
ATOM      1  C   UNL     1      40.909   6.714  19.389  0.00  0.00    +0.000 A 
ATOM      2  C   UNL     1      40.275   5.688  18.744  0.00  0.00    +0.000 A 
ATOM      3  C   UNL     1      38.937   5.769  18.360  0.00  0.00    +0.000 A 
ATOM      4  C   UNL     1      38.252   6.920  18.646  0.00  0.00    +0.000 A 
ATOM      5  C   UNL     1      38.875   7.978  19.302  0.00  0.00    +0.000 A 
ATOM      6  C   UNL     1      38.136   9.112  19.563  0.00  0.00    +0.000 A 
ATOM      7  C   UNL     1      38.770  10.149  20.213  0.00  0.00    +0.000 A 
ATOM      8  C   UNL     1      40.094  10.048  20.584  0.00  0.00    +0.000 A 
ATOM      9  C   UNL     1      40.842   8.896  20.318  0.00  0.00    +0.000 A 
ATOM     10  C   UNL     1      40.208   7.864  19.670  0.00  0.00    +0.000 A 
ENDROOT
BRANCH   1  14
ATOM     11  C   UNL     1      45.005   6.373  20.577  0.00  0.00    +0.000 A 
ATOM     12  C   UNL     1      44.679   6.872  19.340  0.00  0.00    +0.000 A 
ATOM     13  C   UNL     1      43.341   6.981  18.956  0.00  0.00    +0.000 A 
ATOM     14  C   UNL     1      42.319   6.602  19.783  0.00  0.00    +0.000 A 
ATOM     15  C   UNL     1      42.653   6.101  21.026  0.00  0.00    +0.000 A 
ATOM     16  C   UNL     1      43.987   5.989  21.418  0.00  0.00    +0.000 A 
BRANCH  11  17
ATOM     17  O   UNL     1      46.308   6.237  21.022  0.00  0.00    +0.000 OA
BRANCH  17  19
ATOM     18  C   UNL     1      46.962   4.002  20.607  0.00  0.00    +0.000 C 
ATOM     19  C   UNL     1      46.810   5.091  21.634  0.00  0.00    +0.000 C 
ENDBRANCH  17  19
ENDBRANCH  11  17
ENDBRANCH   1  14
BRANCH   3  20
ATOM     20  C   UNL     1      38.307   4.645  17.673  0.00  0.00    +0.000 C 
ATOM     21  O   UNL     1      37.962   3.599  18.238  0.00  0.00    +0.000 OA
ATOM     22  N   UNL     1      38.078   4.760  16.280  0.00  0.00    +0.000 NA
BRANCH  22  23
ATOM     23  C   UNL     1      37.472   3.733  15.505  0.00  0.00    +0.000 A 
ATOM     24  C   UNL     1      38.157   2.700  14.926  0.00  0.00    +0.000 A 
ATOM     25  C   UNL     1      37.514   1.728  14.179  0.00  0.00    +0.000 A 
ATOM     26  C   UNL     1      36.152   1.784  14.006  0.00  0.00    +0.000 A 
ATOM     27  C   UNL     1      35.437   2.813  14.578  0.00  0.00    +0.000 A 
ATOM     28  C   UNL     1      36.105   3.783  15.326  0.00  0.00    +0.000 A 
ENDBRANCH  22  23
ENDBRANCH   3  20
BRANCH   7  29
ATOM     29  O   UNL     1      38.042  11.309  20.490  0.00  0.00    +0.000 OA
ATOM     30  C   UNL     1      37.671  12.202  19.457  0.00  0.00    +0.000 C 
ENDBRANCH   7  29
BRANCH   8  31
ATOM     31  O   UNL     1      40.654  11.134  21.232  0.00  0.00    +0.000 OA
ATOM     32  C   UNL     1      41.983  11.034  21.692  0.00  0.00    +0.000 C 
ENDBRANCH   8  31
TORSDOF 7
ENDMDL
MODEL 4
REMARK VINA RESULT:      -7.1     24.918     27.522
REMARK  Name = 
REMARK  7 active torsions:
REMARK  status: ('A' for Active; 'I' for Inactive)
REMARK    1  A    between atoms: C_2  and  O_3
REMARK    2  A    between atoms: O_3  and  C_4
REMARK    3  A    between atoms: C_7  and  C_8
REMARK    4  A    between atoms: C_10  and  C_11
REMARK    5  A    between atoms: N_13  and  C_14
REMARK    6  A    between atoms: C_23  and  O_24
REMARK    7  A    between atoms: C_26  and  O_27
REMARK                            x       y       z     vdW  Elec       q    Type
REMARK                         _______ _______ _______ _____ _____    ______ ____
ROOT
ATOM      1  C   UNL     1      15.652  -3.862   6.377  0.00  0.00    +0.000 A 
ATOM      2  C   UNL     1      16.333  -3.345   5.310  0.00  0.00    +0.000 A 
ATOM      3  C   UNL     1      16.217  -2.006   4.935  0.00  0.00    +0.000 A 
ATOM      4  C   UNL     1      15.391  -1.199   5.671  0.00  0.00    +0.000 A 
ATOM      5  C   UNL     1      14.686  -1.703   6.761  0.00  0.00    +0.000 A 
ATOM      6  C   UNL     1      13.869  -0.844   7.465  0.00  0.00    +0.000 A 
ATOM      7  C   UNL     1      13.180  -1.360   8.541  0.00  0.00    +0.000 A 
ATOM      8  C   UNL     1      13.309  -2.686   8.894  0.00  0.00    +0.000 A 
ATOM      9  C   UNL     1      14.139  -3.557   8.178  0.00  0.00    +0.000 A 
ATOM     10  C   UNL     1      14.825  -3.039   7.107  0.00  0.00    +0.000 A 
ENDROOT
BRANCH   1  14
ATOM     11  C   UNL     1      16.028  -7.991   7.432  0.00  0.00    +0.000 A 
ATOM     12  C   UNL     1      16.758  -7.035   8.095  0.00  0.00    +0.000 A 
ATOM     13  C   UNL     1      16.632  -5.688   7.747  0.00  0.00    +0.000 A 
ATOM     14  C   UNL     1      15.792  -5.275   6.749  0.00  0.00    +0.000 A 
ATOM     15  C   UNL     1      15.060  -6.241   6.087  0.00  0.00    +0.000 A 
ATOM     16  C   UNL     1      15.180  -7.589   6.427  0.00  0.00    +0.000 A 
BRANCH  11  17
ATOM     17  O   UNL     1      16.103  -9.341   7.723  0.00  0.00    +0.000 OA
BRANCH  17  19
ATOM     18  C   UNL     1      17.818 -10.211   6.346  0.00  0.00    +0.000 C 
ATOM     19  C   UNL     1      17.288 -10.072   7.747  0.00  0.00    +0.000 C 
ENDBRANCH  17  19
ENDBRANCH  11  17
ENDBRANCH   1  14
BRANCH   3  20
ATOM     20  C   UNL     1      16.967  -1.503   3.787  0.00  0.00    +0.000 C 
ATOM     21  O   UNL     1      16.494  -1.399   2.649  0.00  0.00    +0.000 OA
ATOM     22  N   UNL     1      18.314  -1.114   3.991  0.00  0.00    +0.000 NA
BRANCH  22  23
ATOM     23  C   UNL     1      19.142  -0.609   2.951  0.00  0.00    +0.000 A 
ATOM     24  C   UNL     1      19.984  -1.378   2.195  0.00  0.00    +0.000 A 
ATOM     25  C   UNL     1      20.769  -0.832   1.195  0.00  0.00    +0.000 A 
ATOM     26  C   UNL     1      20.715   0.517   0.940  0.00  0.00    +0.000 A 
ATOM     27  C   UNL     1      19.876   1.316   1.686  0.00  0.00    +0.000 A 
ATOM     28  C   UNL     1      19.093   0.744   2.689  0.00  0.00    +0.000 A 
ENDBRANCH  22  23
ENDBRANCH   3  20
BRANCH   7  29
ATOM     29  O   UNL     1      12.344  -0.509   9.270  0.00  0.00    +0.000 OA
ATOM     30  C   UNL     1      11.201   0.074   8.676  0.00  0.00    +0.000 C 
ENDBRANCH   7  29
BRANCH   8  31
ATOM     31  O   UNL     1      12.583  -3.124   9.987  0.00  0.00    +0.000 OA
ATOM     32  C   UNL     1      13.268  -3.398  11.188  0.00  0.00    +0.000 C 
ENDBRANCH   8  31
TORSDOF 7
ENDMDL
MODEL 5
REMARK VINA RESULT:      -7.0     13.952     17.875
REMARK  Name = 
REMARK  7 active torsions:
REMARK  status: ('A' for Active; 'I' for Inactive)
REMARK    1  A    between atoms: C_2  and  O_3
REMARK    2  A    between atoms: O_3  and  C_4
REMARK    3  A    between atoms: C_7  and  C_8
REMARK    4  A    between atoms: C_10  and  C_11
REMARK    5  A    between atoms: N_13  and  C_14
REMARK    6  A    between atoms: C_23  and  O_24
REMARK    7  A    between atoms: C_26  and  O_27
REMARK                            x       y       z     vdW  Elec       q    Type
REMARK                         _______ _______ _______ _____ _____    ______ ____
ROOT
ATOM      1  C   UNL     1      29.879  17.284  21.667  0.00  0.00    +0.000 A 
ATOM      2  C   UNL     1      30.522  17.149  22.866  0.00  0.00    +0.000 A 
ATOM      3  C   UNL     1      31.904  16.984  22.952  0.00  0.00    +0.000 A 
ATOM      4  C   UNL     1      32.624  16.960  21.787  0.00  0.00    +0.000 A 
ATOM      5  C   UNL     1      31.993  17.094  20.553  0.00  0.00    +0.000 A 
ATOM      6  C   UNL     1      32.769  17.063  19.414  0.00  0.00    +0.000 A 
ATOM      7  C   UNL     1      32.127  17.198  18.203  0.00  0.00    +0.000 A 
ATOM      8  C   UNL     1      30.759  17.360  18.141  0.00  0.00    +0.000 A 
ATOM      9  C   UNL     1      29.973  17.392  19.299  0.00  0.00    +0.000 A 
ATOM     10  C   UNL     1      30.617  17.257  20.505  0.00  0.00    +0.000 A 
ENDROOT
BRANCH   1  14
ATOM     11  C   UNL     1      25.629  17.740  21.478  0.00  0.00    +0.000 A 
ATOM     12  C   UNL     1      26.436  18.829  21.699  0.00  0.00    +0.000 A 
ATOM     13  C   UNL     1      27.823  18.675  21.760  0.00  0.00    +0.000 A 
ATOM     14  C   UNL     1      28.423  17.455  21.605  0.00  0.00    +0.000 A 
ATOM     15  C   UNL     1      27.606  16.364  21.383  0.00  0.00    +0.000 A 
ATOM     16  C   UNL     1      26.220  16.508  21.320  0.00  0.00    +0.000 A 
BRANCH  11  17
ATOM     17  O   UNL     1      24.250  17.818  21.406  0.00  0.00    +0.000 OA
BRANCH  17  19
ATOM     18  C   UNL     1      22.090  18.260  20.551  0.00  0.00    +0.000 C 
ATOM     19  C   UNL     1      23.538  18.018  20.226  0.00  0.00    +0.000 C 
ENDBRANCH  17  19
ENDBRANCH  11  17
ENDBRANCH   1  14
BRANCH   3  20
ATOM     20  C   UNL     1      32.542  16.844  24.258  0.00  0.00    +0.000 C 
ATOM     21  O   UNL     1      33.352  15.952  24.537  0.00  0.00    +0.000 OA
ATOM     22  N   UNL     1      32.212  17.786  25.263  0.00  0.00    +0.000 NA
BRANCH  22  23
ATOM     23  C   UNL     1      32.769  17.753  26.571  0.00  0.00    +0.000 A 
ATOM     24  C   UNL     1      32.108  17.292  27.678  0.00  0.00    +0.000 A 
ATOM     25  C   UNL     1      32.700  17.285  28.929  0.00  0.00    +0.000 A 
ATOM     26  C   UNL     1      33.985  17.747  29.083  0.00  0.00    +0.000 A 
ATOM     27  C   UNL     1      34.674  18.217  27.987  0.00  0.00    +0.000 A 
ATOM     28  C   UNL     1      34.058  18.216  26.735  0.00  0.00    +0.000 A 
ENDBRANCH  22  23
ENDBRANCH   3  20
BRANCH   7  29
ATOM     29  O   UNL     1      32.891  17.168  17.033  0.00  0.00    +0.000 OA
ATOM     30  C   UNL     1      33.491  15.967  16.586  0.00  0.00    +0.000 C 
ENDBRANCH   7  29
BRANCH   8  31
ATOM     31  O   UNL     1      30.193  17.489  16.885  0.00  0.00    +0.000 OA
ATOM     32  C   UNL     1      28.877  17.985  16.785  0.00  0.00    +0.000 C 
ENDBRANCH   8  31
TORSDOF 7
ENDMDL
MODEL 6
REMARK VINA RESULT:      -6.8      4.965     10.342
REMARK  Name = 
REMARK  7 active torsions:
REMARK  status: ('A' for Active; 'I' for Inactive)
REMARK    1  A    between atoms: C_2  and  O_3
REMARK    2  A    between atoms: O_3  and  C_4
REMARK    3  A    between atoms: C_7  and  C_8
REMARK    4  A    between atoms: C_10  and  C_11
REMARK    5  A    between atoms: N_13  and  C_14
REMARK    6  A    between atoms: C_23  and  O_24
REMARK    7  A    between atoms: C_26  and  O_27
REMARK                            x       y       z     vdW  Elec       q    Type
REMARK                         _______ _______ _______ _____ _____    ______ ____
ROOT
ATOM      1  C   UNL     1      39.026  -2.005  14.951  0.00  0.00    +0.000 A 
ATOM      2  C   UNL     1      40.329  -2.302  14.662  0.00  0.00    +0.000 A 
ATOM      3  C   UNL     1      41.261  -1.314  14.345  0.00  0.00    +0.000 A 
ATOM      4  C   UNL     1      40.840  -0.011  14.330  0.00  0.00    +0.000 A 
ATOM      5  C   UNL     1      39.518   0.317  14.620  0.00  0.00    +0.000 A 
ATOM      6  C   UNL     1      39.151   1.645  14.588  0.00  0.00    +0.000 A 
ATOM      7  C   UNL     1      37.839   1.950  14.879  0.00  0.00    +0.000 A 
ATOM      8  C   UNL     1      36.934   0.957  15.189  0.00  0.00    +0.000 A 
ATOM      9  C   UNL     1      37.308  -0.391  15.220  0.00  0.00    +0.000 A 
ATOM     10  C   UNL     1      38.617  -0.691  14.930  0.00  0.00    +0.000 A 
ENDROOT
BRANCH   1  14
ATOM     11  C   UNL     1      36.205  -5.088  15.870  0.00  0.00    +0.000 A 
ATOM     12  C   UNL     1      37.168  -4.732  16.782  0.00  0.00    +0.000 A 
ATOM     13  C   UNL     1      38.087  -3.726  16.478  0.00  0.00    +0.000 A 
ATOM     14  C   UNL     1      38.065  -3.065  15.280  0.00  0.00    +0.000 A 
ATOM     15  C   UNL     1      37.093  -3.427  14.367  0.00  0.00    +0.000 A 
ATOM     16  C   UNL     1      36.172  -4.431  14.662  0.00  0.00    +0.000 A 
BRANCH  11  17
ATOM     17  O   UNL     1      35.264  -6.074  16.104  0.00  0.00    +0.000 OA
BRANCH  17  19
ATOM     18  C   UNL     1      33.874  -7.806  15.290  0.00  0.00    +0.000 C 
ATOM     19  C   UNL     1      34.177  -6.333  15.272  0.00  0.00    +0.000 C 
ENDBRANCH  17  19
ENDBRANCH  11  17
ENDBRANCH   1  14
BRANCH   3  20
ATOM     20  C   UNL     1      42.642  -1.684  14.045  0.00  0.00    +0.000 C 
ATOM     21  O   UNL     1      43.587  -1.501  14.821  0.00  0.00    +0.000 OA
ATOM     22  N   UNL     1      42.911  -2.286  12.791  0.00  0.00    +0.000 NA
BRANCH  22  23
ATOM     23  C   UNL     1      44.213  -2.690  12.388  0.00  0.00    +0.000 A 
ATOM     24  C   UNL     1      44.763  -3.911  12.672  0.00  0.00    +0.000 A 
ATOM     25  C   UNL     1      46.039  -4.250  12.255  0.00  0.00    +0.000 A 
ATOM     26  C   UNL     1      46.787  -3.351  11.534  0.00  0.00    +0.000 A 
ATOM     27  C   UNL     1      46.258  -2.115  11.233  0.00  0.00    +0.000 A 
ATOM     28  C   UNL     1      44.971  -1.794  11.664  0.00  0.00    +0.000 A 
ENDBRANCH  22  23
ENDBRANCH   3  20
BRANCH   7  29
ATOM     29  O   UNL     1      37.442   3.290  14.853  0.00  0.00    +0.000 OA
ATOM     30  C   UNL     1      37.722   4.154  15.937  0.00  0.00    +0.000 C 
ENDBRANCH   7  29
BRANCH   8  31
ATOM     31  O   UNL     1      35.636   1.348  15.468  0.00  0.00    +0.000 OA
ATOM     32  C   UNL     1      35.127   1.126  16.764  0.00  0.00    +0.000 C 
ENDBRANCH   8  31
TORSDOF 7
ENDMDL
MODEL 7
REMARK VINA RESULT:      -6.7     24.270     29.270
REMARK  Name = 
REMARK  7 active torsions:
REMARK  status: ('A' for Active; 'I' for Inactive)
REMARK    1  A    between atoms: C_2  and  O_3
REMARK    2  A    between atoms: O_3  and  C_4
REMARK    3  A    between atoms: C_7  and  C_8
REMARK    4  A    between atoms: C_10  and  C_11
REMARK    5  A    between atoms: N_13  and  C_14
REMARK    6  A    between atoms: C_23  and  O_24
REMARK    7  A    between atoms: C_26  and  O_27
REMARK                            x       y       z     vdW  Elec       q    Type
REMARK                         _______ _______ _______ _____ _____    ______ ____
ROOT
ATOM      1  C   UNL     1      12.650   0.335  27.648  0.00  0.00    +0.000 A 
ATOM      2  C   UNL     1      13.910   0.296  27.120  0.00  0.00    +0.000 A 
ATOM      3  C   UNL     1      15.047   0.185  27.921  0.00  0.00    +0.000 A 
ATOM      4  C   UNL     1      14.874   0.114  29.278  0.00  0.00    +0.000 A 
ATOM      5  C   UNL     1      13.601   0.153  29.840  0.00  0.00    +0.000 A 
ATOM      6  C   UNL     1      13.488   0.077  31.212  0.00  0.00    +0.000 A 
ATOM      7  C   UNL     1      12.221   0.117  31.749  0.00  0.00    +0.000 A 
ATOM      8  C   UNL     1      11.111   0.226  30.939  0.00  0.00    +0.000 A 
ATOM      9  C   UNL     1      11.227   0.303  29.546  0.00  0.00    +0.000 A 
ATOM     10  C   UNL     1      12.493   0.263  29.013  0.00  0.00    +0.000 A 
ENDROOT
BRANCH   1  14
ATOM     11  C   UNL     1       9.212   0.722  25.130  0.00  0.00    +0.000 A 
ATOM     12  C   UNL     1       9.789  -0.507  25.335  0.00  0.00    +0.000 A 
ATOM     13  C   UNL     1      10.912  -0.629  26.157  0.00  0.00    +0.000 A 
ATOM     14  C   UNL     1      11.471   0.453  26.781  0.00  0.00    +0.000 A 
ATOM     15  C   UNL     1      10.886   1.686  26.572  0.00  0.00    +0.000 A 
ATOM     16  C   UNL     1       9.765   1.817  25.752  0.00  0.00    +0.000 A 
BRANCH  11  17
ATOM     17  O   UNL     1       8.101   0.916  24.329  0.00  0.00    +0.000 OA
BRANCH  17  19
ATOM     18  C   UNL     1       5.863   1.495  23.831  0.00  0.00    +0.000 C 
ATOM     19  C   UNL     1       7.115   1.868  24.576  0.00  0.00    +0.000 C 
ENDBRANCH  17  19
ENDBRANCH  11  17
ENDBRANCH   1  14
BRANCH   3  20
ATOM     20  C   UNL     1      16.371   0.147  27.307  0.00  0.00    +0.000 C 
ATOM     21  O   UNL     1      17.425   0.313  27.933  0.00  0.00    +0.000 OA
ATOM     22  N   UNL     1      16.451  -0.094  25.914  0.00  0.00    +0.000 NA
BRANCH  22  23
ATOM     23  C   UNL     1      17.683  -0.155  25.206  0.00  0.00    +0.000 A 
ATOM     24  C   UNL     1      18.388   0.942  24.792  0.00  0.00    +0.000 A 
ATOM     25  C   UNL     1      19.583   0.823  24.104  0.00  0.00    +0.000 A 
ATOM     26  C   UNL     1      20.091  -0.422  23.821  0.00  0.00    +0.000 A 
ATOM     27  C   UNL     1      19.403  -1.544  24.226  0.00  0.00    +0.000 A 
ATOM     28  C   UNL     1      18.200  -1.401  24.918  0.00  0.00    +0.000 A 
ENDBRANCH  22  23
ENDBRANCH   3  20
BRANCH   7  29
ATOM     29  O   UNL     1      12.080   0.043  33.138  0.00  0.00    +0.000 OA
ATOM     30  C   UNL     1      13.010   0.671  33.999  0.00  0.00    +0.000 C 
ENDBRANCH   7  29
BRANCH   8  31
ATOM     31  O   UNL     1       9.874   0.259  31.558  0.00  0.00    +0.000 OA
ATOM     32  C   UNL     1       8.836  -0.539  31.037  0.00  0.00    +0.000 C 
ENDBRANCH   8  31
TORSDOF 7
ENDMDL
MODEL 8
REMARK VINA RESULT:      -6.7      4.005      9.217
REMARK  Name = 
REMARK  7 active torsions:
REMARK  status: ('A' for Active; 'I' for Inactive)
REMARK    1  A    between atoms: C_2  and  O_3
REMARK    2  A    between atoms: O_3  and  C_4
REMARK    3  A    between atoms: C_7  and  C_8
REMARK    4  A    between atoms: C_10  and  C_11
REMARK    5  A    between atoms: N_13  and  C_14
REMARK    6  A    between atoms: C_23  and  O_24
REMARK    7  A    between atoms: C_26  and  O_27
REMARK                            x       y       z     vdW  Elec       q    Type
REMARK                         _______ _______ _______ _____ _____    ______ ____
ROOT
ATOM      1  C   UNL     1      40.213   6.510  18.591  0.00  0.00    +0.000 A 
ATOM      2  C   UNL     1      41.450   6.181  19.071  0.00  0.00    +0.000 A 
ATOM      3  C   UNL     1      42.126   6.984  19.990  0.00  0.00    +0.000 A 
ATOM      4  C   UNL     1      41.515   8.133  20.415  0.00  0.00    +0.000 A 
ATOM      5  C   UNL     1      40.255   8.490  19.941  0.00  0.00    +0.000 A 
ATOM      6  C   UNL     1      39.689   9.659  20.404  0.00  0.00    +0.000 A 
ATOM      7  C   UNL     1      38.442   9.995  19.924  0.00  0.00    +0.000 A 
ATOM      8  C   UNL     1      37.792   9.188  19.015  0.00  0.00    +0.000 A 
ATOM      9  C   UNL     1      38.368   8.002  18.546  0.00  0.00    +0.000 A 
ATOM     10  C   UNL     1      39.611   7.669  19.027  0.00  0.00    +0.000 A 
ENDROOT
BRANCH   1  14
ATOM     11  C   UNL     1      38.178   3.981  15.804  0.00  0.00    +0.000 A 
ATOM     12  C   UNL     1      39.192   4.806  15.383  0.00  0.00    +0.000 A 
ATOM     13  C   UNL     1      39.853   5.630  16.296  0.00  0.00    +0.000 A 
ATOM     14  C   UNL     1      39.524   5.648  17.624  0.00  0.00    +0.000 A 
ATOM     15  C   UNL     1      38.503   4.816  18.042  0.00  0.00    +0.000 A 
ATOM     16  C   UNL     1      37.837   3.990  17.136  0.00  0.00    +0.000 A 
BRANCH  11  17
ATOM     17  O   UNL     1      37.481   3.140  14.956  0.00  0.00    +0.000 OA
BRANCH  17  19
ATOM     18  C   UNL     1      35.516   1.824  15.001  0.00  0.00    +0.000 C 
ATOM     19  C   UNL     1      36.984   1.892  15.326  0.00  0.00    +0.000 C 
ENDBRANCH  17  19
ENDBRANCH  11  17
ENDBRANCH   1  14
BRANCH   3  20
ATOM     20  C   UNL     1      43.446   6.587  20.472  0.00  0.00    +0.000 C 
ATOM     21  O   UNL     1      44.503   6.868  19.893  0.00  0.00    +0.000 OA
ATOM     22  N   UNL     1      43.519   5.836  21.671  0.00  0.00    +0.000 NA
BRANCH  22  23
ATOM     23  C   UNL     1      44.747   5.395  22.237  0.00  0.00    +0.000 A 
ATOM     24  C   UNL     1      45.414   4.267  21.844  0.00  0.00    +0.000 A 
ATOM     25  C   UNL     1      46.607   3.884  22.433  0.00  0.00    +0.000 A 
ATOM     26  C   UNL     1      47.151   4.645  23.439  0.00  0.00    +0.000 A 
ATOM     27  C   UNL     1      46.500   5.785  23.856  0.00  0.00    +0.000 A 
ATOM     28  C   UNL     1      45.299   6.153  23.248  0.00  0.00    +0.000 A 
ENDBRANCH  22  23
ENDBRANCH   3  20
BRANCH   7  29
ATOM     29  O   UNL     1      37.847  11.176  20.377  0.00  0.00    +0.000 OA
ATOM     30  C   UNL     1      38.553  12.075  21.210  0.00  0.00    +0.000 C 
ENDBRANCH   7  29
BRANCH   8  31
ATOM     31  O   UNL     1      36.543   9.598  18.583  0.00  0.00    +0.000 OA
ATOM     32  C   UNL     1      36.367   9.904  17.218  0.00  0.00    +0.000 C 
ENDBRANCH   8  31
TORSDOF 7
ENDMDL
MODEL 9
REMARK VINA RESULT:      -6.7      5.237      8.986
REMARK  Name = 
REMARK  7 active torsions:
REMARK  status: ('A' for Active; 'I' for Inactive)
REMARK    1  A    between atoms: C_2  and  O_3
REMARK    2  A    between atoms: O_3  and  C_4
REMARK    3  A    between atoms: C_7  and  C_8
REMARK    4  A    between atoms: C_10  and  C_11
REMARK    5  A    between atoms: N_13  and  C_14
REMARK    6  A    between atoms: C_23  and  O_24
REMARK    7  A    between atoms: C_26  and  O_27
REMARK                            x       y       z     vdW  Elec       q    Type
REMARK                         _______ _______ _______ _____ _____    ______ ____
ROOT
ATOM      1  C   UNL     1      38.879  -0.342  14.747  0.00  0.00    +0.000 A 
ATOM      2  C   UNL     1      39.910  -0.587  13.884  0.00  0.00    +0.000 A 
ATOM      3  C   UNL     1      40.742  -1.698  14.018  0.00  0.00    +0.000 A 
ATOM      4  C   UNL     1      40.502  -2.562  15.054  0.00  0.00    +0.000 A 
ATOM      5  C   UNL     1      39.459  -2.334  15.948  0.00  0.00    +0.000 A 
ATOM      6  C   UNL     1      39.265  -3.237  16.972  0.00  0.00    +0.000 A 
ATOM      7  C   UNL     1      38.228  -2.995  17.845  0.00  0.00    +0.000 A 
ATOM      8  C   UNL     1      37.417  -1.890  17.693  0.00  0.00    +0.000 A 
ATOM      9  C   UNL     1      37.615  -0.974  16.653  0.00  0.00    +0.000 A 
ATOM     10  C   UNL     1      38.651  -1.219  15.784  0.00  0.00    +0.000 A 
ENDROOT
BRANCH   1  14
ATOM     11  C   UNL     1      36.339   3.065  14.251  0.00  0.00    +0.000 A 
ATOM     12  C   UNL     1      37.597   3.207  14.784  0.00  0.00    +0.000 A 
ATOM     13  C   UNL     1      38.422   2.092  14.945  0.00  0.00    +0.000 A 
ATOM     14  C   UNL     1      38.018   0.836  14.583  0.00  0.00    +0.000 A 
ATOM     15  C   UNL     1      36.752   0.699  14.047  0.00  0.00    +0.000 A 
ATOM     16  C   UNL     1      35.921   1.808  13.884  0.00  0.00    +0.000 A 
BRANCH  11  17
ATOM     17  O   UNL     1      35.469   4.124  14.064  0.00  0.00    +0.000 OA
BRANCH  17  19
ATOM     18  C   UNL     1      36.037   5.482  12.213  0.00  0.00    +0.000 C 
ATOM     19  C   UNL     1      35.867   5.410  13.706  0.00  0.00    +0.000 C 
ENDBRANCH  17  19
ENDBRANCH  11  17
ENDBRANCH   1  14
BRANCH   3  20
ATOM     20  C   UNL     1      41.829  -1.914  13.068  0.00  0.00    +0.000 C 
ATOM     21  O   UNL     1      42.397  -1.002  12.454  0.00  0.00    +0.000 OA
ATOM     22  N   UNL     1      42.257  -3.244  12.837  0.00  0.00    +0.000 NA
BRANCH  22  23
ATOM     23  C   UNL     1      43.306  -3.577  11.936  0.00  0.00    +0.000 A 
ATOM     24  C   UNL     1      44.623  -3.683  12.294  0.00  0.00    +0.000 A 
ATOM     25  C   UNL     1      45.603  -4.009  11.373  0.00  0.00    +0.000 A 
ATOM     26  C   UNL     1      45.265  -4.238  10.061  0.00  0.00    +0.000 A 
ATOM     27  C   UNL     1      43.947  -4.138   9.673  0.00  0.00    +0.000 A 
ATOM     28  C   UNL     1      42.975  -3.808  10.618  0.00  0.00    +0.000 A 
ENDBRANCH  22  23
ENDBRANCH   3  20
BRANCH   7  29
ATOM     29  O   UNL     1      38.011  -3.895  18.892  0.00  0.00    +0.000 OA
ATOM     30  C   UNL     1      39.022  -4.160  19.846  0.00  0.00    +0.000 C 
ENDBRANCH   7  29
BRANCH   8  31
ATOM     31  O   UNL     1      36.398  -1.721  18.614  0.00  0.00    +0.000 OA
ATOM     32  C   UNL     1      36.019  -0.410  18.969  0.00  0.00    +0.000 C 
ENDBRANCH   8  31
TORSDOF 7
ENDMDL
MODEL 10
REMARK VINA RESULT:      -6.6      3.938      6.236
REMARK  Name = 
REMARK  7 active torsions:
REMARK  status: ('A' for Active; 'I' for Inactive)
REMARK    1  A    between atoms: C_2  and  O_3
REMARK    2  A    between atoms: O_3  and  C_4
REMARK    3  A    between atoms: C_7  and  C_8
REMARK    4  A    between atoms: C_10  and  C_11
REMARK    5  A    between atoms: N_13  and  C_14
REMARK    6  A    between atoms: C_23  and  O_24
REMARK    7  A    between atoms: C_26  and  O_27
REMARK                            x       y       z     vdW  Elec       q    Type
REMARK                         _______ _______ _______ _____ _____    ______ ____
ROOT
ATOM      1  C   UNL     1      36.440   4.656  14.212  0.00  0.00    +0.000 A 
ATOM      2  C   UNL     1      36.332   3.294  14.238  0.00  0.00    +0.000 A 
ATOM      3  C   UNL     1      36.956   2.519  15.216  0.00  0.00    +0.000 A 
ATOM      4  C   UNL     1      37.696   3.162  16.173  0.00  0.00    +0.000 A 
ATOM      5  C   UNL     1      37.822   4.548  16.168  0.00  0.00    +0.000 A 
ATOM      6  C   UNL     1      38.579   5.141  17.156  0.00  0.00    +0.000 A 
ATOM      7  C   UNL     1      38.691   6.513  17.135  0.00  0.00    +0.000 A 
ATOM      8  C   UNL     1      38.066   7.260  16.159  0.00  0.00    +0.000 A 
ATOM      9  C   UNL     1      37.298   6.657  15.156  0.00  0.00    +0.000 A 
ATOM     10  C   UNL     1      37.188   5.288  15.181  0.00  0.00    +0.000 A 
ENDROOT
BRANCH   1  14
ATOM     11  C   UNL     1      34.528   6.949  11.148  0.00  0.00    +0.000 A 
ATOM     12  C   UNL     1      34.036   6.956  12.430  0.00  0.00    +0.000 A 
ATOM     13  C   UNL     1      34.664   6.206  13.427  0.00  0.00    +0.000 A 
ATOM     14  C   UNL     1      35.774   5.448  13.171  0.00  0.00    +0.000 A 
ATOM     15  C   UNL     1      36.264   5.446  11.880  0.00  0.00    +0.000 A 
ATOM     16  C   UNL     1      35.644   6.192  10.877  0.00  0.00    +0.000 A 
BRANCH  11  17
ATOM     17  O   UNL     1      33.958   7.667  10.112  0.00  0.00    +0.000 OA
BRANCH  17  19
ATOM     18  C   UNL     1      33.710   6.871   7.898  0.00  0.00    +0.000 C 
ATOM     19  C   UNL     1      34.497   7.752   8.830  0.00  0.00    +0.000 C 
ENDBRANCH  17  19
ENDBRANCH  11  17
ENDBRANCH   1  14
BRANCH   3  20
ATOM     20  C   UNL     1      36.808   1.067  15.200  0.00  0.00    +0.000 C 
ATOM     21  O   UNL     1      36.467   0.421  14.201  0.00  0.00    +0.000 OA
ATOM     22  N   UNL     1      37.071   0.357  16.397  0.00  0.00    +0.000 NA
BRANCH  22  23
ATOM     23  C   UNL     1      36.962  -1.057  16.502  0.00  0.00    +0.000 A 
ATOM     24  C   UNL     1      35.783  -1.727  16.681  0.00  0.00    +0.000 A 
ATOM     25  C   UNL     1      35.736  -3.107  16.778  0.00  0.00    +0.000 A 
ATOM     26  C   UNL     1      36.895  -3.840  16.693  0.00  0.00    +0.000 A 
ATOM     27  C   UNL     1      38.097  -3.192  16.512  0.00  0.00    +0.000 A 
ATOM     28  C   UNL     1      38.121  -1.801  16.418  0.00  0.00    +0.000 A 
ENDBRANCH  22  23
ENDBRANCH   3  20
BRANCH   7  29
ATOM     29  O   UNL     1      39.455   7.138  18.125  0.00  0.00    +0.000 OA
ATOM     30  C   UNL     1      39.318   6.777  19.486  0.00  0.00    +0.000 C 
ENDBRANCH   7  29
BRANCH   8  31
ATOM     31  O   UNL     1      38.230   8.633  16.209  0.00  0.00    +0.000 OA
ATOM     32  C   UNL     1      38.577   9.316  15.025  0.00  0.00    +0.000 C 
ENDBRANCH   8  31
TORSDOF 7
ENDMDL
