MODEL 1
REMARK VINA RESULT:      -6.6      0.000      0.000
REMARK  Name = 
REMARK  9 active torsions:
REMARK  status: ('A' for Active; 'I' for Inactive)
REMARK    1  A    between atoms: C_2  and  C_3
REMARK    2  A    between atoms: C_3  and  C_4
REMARK    3  A    between atoms: C_4  and  S_5
REMARK    4  A    between atoms: S_5  and  C_6
REMARK    5  A    between atoms: C_6  and  C_7
REMARK    6  A    between atoms: C_7  and  C_8
REMARK    7  A    between atoms: C_8  and  N_9
REMARK    8  A    between atoms: C_10  and  C_12
REMARK    9  A    between atoms: N_15  and  C_16
REMARK                            x       y       z     vdW  Elec       q    Type
REMARK                         _______ _______ _______ _____ _____    ______ ____
ROOT
ATOM      1  C   UNL     1      36.997   2.739  16.041  0.00  0.00    +0.000 A 
ATOM      2  C   UNL     1      37.729   3.797  16.528  0.00  0.00    +0.000 A 
ATOM      3  C   UNL     1      38.645   4.467  15.750  0.00  0.00    +0.000 A 
ATOM      4  N   UNL     1      39.396   5.577  16.222  0.00  0.00    +0.000 NA
ATOM      5  N   UNL     1      38.799   4.032  14.462  0.00  0.00    +0.000 NA
ATOM      6  C   UNL     1      38.099   3.003  13.954  0.00  0.00    +0.000 A 
ATOM      7  C   UNL     1      38.282   2.561  12.657  0.00  0.00    +0.000 A 
ATOM      8  C   UNL     1      37.607   1.508  12.116  0.00  0.00    +0.000 A 
ATOM      9  C   UNL     1      36.684   0.837  12.889  0.00  0.00    +0.000 A 
ATOM     10  C   UNL     1      36.483   1.266  14.199  0.00  0.00    +0.000 A 
ATOM     11  C   UNL     1      37.180   2.329  14.726  0.00  0.00    +0.000 A 
ENDROOT
BRANCH   4  12
ATOM     12  C   UNL     1      39.301   6.164  17.483  0.00  0.00    +0.000 A 
ATOM     13  C   UNL     1      38.322   7.136  17.694  0.00  0.00    +0.000 A 
ATOM     14  C   UNL     1      38.181   7.742  18.905  0.00  0.00    +0.000 A 
ATOM     15  C   UNL     1      39.004   7.418  19.978  0.00  0.00    +0.000 A 
ATOM     16  C   UNL     1      39.976   6.446  19.757  0.00  0.00    +0.000 A 
ATOM     17  C   UNL     1      40.135   5.826  18.552  0.00  0.00    +0.000 A 
ENDBRANCH   4  12
BRANCH   1  19
ATOM     18  N   UNL     1      36.455   1.043  17.712  0.00  0.00    +0.000 NA
ATOM     19  C   UNL     1      36.008   2.025  16.821  0.00  0.00    +0.000 C 
ATOM     20  O   UNL     1      34.777   2.257  16.718  0.00  0.00    +0.000 OA
BRANCH  18  21
ATOM     21  C   UNL     1      35.837   0.208  18.616  0.00  0.00    +0.000 C 
BRANCH  21  22
ATOM     22  C   UNL     1      36.075  -1.272  18.548  0.00  0.00    +0.000 C 
BRANCH  22  23
ATOM     23  C   UNL     1      37.450  -1.528  19.197  0.00  0.00    +0.000 C 
BRANCH  23  24
ATOM     24  S   UNL     1      38.371  -2.508  17.951  0.00  0.00    +0.000 S 
BRANCH  24  25
ATOM     25  C   UNL     1      37.395  -2.863  16.494  0.00  0.00    +0.000 C 
BRANCH  25  26
ATOM     26  C   UNL     1      37.817  -1.967  15.338  0.00  0.00    +0.000 C 
BRANCH  26  28
ATOM     27  C   UNL     1      39.806  -0.602  14.582  0.00  0.00    +0.000 C 
ATOM     28  C   UNL     1      38.953  -1.024  15.748  0.00  0.00    +0.000 C 
ENDBRANCH  26  28
ENDBRANCH  25  26
ENDBRANCH  24  25
ENDBRANCH  23  24
ENDBRANCH  22  23
ENDBRANCH  21  22
ENDBRANCH  18  21
ENDBRANCH   1  19
TORSDOF 9
ENDMDL
MODEL 2
REMARK VINA RESULT:      -6.2      3.221      7.431
REMARK  Name = 
REMARK  9 active torsions:
REMARK  status: ('A' for Active; 'I' for Inactive)
REMARK    1  A    between atoms: C_2  and  C_3
REMARK    2  A    between atoms: C_3  and  C_4
REMARK    3  A    between atoms: C_4  and  S_5
REMARK    4  A    between atoms: S_5  and  C_6
REMARK    5  A    between atoms: C_6  and  C_7
REMARK    6  A    between atoms: C_7  and  C_8
REMARK    7  A    between atoms: C_8  and  N_9
REMARK    8  A    between atoms: C_10  and  C_12
REMARK    9  A    between atoms: N_15  and  C_16
REMARK                            x       y       z     vdW  Elec       q    Type
REMARK                         _______ _______ _______ _____ _____    ______ ____
ROOT
ATOM      1  C   UNL     1      40.001  -0.064  14.274  0.00  0.00    +0.000 A 
ATOM      2  C   UNL     1      39.149  -1.041  14.731  0.00  0.00    +0.000 A 
ATOM      3  C   UNL     1      39.601  -2.289  15.097  0.00  0.00    +0.000 A 
ATOM      4  N   UNL     1      38.744  -3.306  15.595  0.00  0.00    +0.000 NA
ATOM      5  N   UNL     1      40.945  -2.516  14.985  0.00  0.00    +0.000 NA
ATOM      6  C   UNL     1      41.807  -1.583  14.543  0.00  0.00    +0.000 A 
ATOM      7  C   UNL     1      43.159  -1.837  14.413  0.00  0.00    +0.000 A 
ATOM      8  C   UNL     1      44.057  -0.923  13.949  0.00  0.00    +0.000 A 
ATOM      9  C   UNL     1      43.611   0.329  13.586  0.00  0.00    +0.000 A 
ATOM     10  C   UNL     1      42.251   0.606  13.710  0.00  0.00    +0.000 A 
ATOM     11  C   UNL     1      41.361  -0.333  14.177  0.00  0.00    +0.000 A 
ENDROOT
BRANCH   4  12
ATOM     12  C   UNL     1      37.373  -3.198  15.818  0.00  0.00    +0.000 A 
ATOM     13  C   UNL     1      36.500  -3.531  14.781  0.00  0.00    +0.000 A 
ATOM     14  C   UNL     1      35.151  -3.446  14.941  0.00  0.00    +0.000 A 
ATOM     15  C   UNL     1      34.589  -3.027  16.141  0.00  0.00    +0.000 A 
ATOM     16  C   UNL     1      35.467  -2.699  17.170  0.00  0.00    +0.000 A 
ATOM     17  C   UNL     1      36.823  -2.776  17.031  0.00  0.00    +0.000 A 
ENDBRANCH   4  12
BRANCH   1  19
ATOM     18  N   UNL     1      39.398   2.212  14.919  0.00  0.00    +0.000 NA
ATOM     19  C   UNL     1      39.567   1.267  13.902  0.00  0.00    +0.000 C 
ATOM     20  O   UNL     1      39.337   1.589  12.710  0.00  0.00    +0.000 OA
BRANCH  18  21
ATOM     21  C   UNL     1      39.043   3.543  14.949  0.00  0.00    +0.000 C 
BRANCH  21  22
ATOM     22  C   UNL     1      38.048   4.026  15.964  0.00  0.00    +0.000 C 
BRANCH  22  23
ATOM     23  C   UNL     1      37.166   5.072  15.253  0.00  0.00    +0.000 C 
BRANCH  23  24
ATOM     24  S   UNL     1      36.279   4.123  13.959  0.00  0.00    +0.000 S 
BRANCH  24  25
ATOM     25  C   UNL     1      35.263   2.815  14.636  0.00  0.00    +0.000 C 
BRANCH  25  26
ATOM     26  C   UNL     1      35.864   1.454  14.315  0.00  0.00    +0.000 C 
BRANCH  26  28
ATOM     27  C   UNL     1      35.089   1.110  16.697  0.00  0.00    +0.000 C 
ATOM     28  C   UNL     1      35.882   0.545  15.550  0.00  0.00    +0.000 C 
ENDBRANCH  26  28
ENDBRANCH  25  26
ENDBRANCH  24  25
ENDBRANCH  23  24
ENDBRANCH  22  23
ENDBRANCH  21  22
ENDBRANCH  18  21
ENDBRANCH   1  19
TORSDOF 9
ENDMDL
MODEL 3
REMARK VINA RESULT:      -6.2      3.435      6.349
REMARK  Name = 
REMARK  9 active torsions:
REMARK  status: ('A' for Active; 'I' for Inactive)
REMARK    1  A    between atoms: C_2  and  C_3
REMARK    2  A    between atoms: C_3  and  C_4
REMARK    3  A    between atoms: C_4  and  S_5
REMARK    4  A    between atoms: S_5  and  C_6
REMARK    5  A    between atoms: C_6  and  C_7
REMARK    6  A    between atoms: C_7  and  C_8
REMARK    7  A    between atoms: C_8  and  N_9
REMARK    8  A    between atoms: C_10  and  C_12
REMARK    9  A    between atoms: N_15  and  C_16
REMARK                            x       y       z     vdW  Elec       q    Type
REMARK                         _______ _______ _______ _____ _____    ______ ____
ROOT
ATOM      1  C   UNL     1      37.755  -1.823  16.413  0.00  0.00    +0.000 A 
ATOM      2  C   UNL     1      37.176  -0.579  16.493  0.00  0.00    +0.000 A 
ATOM      3  C   UNL     1      36.881   0.010  17.701  0.00  0.00    +0.000 A 
ATOM      4  N   UNL     1      36.305   1.305  17.810  0.00  0.00    +0.000 NA
ATOM      5  N   UNL     1      37.189  -0.701  18.828  0.00  0.00    +0.000 NA
ATOM      6  C   UNL     1      37.757  -1.919  18.786  0.00  0.00    +0.000 A 
ATOM      7  C   UNL     1      38.042  -2.635  19.933  0.00  0.00    +0.000 A 
ATOM      8  C   UNL     1      38.596  -3.879  19.928  0.00  0.00    +0.000 A 
ATOM      9  C   UNL     1      38.900  -4.472  18.722  0.00  0.00    +0.000 A 
ATOM     10  C   UNL     1      38.622  -3.767  17.552  0.00  0.00    +0.000 A 
ATOM     11  C   UNL     1      38.057  -2.513  17.581  0.00  0.00    +0.000 A 
ENDROOT
BRANCH   4  12
ATOM     12  C   UNL     1      35.994   2.164  16.758  0.00  0.00    +0.000 A 
ATOM     13  C   UNL     1      36.916   3.152  16.409  0.00  0.00    +0.000 A 
ATOM     14  C   UNL     1      36.669   4.019  15.389  0.00  0.00    +0.000 A 
ATOM     15  C   UNL     1      35.491   3.953  14.653  0.00  0.00    +0.000 A 
ATOM     16  C   UNL     1      34.579   2.963  15.006  0.00  0.00    +0.000 A 
ATOM     17  C   UNL     1      34.806   2.085  16.026  0.00  0.00    +0.000 A 
ENDBRANCH   4  12
BRANCH   1  19
ATOM     18  N   UNL     1      39.370  -2.218  14.625  0.00  0.00    +0.000 NA
ATOM     19  C   UNL     1      38.103  -2.465  15.162  0.00  0.00    +0.000 C 
ATOM     20  O   UNL     1      37.306  -3.223  14.554  0.00  0.00    +0.000 OA
BRANCH  18  21
ATOM     21  C   UNL     1      40.048  -2.661  13.511  0.00  0.00    +0.000 C 
BRANCH  21  22
ATOM     22  C   UNL     1      41.467  -2.229  13.280  0.00  0.00    +0.000 C 
BRANCH  22  23
ATOM     23  C   UNL     1      41.409  -0.995  12.357  0.00  0.00    +0.000 C 
BRANCH  23  24
ATOM     24  S   UNL     1      39.937  -1.279  11.302  0.00  0.00    +0.000 S 
BRANCH  24  25
ATOM     25  C   UNL     1      38.832   0.128  11.266  0.00  0.00    +0.000 C 
BRANCH  25  26
ATOM     26  C   UNL     1      37.714  -0.047  12.284  0.00  0.00    +0.000 C 
BRANCH  26  28
ATOM     27  C   UNL     1      38.981   1.360  13.959  0.00  0.00    +0.000 C 
ATOM     28  C   UNL     1      37.665   1.127  13.268  0.00  0.00    +0.000 C 
ENDBRANCH  26  28
ENDBRANCH  25  26
ENDBRANCH  24  25
ENDBRANCH  23  24
ENDBRANCH  22  23
ENDBRANCH  21  22
ENDBRANCH  18  21
ENDBRANCH   1  19
TORSDOF 9
ENDMDL
MODEL 4
REMARK VINA RESULT:      -6.0      1.362      2.129
REMARK  Name = 
REMARK  9 active torsions:
REMARK  status: ('A' for Active; 'I' for Inactive)
REMARK    1  A    between atoms: C_2  and  C_3
REMARK    2  A    between atoms: C_3  and  C_4
REMARK    3  A    between atoms: C_4  and  S_5
REMARK    4  A    between atoms: S_5  and  C_6
REMARK    5  A    between atoms: C_6  and  C_7
REMARK    6  A    between atoms: C_7  and  C_8
REMARK    7  A    between atoms: C_8  and  N_9
REMARK    8  A    between atoms: C_10  and  C_12
REMARK    9  A    between atoms: N_15  and  C_16
REMARK                            x       y       z     vdW  Elec       q    Type
REMARK                         _______ _______ _______ _____ _____    ______ ____
ROOT
ATOM      1  C   UNL     1      37.185   2.922  16.037  0.00  0.00    +0.000 A 
ATOM      2  C   UNL     1      37.904   3.960  16.581  0.00  0.00    +0.000 A 
ATOM      3  C   UNL     1      38.916   4.587  15.890  0.00  0.00    +0.000 A 
ATOM      4  N   UNL     1      39.656   5.677  16.421  0.00  0.00    +0.000 NA
ATOM      5  N   UNL     1      39.178   4.129  14.628  0.00  0.00    +0.000 NA
ATOM      6  C   UNL     1      38.494   3.117  14.064  0.00  0.00    +0.000 A 
ATOM      7  C   UNL     1      38.787   2.651  12.797  0.00  0.00    +0.000 A 
ATOM      8  C   UNL     1      38.130   1.615  12.203  0.00  0.00    +0.000 A 
ATOM      9  C   UNL     1      37.113   0.987  12.889  0.00  0.00    +0.000 A 
ATOM     10  C   UNL     1      36.801   1.442  14.168  0.00  0.00    +0.000 A 
ATOM     11  C   UNL     1      37.480   2.487  14.750  0.00  0.00    +0.000 A 
ENDROOT
BRANCH   4  12
ATOM     12  C   UNL     1      39.460   6.284  17.660  0.00  0.00    +0.000 A 
ATOM     13  C   UNL     1      40.330   5.964  18.704  0.00  0.00    +0.000 A 
ATOM     14  C   UNL     1      40.190   6.527  19.936  0.00  0.00    +0.000 A 
ATOM     15  C   UNL     1      39.178   7.442  20.203  0.00  0.00    +0.000 A 
ATOM     16  C   UNL     1      38.316   7.756  19.155  0.00  0.00    +0.000 A 
ATOM     17  C   UNL     1      38.439   7.203  17.913  0.00  0.00    +0.000 A 
ENDBRANCH   4  12
BRANCH   1  19
ATOM     18  N   UNL     1      36.417   1.207  17.596  0.00  0.00    +0.000 NA
ATOM     19  C   UNL     1      36.100   2.253  16.723  0.00  0.00    +0.000 C 
ATOM     20  O   UNL     1      34.898   2.580  16.556  0.00  0.00    +0.000 OA
BRANCH  18  21
ATOM     21  C   UNL     1      35.685   0.386  18.424  0.00  0.00    +0.000 C 
BRANCH  21  22
ATOM     22  C   UNL     1      36.337  -0.809  19.056  0.00  0.00    +0.000 C 
BRANCH  22  23
ATOM     23  C   UNL     1      37.231  -1.449  17.975  0.00  0.00    +0.000 C 
BRANCH  23  24
ATOM     24  S   UNL     1      36.064  -2.359  16.893  0.00  0.00    +0.000 S 
BRANCH  24  25
ATOM     25  C   UNL     1      36.781  -2.788  15.311  0.00  0.00    +0.000 C 
BRANCH  25  26
ATOM     26  C   UNL     1      35.891  -3.779  14.574  0.00  0.00    +0.000 C 
BRANCH  26  28
ATOM     27  C   UNL     1      33.474  -4.519  14.532  0.00  0.00    +0.000 C 
ATOM     28  C   UNL     1      34.644  -4.128  15.394  0.00  0.00    +0.000 C 
ENDBRANCH  26  28
ENDBRANCH  25  26
ENDBRANCH  24  25
ENDBRANCH  23  24
ENDBRANCH  22  23
ENDBRANCH  21  22
ENDBRANCH  18  21
ENDBRANCH   1  19
TORSDOF 9
ENDMDL
MODEL 5
REMARK VINA RESULT:      -6.0      4.053      6.940
REMARK  Name = 
REMARK  9 active torsions:
REMARK  status: ('A' for Active; 'I' for Inactive)
REMARK    1  A    between atoms: C_2  and  C_3
REMARK    2  A    between atoms: C_3  and  C_4
REMARK    3  A    between atoms: C_4  and  S_5
REMARK    4  A    between atoms: S_5  and  C_6
REMARK    5  A    between atoms: C_6  and  C_7
REMARK    6  A    between atoms: C_7  and  C_8
REMARK    7  A    between atoms: C_8  and  N_9
REMARK    8  A    between atoms: C_10  and  C_12
REMARK    9  A    between atoms: N_15  and  C_16
REMARK                            x       y       z     vdW  Elec       q    Type
REMARK                         _______ _______ _______ _____ _____    ______ ____
ROOT
ATOM      1  C   UNL     1      37.277   0.860  14.663  0.00  0.00    +0.000 A 
ATOM      2  C   UNL     1      37.121  -0.245  15.468  0.00  0.00    +0.000 A 
ATOM      3  C   UNL     1      36.083  -0.350  16.366  0.00  0.00    +0.000 A 
ATOM      4  N   UNL     1      35.886  -1.490  17.190  0.00  0.00    +0.000 NA
ATOM      5  N   UNL     1      35.208   0.700  16.426  0.00  0.00    +0.000 NA
ATOM      6  C   UNL     1      35.331   1.794  15.653  0.00  0.00    +0.000 A 
ATOM      7  C   UNL     1      34.451   2.856  15.742  0.00  0.00    +0.000 A 
ATOM      8  C   UNL     1      34.557   3.989  14.992  0.00  0.00    +0.000 A 
ATOM      9  C   UNL     1      35.591   4.097  14.086  0.00  0.00    +0.000 A 
ATOM     10  C   UNL     1      36.488   3.037  13.980  0.00  0.00    +0.000 A 
ATOM     11  C   UNL     1      36.365   1.904  14.752  0.00  0.00    +0.000 A 
ENDROOT
BRANCH   4  12
ATOM     12  C   UNL     1      36.657  -2.651  17.194  0.00  0.00    +0.000 A 
ATOM     13  C   UNL     1      37.823  -2.674  17.963  0.00  0.00    +0.000 A 
ATOM     14  C   UNL     1      38.615  -3.781  18.007  0.00  0.00    +0.000 A 
ATOM     15  C   UNL     1      38.296  -4.930  17.293  0.00  0.00    +0.000 A 
ATOM     16  C   UNL     1      37.130  -4.897  16.532  0.00  0.00    +0.000 A 
ATOM     17  C   UNL     1      36.323  -3.799  16.472  0.00  0.00    +0.000 A 
ENDBRANCH   4  12
BRANCH   1  19
ATOM     18  N   UNL     1      38.191   0.355  12.457  0.00  0.00    +0.000 NA
ATOM     19  C   UNL     1      38.341   0.997  13.690  0.00  0.00    +0.000 C 
ATOM     20  O   UNL     1      39.381   1.663  13.923  0.00  0.00    +0.000 OA
BRANCH  18  21
ATOM     21  C   UNL     1      38.948   0.286  11.307  0.00  0.00    +0.000 C 
BRANCH  21  22
ATOM     22  C   UNL     1      39.811  -0.915  11.054  0.00  0.00    +0.000 C 
BRANCH  22  23
ATOM     23  C   UNL     1      41.244  -0.524  11.469  0.00  0.00    +0.000 C 
BRANCH  23  24
ATOM     24  S   UNL     1      42.085  -2.123  11.780  0.00  0.00    +0.000 S 
BRANCH  24  25
ATOM     25  C   UNL     1      42.130  -2.554  13.516  0.00  0.00    +0.000 C 
BRANCH  25  26
ATOM     26  C   UNL     1      41.711  -1.366  14.371  0.00  0.00    +0.000 C 
BRANCH  26  28
ATOM     27  C   UNL     1      39.637  -2.807  14.494  0.00  0.00    +0.000 C 
ATOM     28  C   UNL     1      40.368  -1.621  15.063  0.00  0.00    +0.000 C 
ENDBRANCH  26  28
ENDBRANCH  25  26
ENDBRANCH  24  25
ENDBRANCH  23  24
ENDBRANCH  22  23
ENDBRANCH  21  22
ENDBRANCH  18  21
ENDBRANCH   1  19
TORSDOF 9
ENDMDL
MODEL 6
REMARK VINA RESULT:      -6.0      3.532      5.614
REMARK  Name = 
REMARK  9 active torsions:
REMARK  status: ('A' for Active; 'I' for Inactive)
REMARK    1  A    between atoms: C_2  and  C_3
REMARK    2  A    between atoms: C_3  and  C_4
REMARK    3  A    between atoms: C_4  and  S_5
REMARK    4  A    between atoms: S_5  and  C_6
REMARK    5  A    between atoms: C_6  and  C_7
REMARK    6  A    between atoms: C_7  and  C_8
REMARK    7  A    between atoms: C_8  and  N_9
REMARK    8  A    between atoms: C_10  and  C_12
REMARK    9  A    between atoms: N_15  and  C_16
REMARK                            x       y       z     vdW  Elec       q    Type
REMARK                         _______ _______ _______ _____ _____    ______ ____
ROOT
ATOM      1  C   UNL     1      36.515   0.764  15.345  0.00  0.00    +0.000 A 
ATOM      2  C   UNL     1      37.561   0.272  14.599  0.00  0.00    +0.000 A 
ATOM      3  C   UNL     1      38.098   0.975  13.545  0.00  0.00    +0.000 A 
ATOM      4  N   UNL     1      39.193   0.498  12.775  0.00  0.00    +0.000 NA
ATOM      5  N   UNL     1      37.543   2.193  13.268  0.00  0.00    +0.000 NA
ATOM      6  C   UNL     1      36.521   2.706  13.977  0.00  0.00    +0.000 A 
ATOM      7  C   UNL     1      35.956   3.929  13.669  0.00  0.00    +0.000 A 
ATOM      8  C   UNL     1      34.907   4.469  14.351  0.00  0.00    +0.000 A 
ATOM      9  C   UNL     1      34.369   3.772  15.411  0.00  0.00    +0.000 A 
ATOM     10  C   UNL     1      34.924   2.537  15.739  0.00  0.00    +0.000 A 
ATOM     11  C   UNL     1      35.981   2.008  15.033  0.00  0.00    +0.000 A 
ENDROOT
BRANCH   4  12
ATOM     12  C   UNL     1      39.893  -0.690  12.979  0.00  0.00    +0.000 A 
ATOM     13  C   UNL     1      40.939  -0.697  13.904  0.00  0.00    +0.000 A 
ATOM     14  C   UNL     1      41.657  -1.828  14.146  0.00  0.00    +0.000 A 
ATOM     15  C   UNL     1      41.377  -3.019  13.486  0.00  0.00    +0.000 A 
ATOM     16  C   UNL     1      40.331  -3.002  12.568  0.00  0.00    +0.000 A 
ATOM     17  C   UNL     1      39.599  -1.880  12.309  0.00  0.00    +0.000 A 
ENDBRANCH   4  12
BRANCH   1  19
ATOM     18  N   UNL     1      36.718  -0.074  17.629  0.00  0.00    +0.000 NA
ATOM     19  C   UNL     1      35.940   0.066  16.475  0.00  0.00    +0.000 C 
ATOM     20  O   UNL     1      34.779  -0.415  16.446  0.00  0.00    +0.000 OA
BRANCH  18  21
ATOM     21  C   UNL     1      36.508  -0.626  18.873  0.00  0.00    +0.000 C 
BRANCH  21  22
ATOM     22  C   UNL     1      36.833  -2.071  19.112  0.00  0.00    +0.000 C 
BRANCH  22  23
ATOM     23  C   UNL     1      38.372  -2.182  19.120  0.00  0.00    +0.000 C 
BRANCH  23  24
ATOM     24  S   UNL     1      38.765  -3.216  17.658  0.00  0.00    +0.000 S 
BRANCH  24  25
ATOM     25  C   UNL     1      37.303  -3.735  16.766  0.00  0.00    +0.000 C 
BRANCH  25  26
ATOM     26  C   UNL     1      37.516  -3.591  15.265  0.00  0.00    +0.000 C 
BRANCH  26  28
ATOM     27  C   UNL     1      34.989  -3.554  15.340  0.00  0.00    +0.000 C 
ATOM     28  C   UNL     1      36.219  -3.193  14.552  0.00  0.00    +0.000 C 
ENDBRANCH  26  28
ENDBRANCH  25  26
ENDBRANCH  24  25
ENDBRANCH  23  24
ENDBRANCH  22  23
ENDBRANCH  21  22
ENDBRANCH  18  21
ENDBRANCH   1  19
TORSDOF 9
ENDMDL
MODEL 7
REMARK VINA RESULT:      -5.9      3.035      7.205
REMARK  Name = 
REMARK  9 active torsions:
REMARK  status: ('A' for Active; 'I' for Inactive)
REMARK    1  A    between atoms: C_2  and  C_3
REMARK    2  A    between atoms: C_3  and  C_4
REMARK    3  A    between atoms: C_4  and  S_5
REMARK    4  A    between atoms: S_5  and  C_6
REMARK    5  A    between atoms: C_6  and  C_7
REMARK    6  A    between atoms: C_7  and  C_8
REMARK    7  A    between atoms: C_8  and  N_9
REMARK    8  A    between atoms: C_10  and  C_12
REMARK    9  A    between atoms: N_15  and  C_16
REMARK                            x       y       z     vdW  Elec       q    Type
REMARK                         _______ _______ _______ _____ _____    ______ ____
ROOT
ATOM      1  C   UNL     1      37.059  -1.493  15.814  0.00  0.00    +0.000 A 
ATOM      2  C   UNL     1      38.250  -1.594  15.134  0.00  0.00    +0.000 A 
ATOM      3  C   UNL     1      38.478  -2.586  14.208  0.00  0.00    +0.000 A 
ATOM      4  N   UNL     1      39.691  -2.697  13.476  0.00  0.00    +0.000 NA
ATOM      5  N   UNL     1      37.462  -3.475  13.992  0.00  0.00    +0.000 NA
ATOM      6  C   UNL     1      36.284  -3.405  14.637  0.00  0.00    +0.000 A 
ATOM      7  C   UNL     1      35.275  -4.325  14.424  0.00  0.00    +0.000 A 
ATOM      8  C   UNL     1      34.079  -4.298  15.075  0.00  0.00    +0.000 A 
ATOM      9  C   UNL     1      33.843  -3.303  15.999  0.00  0.00    +0.000 A 
ATOM     10  C   UNL     1      34.846  -2.365  16.229  0.00  0.00    +0.000 A 
ATOM     11  C   UNL     1      36.049  -2.414  15.563  0.00  0.00    +0.000 A 
ENDROOT
BRANCH   4  12
ATOM     12  C   UNL     1      40.783  -1.834  13.548  0.00  0.00    +0.000 A 
ATOM     13  C   UNL     1      40.831  -0.745  12.676  0.00  0.00    +0.000 A 
ATOM     14  C   UNL     1      41.871   0.133  12.700  0.00  0.00    +0.000 A 
ATOM     15  C   UNL     1      42.925  -0.018  13.595  0.00  0.00    +0.000 A 
ATOM     16  C   UNL     1      42.867  -1.105  14.463  0.00  0.00    +0.000 A 
ATOM     17  C   UNL     1      41.834  -1.998  14.454  0.00  0.00    +0.000 A 
ENDBRANCH   4  12
BRANCH   1  19
ATOM     18  N   UNL     1      36.203   0.739  16.310  0.00  0.00    +0.000 NA
ATOM     19  C   UNL     1      36.773  -0.450  16.777  0.00  0.00    +0.000 C 
ATOM     20  O   UNL     1      37.023  -0.580  18.001  0.00  0.00    +0.000 OA
BRANCH  18  21
ATOM     21  C   UNL     1      35.773   1.903  16.908  0.00  0.00    +0.000 C 
BRANCH  21  22
ATOM     22  C   UNL     1      36.612   3.144  16.816  0.00  0.00    +0.000 C 
BRANCH  22  23
ATOM     23  C   UNL     1      36.817   3.427  15.314  0.00  0.00    +0.000 C 
BRANCH  23  24
ATOM     24  S   UNL     1      38.462   4.228  15.217  0.00  0.00    +0.000 S 
BRANCH  24  25
ATOM     25  C   UNL     1      38.606   5.643  16.304  0.00  0.00    +0.000 C 
BRANCH  25  26
ATOM     26  C   UNL     1      39.671   5.395  17.363  0.00  0.00    +0.000 C 
BRANCH  26  28
ATOM     27  C   UNL     1      39.836   6.484  19.639  0.00  0.00    +0.000 C 
ATOM     28  C   UNL     1      39.089   5.503  18.777  0.00  0.00    +0.000 C 
ENDBRANCH  26  28
ENDBRANCH  25  26
ENDBRANCH  24  25
ENDBRANCH  23  24
ENDBRANCH  22  23
ENDBRANCH  21  22
ENDBRANCH  18  21
ENDBRANCH   1  19
TORSDOF 9
ENDMDL
MODEL 8
REMARK VINA RESULT:      -5.9      3.356      8.316
REMARK  Name = 
REMARK  9 active torsions:
REMARK  status: ('A' for Active; 'I' for Inactive)
REMARK    1  A    between atoms: C_2  and  C_3
REMARK    2  A    between atoms: C_3  and  C_4
REMARK    3  A    between atoms: C_4  and  S_5
REMARK    4  A    between atoms: S_5  and  C_6
REMARK    5  A    between atoms: C_6  and  C_7
REMARK    6  A    between atoms: C_7  and  C_8
REMARK    7  A    between atoms: C_8  and  N_9
REMARK    8  A    between atoms: C_10  and  C_12
REMARK    9  A    between atoms: N_15  and  C_16
REMARK                            x       y       z     vdW  Elec       q    Type
REMARK                         _______ _______ _______ _____ _____    ______ ____
ROOT
ATOM      1  C   UNL     1      38.389  -0.996  15.449  0.00  0.00    +0.000 A 
ATOM      2  C   UNL     1      39.265  -1.444  14.488  0.00  0.00    +0.000 A 
ATOM      3  C   UNL     1      40.054  -2.554  14.684  0.00  0.00    +0.000 A 
ATOM      4  N   UNL     1      40.948  -3.051  13.697  0.00  0.00    +0.000 NA
ATOM      5  N   UNL     1      39.929  -3.198  15.884  0.00  0.00    +0.000 NA
ATOM      6  C   UNL     1      39.083  -2.788  16.845  0.00  0.00    +0.000 A 
ATOM      7  C   UNL     1      38.986  -3.435  18.062  0.00  0.00    +0.000 A 
ATOM      8  C   UNL     1      38.156  -3.035  19.066  0.00  0.00    +0.000 A 
ATOM      9  C   UNL     1      37.360  -1.928  18.874  0.00  0.00    +0.000 A 
ATOM     10  C   UNL     1      37.441  -1.260  17.654  0.00  0.00    +0.000 A 
ATOM     11  C   UNL     1      38.290  -1.679  16.655  0.00  0.00    +0.000 A 
ENDROOT
BRANCH   4  12
ATOM     12  C   UNL     1      41.133  -2.537  12.415  0.00  0.00    +0.000 A 
ATOM     13  C   UNL     1      42.160  -1.613  12.210  0.00  0.00    +0.000 A 
ATOM     14  C   UNL     1      42.390  -1.078  10.979  0.00  0.00    +0.000 A 
ATOM     15  C   UNL     1      41.616  -1.431   9.879  0.00  0.00    +0.000 A 
ATOM     16  C   UNL     1      40.597  -2.355  10.094  0.00  0.00    +0.000 A 
ATOM     17  C   UNL     1      40.348  -2.902  11.319  0.00  0.00    +0.000 A 
ENDBRANCH   4  12
BRANCH   1  19
ATOM     18  N   UNL     1      38.067   1.424  15.492  0.00  0.00    +0.000 NA
ATOM     19  C   UNL     1      37.526   0.154  15.272  0.00  0.00    +0.000 C 
ATOM     20  O   UNL     1      36.321   0.041  14.934  0.00  0.00    +0.000 OA
BRANCH  18  21
ATOM     21  C   UNL     1      37.583   2.710  15.393  0.00  0.00    +0.000 C 
BRANCH  21  22
ATOM     22  C   UNL     1      38.479   3.871  15.710  0.00  0.00    +0.000 C 
BRANCH  22  23
ATOM     23  C   UNL     1      38.017   4.426  17.072  0.00  0.00    +0.000 C 
BRANCH  23  24
ATOM     24  S   UNL     1      39.123   5.854  17.385  0.00  0.00    +0.000 S 
BRANCH  24  25
ATOM     25  C   UNL     1      38.464   6.983  18.607  0.00  0.00    +0.000 C 
BRANCH  25  26
ATOM     26  C   UNL     1      39.339   6.991  19.853  0.00  0.00    +0.000 C 
BRANCH  26  28
ATOM     27  C   UNL     1      41.790   6.642  20.366  0.00  0.00    +0.000 C 
ATOM     28  C   UNL     1      40.569   6.094  19.677  0.00  0.00    +0.000 C 
ENDBRANCH  26  28
ENDBRANCH  25  26
ENDBRANCH  24  25
ENDBRANCH  23  24
ENDBRANCH  22  23
ENDBRANCH  21  22
ENDBRANCH  18  21
ENDBRANCH   1  19
TORSDOF 9
ENDMDL
MODEL 9
REMARK VINA RESULT:      -5.9      3.765      5.924
REMARK  Name = 
REMARK  9 active torsions:
REMARK  status: ('A' for Active; 'I' for Inactive)
REMARK    1  A    between atoms: C_2  and  C_3
REMARK    2  A    between atoms: C_3  and  C_4
REMARK    3  A    between atoms: C_4  and  S_5
REMARK    4  A    between atoms: S_5  and  C_6
REMARK    5  A    between atoms: C_6  and  C_7
REMARK    6  A    between atoms: C_7  and  C_8
REMARK    7  A    between atoms: C_8  and  N_9
REMARK    8  A    between atoms: C_10  and  C_12
REMARK    9  A    between atoms: N_15  and  C_16
REMARK                            x       y       z     vdW  Elec       q    Type
REMARK                         _______ _______ _______ _____ _____    ______ ____
ROOT
ATOM      1  C   UNL     1      36.780   2.737  14.015  0.00  0.00    +0.000 A 
ATOM      2  C   UNL     1      36.312   1.999  15.078  0.00  0.00    +0.000 A 
ATOM      3  C   UNL     1      35.225   2.399  15.820  0.00  0.00    +0.000 A 
ATOM      4  N   UNL     1      34.709   1.642  16.906  0.00  0.00    +0.000 NA
ATOM      5  N   UNL     1      34.625   3.573  15.455  0.00  0.00    +0.000 NA
ATOM      6  C   UNL     1      35.055   4.319  14.422  0.00  0.00    +0.000 A 
ATOM      7  C   UNL     1      34.452   5.515  14.080  0.00  0.00    +0.000 A 
ATOM      8  C   UNL     1      34.874   6.307  13.055  0.00  0.00    +0.000 A 
ATOM      9  C   UNL     1      35.958   5.908  12.304  0.00  0.00    +0.000 A 
ATOM     10  C   UNL     1      36.581   4.705  12.631  0.00  0.00    +0.000 A 
ATOM     11  C   UNL     1      36.141   3.923  13.674  0.00  0.00    +0.000 A 
ENDROOT
BRANCH   4  12
ATOM     12  C   UNL     1      35.177   0.407  17.350  0.00  0.00    +0.000 A 
ATOM     13  C   UNL     1      36.100   0.381  18.396  0.00  0.00    +0.000 A 
ATOM     14  C   UNL     1      36.592  -0.796  18.874  0.00  0.00    +0.000 A 
ATOM     15  C   UNL     1      36.194  -2.016  18.340  0.00  0.00    +0.000 A 
ATOM     16  C   UNL     1      35.271  -1.980  17.298  0.00  0.00    +0.000 A 
ATOM     17  C   UNL     1      34.767  -0.812  16.804  0.00  0.00    +0.000 A 
ENDBRANCH   4  12
BRANCH   1  19
ATOM     18  N   UNL     1      37.670   1.443  12.147  0.00  0.00    +0.000 NA
ATOM     19  C   UNL     1      37.905   2.337  13.196  0.00  0.00    +0.000 C 
ATOM     20  O   UNL     1      39.069   2.762  13.402  0.00  0.00    +0.000 OA
BRANCH  18  21
ATOM     21  C   UNL     1      38.456   0.879  11.166  0.00  0.00    +0.000 C 
BRANCH  21  22
ATOM     22  C   UNL     1      39.158  -0.420  11.428  0.00  0.00    +0.000 C 
BRANCH  22  23
ATOM     23  C   UNL     1      40.576  -0.065  11.918  0.00  0.00    +0.000 C 
BRANCH  23  24
ATOM     24  S   UNL     1      41.146  -1.565  12.803  0.00  0.00    +0.000 S 
BRANCH  24  25
ATOM     25  C   UNL     1      40.856  -1.478  14.567  0.00  0.00    +0.000 C 
BRANCH  25  26
ATOM     26  C   UNL     1      39.828  -0.401  14.886  0.00  0.00    +0.000 C 
BRANCH  26  28
ATOM     27  C   UNL     1      38.650  -2.486  15.697  0.00  0.00    +0.000 C 
ATOM     28  C   UNL     1      38.531  -1.010  15.430  0.00  0.00    +0.000 C 
ENDBRANCH  26  28
ENDBRANCH  25  26
ENDBRANCH  24  25
ENDBRANCH  23  24
ENDBRANCH  22  23
ENDBRANCH  21  22
ENDBRANCH  18  21
ENDBRANCH   1  19
TORSDOF 9
ENDMDL
MODEL 10
REMARK VINA RESULT:      -5.9      3.043      7.856
REMARK  Name = 
REMARK  9 active torsions:
REMARK  status: ('A' for Active; 'I' for Inactive)
REMARK    1  A    between atoms: C_2  and  C_3
REMARK    2  A    between atoms: C_3  and  C_4
REMARK    3  A    between atoms: C_4  and  S_5
REMARK    4  A    between atoms: S_5  and  C_6
REMARK    5  A    between atoms: C_6  and  C_7
REMARK    6  A    between atoms: C_7  and  C_8
REMARK    7  A    between atoms: C_8  and  N_9
REMARK    8  A    between atoms: C_10  and  C_12
REMARK    9  A    between atoms: N_15  and  C_16
REMARK                            x       y       z     vdW  Elec       q    Type
REMARK                         _______ _______ _______ _____ _____    ______ ____
ROOT
ATOM      1  C   UNL     1      37.889   0.228  15.093  0.00  0.00    +0.000 A 
ATOM      2  C   UNL     1      38.908  -0.645  14.794  0.00  0.00    +0.000 A 
ATOM      3  C   UNL     1      38.892  -1.955  15.216  0.00  0.00    +0.000 A 
ATOM      4  N   UNL     1      39.921  -2.883  14.898  0.00  0.00    +0.000 NA
ATOM      5  N   UNL     1      37.810  -2.355  15.951  0.00  0.00    +0.000 NA
ATOM      6  C   UNL     1      36.796  -1.528  16.261  0.00  0.00    +0.000 A 
ATOM      7  C   UNL     1      35.721  -1.941  17.025  0.00  0.00    +0.000 A 
ATOM      8  C   UNL     1      34.687  -1.125  17.376  0.00  0.00    +0.000 A 
ATOM      9  C   UNL     1      34.696   0.186  16.952  0.00  0.00    +0.000 A 
ATOM     10  C   UNL     1      35.769   0.623  16.180  0.00  0.00    +0.000 A 
ATOM     11  C   UNL     1      36.806  -0.217  15.841  0.00  0.00    +0.000 A 
ENDROOT
BRANCH   4  12
ATOM     12  C   UNL     1      41.044  -2.635  14.113  0.00  0.00    +0.000 A 
ATOM     13  C   UNL     1      42.061  -1.835  14.637  0.00  0.00    +0.000 A 
ATOM     14  C   UNL     1      43.184  -1.560  13.917  0.00  0.00    +0.000 A 
ATOM     15  C   UNL     1      43.363  -2.065  12.635  0.00  0.00    +0.000 A 
ATOM     16  C   UNL     1      42.345  -2.863  12.121  0.00  0.00    +0.000 A 
ATOM     17  C   UNL     1      41.211  -3.150  12.825  0.00  0.00    +0.000 A 
ENDBRANCH   4  12
BRANCH   1  19
ATOM     18  N   UNL     1      38.540   2.559  15.412  0.00  0.00    +0.000 NA
ATOM     19  C   UNL     1      37.859   1.606  14.648  0.00  0.00    +0.000 C 
ATOM     20  O   UNL     1      37.244   1.963  13.613  0.00  0.00    +0.000 OA
BRANCH  18  21
ATOM     21  C   UNL     1      38.759   3.914  15.292  0.00  0.00    +0.000 C 
BRANCH  21  22
ATOM     22  C   UNL     1      38.015   4.871  16.176  0.00  0.00    +0.000 C 
BRANCH  22  23
ATOM     23  C   UNL     1      38.488   4.599  17.619  0.00  0.00    +0.000 C 
BRANCH  23  24
ATOM     24  S   UNL     1      39.643   5.972  17.991  0.00  0.00    +0.000 S 
BRANCH  24  25
ATOM     25  C   UNL     1      39.192   6.872  19.471  0.00  0.00    +0.000 C 
BRANCH  25  26
ATOM     26  C   UNL     1      40.432   7.215  20.285  0.00  0.00    +0.000 C 
BRANCH  26  28
ATOM     27  C   UNL     1      42.640   6.169  20.934  0.00  0.00    +0.000 C 
ATOM     28  C   UNL     1      41.644   6.395  19.829  0.00  0.00    +0.000 C 
ENDBRANCH  26  28
ENDBRANCH  25  26
ENDBRANCH  24  25
ENDBRANCH  23  24
ENDBRANCH  22  23
ENDBRANCH  21  22
ENDBRANCH  18  21
ENDBRANCH   1  19
TORSDOF 9
ENDMDL
