MODEL 1
REMARK VINA RESULT:      -5.7      0.000      0.000
REMARK  Name = 
REMARK  6 active torsions:
REMARK  status: ('A' for Active; 'I' for Inactive)
REMARK    1  A    between atoms: C_2  and  C_4
REMARK    2  A    between atoms: C_7  and  N_8
REMARK    3  A    between atoms: N_8  and  C_9
REMARK    4  A    between atoms: C_9  and  N_11
REMARK    5  A    between atoms: C_12  and  C_14
REMARK    6  A    between atoms: C_14  and  C_15
REMARK                            x       y       z     vdW  Elec       q    Type
REMARK                         _______ _______ _______ _____ _____    ______ ____
ROOT
ATOM      1  N   UNL     1      32.514  20.254  10.937  0.00  0.00    +0.000 NA
ENDROOT
BRANCH   1   5
ATOM      2  C   UNL     1      29.059  22.440  12.059  0.00  0.00    +0.000 A 
ATOM      3  C   UNL     1      29.088  21.695  10.906  0.00  0.00    +0.000 A 
ATOM      4  C   UNL     1      30.210  20.969  10.514  0.00  0.00    +0.000 A 
ATOM      5  C   UNL     1      31.345  20.980  11.294  0.00  0.00    +0.000 A 
ATOM      6  C   UNL     1      31.332  21.722  12.453  0.00  0.00    +0.000 A 
ATOM      7  C   UNL     1      30.218  22.438  12.833  0.00  0.00    +0.000 A 
BRANCH   2   9
ATOM      8  C   UNL     1      27.873  23.872  13.797  0.00  0.00    +0.000 C 
ATOM      9  C   UNL     1      27.892  23.203  12.477  0.00  0.00    +0.000 C 
ATOM     10  O   UNL     1      26.909  23.291  11.718  0.00  0.00    +0.000 OA
ENDBRANCH   2   9
ENDBRANCH   1   5
BRANCH   1  11
ATOM     11  C   UNL     1      33.780  20.889  10.855  0.00  0.00    +0.000 C 
ATOM     12  S   UNL     1      34.031  21.974   9.667  0.00  0.00    +0.000 S 
BRANCH  11  13
ATOM     13  N   UNL     1      34.785  20.564  11.801  0.00  0.00    +0.000 NA
ATOM     14  C   UNL     1      35.686  19.504  11.564  0.00  0.00    +0.000 C 
ATOM     15  O   UNL     1      35.537  18.875  10.466  0.00  0.00    +0.000 OA
BRANCH  14  16
ATOM     16  C   UNL     1      36.758  19.120  12.520  0.00  0.00    +0.000 C 
BRANCH  16  17
ATOM     17  C   UNL     1      36.187  19.187  13.908  0.00  0.00    +0.000 C 
ATOM     18  C   UNL     1      36.060  17.777  14.441  0.00  0.00    +0.000 C 
ATOM     19  C   UNL     1      37.160  19.946  14.788  0.00  0.00    +0.000 C 
ENDBRANCH  16  17
ENDBRANCH  14  16
ENDBRANCH  11  13
ENDBRANCH   1  11
TORSDOF 6
ENDMDL
MODEL 2
REMARK VINA RESULT:      -5.7      3.472      5.534
REMARK  Name = 
REMARK  6 active torsions:
REMARK  status: ('A' for Active; 'I' for Inactive)
REMARK    1  A    between atoms: C_2  and  C_4
REMARK    2  A    between atoms: C_7  and  N_8
REMARK    3  A    between atoms: N_8  and  C_9
REMARK    4  A    between atoms: C_9  and  N_11
REMARK    5  A    between atoms: C_12  and  C_14
REMARK    6  A    between atoms: C_14  and  C_15
REMARK                            x       y       z     vdW  Elec       q    Type
REMARK                         _______ _______ _______ _____ _____    ______ ____
ROOT
ATOM      1  N   UNL     1      31.955  20.444  10.683  0.00  0.00    +0.000 NA
ENDROOT
BRANCH   1   5
ATOM      2  C   UNL     1      28.782  22.753  12.286  0.00  0.00    +0.000 A 
ATOM      3  C   UNL     1      28.617  22.012  11.142  0.00  0.00    +0.000 A 
ATOM      4  C   UNL     1      29.643  21.246  10.595  0.00  0.00    +0.000 A 
ATOM      5  C   UNL     1      30.878  21.211  11.204  0.00  0.00    +0.000 A 
ATOM      6  C   UNL     1      31.058  21.948  12.351  0.00  0.00    +0.000 A 
ATOM      7  C   UNL     1      30.039  22.704  12.886  0.00  0.00    +0.000 A 
BRANCH   2   9
ATOM      8  C   UNL     1      26.474  23.812  12.105  0.00  0.00    +0.000 C 
ATOM      9  C   UNL     1      27.717  23.557  12.867  0.00  0.00    +0.000 C 
ATOM     10  O   UNL     1      27.856  24.032  14.010  0.00  0.00    +0.000 OA
ENDBRANCH   2   9
ENDBRANCH   1   5
BRANCH   1  11
ATOM     11  C   UNL     1      32.686  20.875   9.547  0.00  0.00    +0.000 C 
ATOM     12  S   UNL     1      33.753  22.093   9.725  0.00  0.00    +0.000 S 
BRANCH  11  13
ATOM     13  N   UNL     1      32.470  20.241   8.297  0.00  0.00    +0.000 NA
ATOM     14  C   UNL     1      31.633  20.828   7.323  0.00  0.00    +0.000 C 
ATOM     15  O   UNL     1      31.098  21.940   7.640  0.00  0.00    +0.000 OA
BRANCH  14  16
ATOM     16  C   UNL     1      31.370  20.208   5.998  0.00  0.00    +0.000 C 
BRANCH  16  17
ATOM     17  C   UNL     1      29.883  20.138   5.805  0.00  0.00    +0.000 C 
ATOM     18  C   UNL     1      29.524  20.919   4.560  0.00  0.00    +0.000 C 
ATOM     19  C   UNL     1      29.498  18.688   5.589  0.00  0.00    +0.000 C 
ENDBRANCH  16  17
ENDBRANCH  14  16
ENDBRANCH  11  13
ENDBRANCH   1  11
TORSDOF 6
ENDMDL
MODEL 3
REMARK VINA RESULT:      -5.4     12.621     14.437
REMARK  Name = 
REMARK  6 active torsions:
REMARK  status: ('A' for Active; 'I' for Inactive)
REMARK    1  A    between atoms: C_2  and  C_4
REMARK    2  A    between atoms: C_7  and  N_8
REMARK    3  A    between atoms: N_8  and  C_9
REMARK    4  A    between atoms: C_9  and  N_11
REMARK    5  A    between atoms: C_12  and  C_14
REMARK    6  A    between atoms: C_14  and  C_15
REMARK                            x       y       z     vdW  Elec       q    Type
REMARK                         _______ _______ _______ _____ _____    ______ ____
ROOT
ATOM      1  N   UNL     1      26.116  24.183  25.762  0.00  0.00    +0.000 NA
ENDROOT
BRANCH   1   5
ATOM      2  C   UNL     1      28.331  25.186  22.289  0.00  0.00    +0.000 A 
ATOM      3  C   UNL     1      27.823  26.157  23.115  0.00  0.00    +0.000 A 
ATOM      4  C   UNL     1      27.092  25.855  24.261  0.00  0.00    +0.000 A 
ATOM      5  C   UNL     1      26.856  24.541  24.602  0.00  0.00    +0.000 A 
ATOM      6  C   UNL     1      27.359  23.556  23.784  0.00  0.00    +0.000 A 
ATOM      7  C   UNL     1      28.080  23.863  22.652  0.00  0.00    +0.000 A 
BRANCH   2   9
ATOM      8  C   UNL     1      29.093  26.860  20.529  0.00  0.00    +0.000 C 
ATOM      9  C   UNL     1      29.095  25.490  21.088  0.00  0.00    +0.000 C 
ATOM     10  O   UNL     1      29.753  24.590  20.532  0.00  0.00    +0.000 OA
ENDBRANCH   2   9
ENDBRANCH   1   5
BRANCH   1  11
ATOM     11  C   UNL     1      26.728  24.138  27.041  0.00  0.00    +0.000 C 
ATOM     12  S   UNL     1      25.776  24.190  28.361  0.00  0.00    +0.000 S 
BRANCH  11  13
ATOM     13  N   UNL     1      28.140  24.052  27.136  0.00  0.00    +0.000 NA
ATOM     14  C   UNL     1      28.792  22.800  27.107  0.00  0.00    +0.000 C 
ATOM     15  O   UNL     1      28.040  21.778  26.993  0.00  0.00    +0.000 OA
BRANCH  14  16
ATOM     16  C   UNL     1      30.268  22.650  27.203  0.00  0.00    +0.000 C 
BRANCH  16  17
ATOM     17  C   UNL     1      30.894  23.580  26.203  0.00  0.00    +0.000 C 
ATOM     18  C   UNL     1      32.272  23.958  26.699  0.00  0.00    +0.000 C 
ATOM     19  C   UNL     1      31.045  22.836  24.890  0.00  0.00    +0.000 C 
ENDBRANCH  16  17
ENDBRANCH  14  16
ENDBRANCH  11  13
ENDBRANCH   1  11
TORSDOF 6
ENDMDL
MODEL 4
REMARK VINA RESULT:      -5.4     13.992     16.171
REMARK  Name = 
REMARK  6 active torsions:
REMARK  status: ('A' for Active; 'I' for Inactive)
REMARK    1  A    between atoms: C_2  and  C_4
REMARK    2  A    between atoms: C_7  and  N_8
REMARK    3  A    between atoms: N_8  and  C_9
REMARK    4  A    between atoms: C_9  and  N_11
REMARK    5  A    between atoms: C_12  and  C_14
REMARK    6  A    between atoms: C_14  and  C_15
REMARK                            x       y       z     vdW  Elec       q    Type
REMARK                         _______ _______ _______ _____ _____    ______ ____
ROOT
ATOM      1  N   UNL     1      30.222  21.958  27.221  0.00  0.00    +0.000 NA
ENDROOT
BRANCH   1   5
ATOM      2  C   UNL     1      29.232  23.566  23.425  0.00  0.00    +0.000 A 
ATOM      3  C   UNL     1      30.538  23.447  23.831  0.00  0.00    +0.000 A 
ATOM      4  C   UNL     1      30.891  22.923  25.072  0.00  0.00    +0.000 A 
ATOM      5  C   UNL     1      29.912  22.500  25.945  0.00  0.00    +0.000 A 
ATOM      6  C   UNL     1      28.598  22.612  25.553  0.00  0.00    +0.000 A 
ATOM      7  C   UNL     1      28.258  23.132  24.323  0.00  0.00    +0.000 A 
BRANCH   2   9
ATOM      8  C   UNL     1      27.455  24.529  21.877  0.00  0.00    +0.000 C 
ATOM      9  C   UNL     1      28.853  24.112  22.131  0.00  0.00    +0.000 C 
ATOM     10  O   UNL     1      29.711  24.227  21.235  0.00  0.00    +0.000 OA
ENDBRANCH   2   9
ENDBRANCH   1   5
BRANCH   1  11
ATOM     11  C   UNL     1      30.506  22.797  28.329  0.00  0.00    +0.000 C 
ATOM     12  S   UNL     1      31.784  22.435  29.272  0.00  0.00    +0.000 S 
BRANCH  11  13
ATOM     13  N   UNL     1      29.677  23.919  28.585  0.00  0.00    +0.000 NA
ATOM     14  C   UNL     1      28.447  23.770  29.262  0.00  0.00    +0.000 C 
ATOM     15  O   UNL     1      28.142  22.585  29.617  0.00  0.00    +0.000 OA
BRANCH  14  16
ATOM     16  C   UNL     1      27.539  24.909  29.556  0.00  0.00    +0.000 C 
BRANCH  16  17
ATOM     17  C   UNL     1      26.126  24.403  29.497  0.00  0.00    +0.000 C 
ATOM     18  C   UNL     1      25.246  25.349  30.283  0.00  0.00    +0.000 C 
ATOM     19  C   UNL     1      25.674  24.420  28.050  0.00  0.00    +0.000 C 
ENDBRANCH  16  17
ENDBRANCH  14  16
ENDBRANCH  11  13
ENDBRANCH   1  11
TORSDOF 6
ENDMDL
MODEL 5
REMARK VINA RESULT:      -5.4     13.311     15.617
REMARK  Name = 
REMARK  6 active torsions:
REMARK  status: ('A' for Active; 'I' for Inactive)
REMARK    1  A    between atoms: C_2  and  C_4
REMARK    2  A    between atoms: C_7  and  N_8
REMARK    3  A    between atoms: N_8  and  C_9
REMARK    4  A    between atoms: C_9  and  N_11
REMARK    5  A    between atoms: C_12  and  C_14
REMARK    6  A    between atoms: C_14  and  C_15
REMARK                            x       y       z     vdW  Elec       q    Type
REMARK                         _______ _______ _______ _____ _____    ______ ____
ROOT
ATOM      1  N   UNL     1      30.970  23.824  27.292  0.00  0.00    +0.000 NA
ENDROOT
BRANCH   1   5
ATOM      2  C   UNL     1      29.386  24.091  23.368  0.00  0.00    +0.000 A 
ATOM      3  C   UNL     1      29.644  25.216  24.111  0.00  0.00    +0.000 A 
ATOM      4  C   UNL     1      30.163  25.157  25.402  0.00  0.00    +0.000 A 
ATOM      5  C   UNL     1      30.439  23.936  25.978  0.00  0.00    +0.000 A 
ATOM      6  C   UNL     1      30.186  22.799  25.246  0.00  0.00    +0.000 A 
ATOM      7  C   UNL     1      29.672  22.867  23.970  0.00  0.00    +0.000 A 
BRANCH   2   9
ATOM      8  C   UNL     1      27.381  24.075  21.800  0.00  0.00    +0.000 C 
ATOM      9  C   UNL     1      28.843  24.142  22.019  0.00  0.00    +0.000 C 
ATOM     10  O   UNL     1      29.616  24.243  21.047  0.00  0.00    +0.000 OA
ENDBRANCH   2   9
ENDBRANCH   1   5
BRANCH   1  11
ATOM     11  C   UNL     1      30.132  23.566  28.407  0.00  0.00    +0.000 C 
ATOM     12  S   UNL     1      30.760  22.779  29.686  0.00  0.00    +0.000 S 
BRANCH  11  13
ATOM     13  N   UNL     1      28.781  23.996  28.378  0.00  0.00    +0.000 NA
ATOM     14  C   UNL     1      27.740  23.090  28.081  0.00  0.00    +0.000 C 
ATOM     15  O   UNL     1      28.091  21.888  27.846  0.00  0.00    +0.000 OA
BRANCH  14  16
ATOM     16  C   UNL     1      26.307  23.486  28.036  0.00  0.00    +0.000 C 
BRANCH  16  17
ATOM     17  C   UNL     1      26.095  24.319  26.804  0.00  0.00    +0.000 C 
ATOM     18  C   UNL     1      26.029  23.395  25.608  0.00  0.00    +0.000 C 
ATOM     19  C   UNL     1      24.763  25.031  26.934  0.00  0.00    +0.000 C 
ENDBRANCH  16  17
ENDBRANCH  14  16
ENDBRANCH  11  13
ENDBRANCH   1  11
TORSDOF 6
ENDMDL
MODEL 6
REMARK VINA RESULT:      -5.3     14.551     17.135
REMARK  Name = 
REMARK  6 active torsions:
REMARK  status: ('A' for Active; 'I' for Inactive)
REMARK    1  A    between atoms: C_2  and  C_4
REMARK    2  A    between atoms: C_7  and  N_8
REMARK    3  A    between atoms: N_8  and  C_9
REMARK    4  A    between atoms: C_9  and  N_11
REMARK    5  A    between atoms: C_12  and  C_14
REMARK    6  A    between atoms: C_14  and  C_15
REMARK                            x       y       z     vdW  Elec       q    Type
REMARK                         _______ _______ _______ _____ _____    ______ ____
ROOT
ATOM      1  N   UNL     1      27.872  22.163  27.963  0.00  0.00    +0.000 NA
ENDROOT
BRANCH   1   5
ATOM      2  C   UNL     1      27.973  23.295  23.879  0.00  0.00    +0.000 A 
ATOM      3  C   UNL     1      29.123  22.980  24.560  0.00  0.00    +0.000 A 
ATOM      4  C   UNL     1      29.118  22.606  25.902  0.00  0.00    +0.000 A 
ATOM      5  C   UNL     1      27.928  22.541  26.594  0.00  0.00    +0.000 A 
ATOM      6  C   UNL     1      26.768  22.852  25.925  0.00  0.00    +0.000 A 
ATOM      7  C   UNL     1      26.782  23.222  24.599  0.00  0.00    +0.000 A 
BRANCH   2   9
ATOM      8  C   UNL     1      29.139  24.376  21.891  0.00  0.00    +0.000 C 
ATOM      9  C   UNL     1      27.968  23.687  22.477  0.00  0.00    +0.000 C 
ATOM     10  O   UNL     1      26.971  23.441  21.773  0.00  0.00    +0.000 OA
ENDBRANCH   2   9
ENDBRANCH   1   5
BRANCH   1  11
ATOM     11  C   UNL     1      28.134  23.098  28.997  0.00  0.00    +0.000 C 
ATOM     12  S   UNL     1      29.396  22.828  29.990  0.00  0.00    +0.000 S 
BRANCH  11  13
ATOM     13  N   UNL     1      27.296  24.234  29.139  0.00  0.00    +0.000 NA
ATOM     14  C   UNL     1      26.147  24.187  29.958  0.00  0.00    +0.000 C 
ATOM     15  O   UNL     1      25.921  23.080  30.546  0.00  0.00    +0.000 OA
BRANCH  14  16
ATOM     16  C   UNL     1      25.234  25.346  30.142  0.00  0.00    +0.000 C 
BRANCH  16  17
ATOM     17  C   UNL     1      25.312  26.198  28.908  0.00  0.00    +0.000 C 
ATOM     18  C   UNL     1      23.931  26.286  28.299  0.00  0.00    +0.000 C 
ATOM     19  C   UNL     1      25.745  27.593  29.318  0.00  0.00    +0.000 C 
ENDBRANCH  16  17
ENDBRANCH  14  16
ENDBRANCH  11  13
ENDBRANCH   1  11
TORSDOF 6
ENDMDL
MODEL 7
REMARK VINA RESULT:      -5.3      2.331      3.120
REMARK  Name = 
REMARK  6 active torsions:
REMARK  status: ('A' for Active; 'I' for Inactive)
REMARK    1  A    between atoms: C_2  and  C_4
REMARK    2  A    between atoms: C_7  and  N_8
REMARK    3  A    between atoms: N_8  and  C_9
REMARK    4  A    between atoms: C_9  and  N_11
REMARK    5  A    between atoms: C_12  and  C_14
REMARK    6  A    between atoms: C_14  and  C_15
REMARK                            x       y       z     vdW  Elec       q    Type
REMARK                         _______ _______ _______ _____ _____    ______ ____
ROOT
ATOM      1  N   UNL     1      31.479  20.735   7.437  0.00  0.00    +0.000 NA
ENDROOT
BRANCH   1   5
ATOM      2  C   UNL     1      29.679  22.111  11.020  0.00  0.00    +0.000 A 
ATOM      3  C   UNL     1      29.547  20.807  10.611  0.00  0.00    +0.000 A 
ATOM      4  C   UNL     1      30.127  20.330   9.438  0.00  0.00    +0.000 A 
ATOM      5  C   UNL     1      30.867  21.176   8.641  0.00  0.00    +0.000 A 
ATOM      6  C   UNL     1      31.009  22.485   9.038  0.00  0.00    +0.000 A 
ATOM      7  C   UNL     1      30.431  22.950  10.199  0.00  0.00    +0.000 A 
BRANCH   2   9
ATOM      8  C   UNL     1      27.810  23.386  12.189  0.00  0.00    +0.000 C 
ATOM      9  C   UNL     1      29.076  22.620  12.243  0.00  0.00    +0.000 C 
ATOM     10  O   UNL     1      29.631  22.409  13.337  0.00  0.00    +0.000 OA
ENDBRANCH   2   9
ENDBRANCH   1   5
BRANCH   1  11
ATOM     11  C   UNL     1      32.781  20.171   7.435  0.00  0.00    +0.000 C 
ATOM     12  S   UNL     1      33.423  19.701   6.014  0.00  0.00    +0.000 S 
BRANCH  11  13
ATOM     13  N   UNL     1      33.481  20.031   8.660  0.00  0.00    +0.000 NA
ATOM     14  C   UNL     1      34.325  21.059   9.132  0.00  0.00    +0.000 C 
ATOM     15  O   UNL     1      34.411  22.097   8.398  0.00  0.00    +0.000 OA
BRANCH  14  16
ATOM     16  C   UNL     1      35.083  20.966  10.408  0.00  0.00    +0.000 C 
BRANCH  16  17
ATOM     17  C   UNL     1      34.285  20.123  11.360  0.00  0.00    +0.000 C 
ATOM     18  C   UNL     1      35.196  19.677  12.482  0.00  0.00    +0.000 C 
ATOM     19  C   UNL     1      33.184  20.982  11.950  0.00  0.00    +0.000 C 
ENDBRANCH  16  17
ENDBRANCH  14  16
ENDBRANCH  11  13
ENDBRANCH   1  11
TORSDOF 6
ENDMDL
MODEL 8
REMARK VINA RESULT:      -5.3     30.164     32.959
REMARK  Name = 
REMARK  6 active torsions:
REMARK  status: ('A' for Active; 'I' for Inactive)
REMARK    1  A    between atoms: C_2  and  C_4
REMARK    2  A    between atoms: C_7  and  N_8
REMARK    3  A    between atoms: N_8  and  C_9
REMARK    4  A    between atoms: C_9  and  N_11
REMARK    5  A    between atoms: C_12  and  C_14
REMARK    6  A    between atoms: C_14  and  C_15
REMARK                            x       y       z     vdW  Elec       q    Type
REMARK                         _______ _______ _______ _____ _____    ______ ____
ROOT
ATOM      1  N   UNL     1      32.354  -4.859  35.205  0.00  0.00    +0.000 NA
ENDROOT
BRANCH   1   5
ATOM      2  C   UNL     1      33.233  -0.909  33.940  0.00  0.00    +0.000 A 
ATOM      3  C   UNL     1      33.896  -1.990  33.414  0.00  0.00    +0.000 A 
ATOM      4  C   UNL     1      33.627  -3.297  33.813  0.00  0.00    +0.000 A 
ATOM      5  C   UNL     1      32.664  -3.543  34.767  0.00  0.00    +0.000 A 
ATOM      6  C   UNL     1      31.991  -2.470  35.303  0.00  0.00    +0.000 A 
ATOM      7  C   UNL     1      32.263  -1.180  34.904  0.00  0.00    +0.000 A 
BRANCH   2   9
ATOM      8  C   UNL     1      34.283   0.732  32.301  0.00  0.00    +0.000 C 
ATOM      9  C   UNL     1      33.506   0.461  33.531  0.00  0.00    +0.000 C 
ATOM     10  O   UNL     1      33.082   1.406  34.222  0.00  0.00    +0.000 OA
ENDBRANCH   2   9
ENDBRANCH   1   5
BRANCH   1  11
ATOM     11  C   UNL     1      31.558  -5.729  34.417  0.00  0.00    +0.000 C 
ATOM     12  S   UNL     1      30.386  -6.590  35.150  0.00  0.00    +0.000 S 
BRANCH  11  13
ATOM     13  N   UNL     1      31.803  -5.828  33.023  0.00  0.00    +0.000 NA
ATOM     14  C   UNL     1      32.782  -6.713  32.522  0.00  0.00    +0.000 C 
ATOM     15  O   UNL     1      33.414  -7.401  33.388  0.00  0.00    +0.000 OA
BRANCH  14  16
ATOM     16  C   UNL     1      33.081  -6.856  31.072  0.00  0.00    +0.000 C 
BRANCH  16  17
ATOM     17  C   UNL     1      33.890  -5.665  30.646  0.00  0.00    +0.000 C 
ATOM     18  C   UNL     1      35.320  -5.875  31.090  0.00  0.00    +0.000 C 
ATOM     19  C   UNL     1      33.864  -5.589  29.132  0.00  0.00    +0.000 C 
ENDBRANCH  16  17
ENDBRANCH  14  16
ENDBRANCH  11  13
ENDBRANCH   1  11
TORSDOF 6
ENDMDL
MODEL 9
REMARK VINA RESULT:      -5.3     25.849     28.406
REMARK  Name = 
REMARK  6 active torsions:
REMARK  status: ('A' for Active; 'I' for Inactive)
REMARK    1  A    between atoms: C_2  and  C_4
REMARK    2  A    between atoms: C_7  and  N_8
REMARK    3  A    between atoms: N_8  and  C_9
REMARK    4  A    between atoms: C_9  and  N_11
REMARK    5  A    between atoms: C_12  and  C_14
REMARK    6  A    between atoms: C_14  and  C_15
REMARK                            x       y       z     vdW  Elec       q    Type
REMARK                         _______ _______ _______ _____ _____    ______ ____
ROOT
ATOM      1  N   UNL     1      33.969   5.974  36.358  0.00  0.00    +0.000 NA
ENDROOT
BRANCH   1   5
ATOM      2  C   UNL     1      33.535   2.346  34.209  0.00  0.00    +0.000 A 
ATOM      3  C   UNL     1      33.332   3.561  33.604  0.00  0.00    +0.000 A 
ATOM      4  C   UNL     1      33.467   4.767  34.287  0.00  0.00    +0.000 A 
ATOM      5  C   UNL     1      33.818   4.769  35.619  0.00  0.00    +0.000 A 
ATOM      6  C   UNL     1      34.025   3.559  36.239  0.00  0.00    +0.000 A 
ATOM      7  C   UNL     1      33.888   2.370  35.557  0.00  0.00    +0.000 A 
BRANCH   2   9
ATOM      8  C   UNL     1      34.304   0.744  32.386  0.00  0.00    +0.000 C 
ATOM      9  C   UNL     1      33.395   1.079  33.504  0.00  0.00    +0.000 C 
ATOM     10  O   UNL     1      32.506   0.278  33.848  0.00  0.00    +0.000 OA
ENDBRANCH   2   9
ENDBRANCH   1   5
BRANCH   1  11
ATOM     11  C   UNL     1      34.922   6.955  35.982  0.00  0.00    +0.000 C 
ATOM     12  S   UNL     1      36.495   6.535  35.940  0.00  0.00    +0.000 S 
BRANCH  11  13
ATOM     13  N   UNL     1      34.484   8.263  35.655  0.00  0.00    +0.000 NA
ATOM     14  C   UNL     1      34.420   9.271  36.642  0.00  0.00    +0.000 C 
ATOM     15  O   UNL     1      34.774   8.931  37.817  0.00  0.00    +0.000 OA
BRANCH  14  16
ATOM     16  C   UNL     1      33.968  10.659  36.356  0.00  0.00    +0.000 C 
BRANCH  16  17
ATOM     17  C   UNL     1      35.184  11.492  36.068  0.00  0.00    +0.000 C 
ATOM     18  C   UNL     1      35.460  11.438  34.582  0.00  0.00    +0.000 C 
ATOM     19  C   UNL     1      34.879  12.928  36.447  0.00  0.00    +0.000 C 
ENDBRANCH  16  17
ENDBRANCH  14  16
ENDBRANCH  11  13
ENDBRANCH   1  11
TORSDOF 6
ENDMDL
MODEL 10
REMARK VINA RESULT:      -5.3     14.020     15.968
REMARK  Name = 
REMARK  6 active torsions:
REMARK  status: ('A' for Active; 'I' for Inactive)
REMARK    1  A    between atoms: C_2  and  C_4
REMARK    2  A    between atoms: C_7  and  N_8
REMARK    3  A    between atoms: N_8  and  C_9
REMARK    4  A    between atoms: C_9  and  N_11
REMARK    5  A    between atoms: C_12  and  C_14
REMARK    6  A    between atoms: C_14  and  C_15
REMARK                            x       y       z     vdW  Elec       q    Type
REMARK                         _______ _______ _______ _____ _____    ______ ____
ROOT
ATOM      1  N   UNL     1      25.582  25.179  24.701  0.00  0.00    +0.000 NA
ENDROOT
BRANCH   1   5
ATOM      2  C   UNL     1      25.991  23.810  28.693  0.00  0.00    +0.000 A 
ATOM      3  C   UNL     1      25.265  24.936  28.397  0.00  0.00    +0.000 A 
ATOM      4  C   UNL     1      25.115  25.408  27.095  0.00  0.00    +0.000 A 
ATOM      5  C   UNL     1      25.707  24.737  26.047  0.00  0.00    +0.000 A 
ATOM      6  C   UNL     1      26.437  23.606  26.327  0.00  0.00    +0.000 A 
ATOM      7  C   UNL     1      26.581  23.147  27.618  0.00  0.00    +0.000 A 
BRANCH   2   9
ATOM      8  C   UNL     1      26.565  21.906  30.283  0.00  0.00    +0.000 C 
ATOM      9  C   UNL     1      26.154  23.308  30.050  0.00  0.00    +0.000 C 
ATOM     10  O   UNL     1      25.946  24.067  31.015  0.00  0.00    +0.000 OA
ENDBRANCH   2   9
ENDBRANCH   1   5
BRANCH   1  11
ATOM     11  C   UNL     1      26.601  25.945  24.079  0.00  0.00    +0.000 C 
ATOM     12  S   UNL     1      26.442  27.566  24.042  0.00  0.00    +0.000 S 
BRANCH  11  13
ATOM     13  N   UNL     1      27.720  25.286  23.511  0.00  0.00    +0.000 NA
ATOM     14  C   UNL     1      28.953  25.233  24.197  0.00  0.00    +0.000 C 
ATOM     15  O   UNL     1      28.988  25.805  25.334  0.00  0.00    +0.000 OA
BRANCH  14  16
ATOM     16  C   UNL     1      30.158  24.556  23.648  0.00  0.00    +0.000 C 
BRANCH  16  17
ATOM     17  C   UNL     1      30.809  23.791  24.765  0.00  0.00    +0.000 C 
ATOM     18  C   UNL     1      30.333  22.357  24.703  0.00  0.00    +0.000 C 
ATOM     19  C   UNL     1      32.309  23.809  24.545  0.00  0.00    +0.000 C 
ENDBRANCH  16  17
ENDBRANCH  14  16
ENDBRANCH  11  13
ENDBRANCH   1  11
TORSDOF 6
ENDMDL
