MODEL 1
REMARK VINA RESULT:      -5.7      0.000      0.000
REMARK  Name = 
REMARK  4 active torsions:
REMARK  status: ('A' for Active; 'I' for Inactive)
REMARK    1  A    between atoms: C_2  and  O_3
REMARK    2  A    between atoms: O_3  and  C_4
REMARK    3  A    between atoms: C_4  and  C_6
REMARK    4  A    between atoms: C_14  and  C_15
REMARK                            x       y       z     vdW  Elec       q    Type
REMARK                         _______ _______ _______ _____ _____    ______ ____
ROOT
ATOM      1  C   UNL     1      29.449  23.466  24.356  0.00  0.00    +0.000 C 
ATOM      2  C   UNL     1      28.952  23.310  25.521  0.00  0.00    +0.000 C 
ATOM      3  C   UNL     1      29.828  23.348  26.777  0.00  0.00    +0.000 C 
ATOM      4  N   UNL     1      27.576  23.089  25.802  0.00  0.00    +0.000 N 
ATOM      5  C   UNL     1      27.104  22.923  27.147  0.00  0.00    +0.000 C 
ATOM      6  C   UNL     1      26.712  23.043  24.683  0.00  0.00    +0.000 C 
ATOM      7  O   UNL     1      25.466  22.846  24.892  0.00  0.00    +0.000 OA
ATOM      8  N   UNL     1      27.202  23.204  23.433  0.00  0.00    +0.000 NA
ATOM      9  C   UNL     1      28.624  23.437  23.073  0.00  0.00    +0.000 C 
ENDROOT
BRANCH   9  10
ATOM     10  C   UNL     1      28.517  25.005  22.707  0.00  0.00    +0.000 A 
ATOM     11  C   UNL     1      27.902  25.879  23.486  0.00  0.00    +0.000 A 
ATOM     12  C   UNL     1      27.856  27.203  23.098  0.00  0.00    +0.000 A 
ATOM     13  C   UNL     1      28.451  27.593  21.910  0.00  0.00    +0.000 A 
ATOM     14  C   UNL     1      29.079  26.662  21.130  0.00  0.00    +0.000 A 
ATOM     15  C   UNL     1      29.119  25.325  21.533  0.00  0.00    +0.000 A 
ATOM     16  O   UNL     1      29.774  24.390  20.706  0.00  0.00    +0.000 OA
ENDBRANCH   9  10
BRANCH   1  17
ATOM     17  C   UNL     1      30.905  23.688  24.230  0.00  0.00    +0.000 C 
ATOM     18  O   UNL     1      31.721  22.729  24.232  0.00  0.00    +0.000 OA
BRANCH  17  19
ATOM     19  O   UNL     1      31.412  24.957  24.106  0.00  0.00    +0.000 OA
BRANCH  19  21
ATOM     20  C   UNL     1      30.969  27.029  25.237  0.00  0.00    +0.000 C 
ATOM     21  C   UNL     1      31.813  25.777  25.181  0.00  0.00    +0.000 C 
ENDBRANCH  19  21
ENDBRANCH  17  19
ENDBRANCH   1  17
TORSDOF 4
ENDMDL
MODEL 2
REMARK VINA RESULT:      -5.6      2.107      5.122
REMARK  Name = 
REMARK  4 active torsions:
REMARK  status: ('A' for Active; 'I' for Inactive)
REMARK    1  A    between atoms: C_2  and  O_3
REMARK    2  A    between atoms: O_3  and  C_4
REMARK    3  A    between atoms: C_4  and  C_6
REMARK    4  A    between atoms: C_14  and  C_15
REMARK                            x       y       z     vdW  Elec       q    Type
REMARK                         _______ _______ _______ _____ _____    ______ ____
ROOT
ATOM      1  C   UNL     1      27.516  25.218  23.816  0.00  0.00    +0.000 C 
ATOM      2  C   UNL     1      27.937  26.202  23.121  0.00  0.00    +0.000 C 
ATOM      3  C   UNL     1      27.621  27.650  23.509  0.00  0.00    +0.000 C 
ATOM      4  N   UNL     1      28.724  26.095  21.942  0.00  0.00    +0.000 N 
ATOM      5  C   UNL     1      29.154  27.258  21.220  0.00  0.00    +0.000 C 
ATOM      6  C   UNL     1      29.051  24.782  21.529  0.00  0.00    +0.000 C 
ATOM      7  O   UNL     1      29.758  24.641  20.472  0.00  0.00    +0.000 OA
ATOM      8  N   UNL     1      28.624  23.714  22.240  0.00  0.00    +0.000 NA
ATOM      9  C   UNL     1      27.801  23.757  23.476  0.00  0.00    +0.000 C 
ENDROOT
BRANCH   9  10
ATOM     10  C   UNL     1      28.957  23.385  24.538  0.00  0.00    +0.000 A 
ATOM     11  C   UNL     1      30.219  23.747  24.374  0.00  0.00    +0.000 A 
ATOM     12  C   UNL     1      31.147  23.387  25.331  0.00  0.00    +0.000 A 
ATOM     13  C   UNL     1      30.745  22.660  26.440  0.00  0.00    +0.000 A 
ATOM     14  C   UNL     1      29.432  22.303  26.576  0.00  0.00    +0.000 A 
ATOM     15  C   UNL     1      28.503  22.673  25.600  0.00  0.00    +0.000 A 
ATOM     16  O   UNL     1      27.157  22.290  25.770  0.00  0.00    +0.000 OA
ENDBRANCH   9  10
BRANCH   1  17
ATOM     17  C   UNL     1      26.706  25.496  25.021  0.00  0.00    +0.000 C 
ATOM     18  O   UNL     1      25.456  25.344  25.024  0.00  0.00    +0.000 OA
BRANCH  17  19
ATOM     19  O   UNL     1      27.299  25.930  26.179  0.00  0.00    +0.000 OA
BRANCH  19  21
ATOM     20  C   UNL     1      28.158  25.306  28.333  0.00  0.00    +0.000 C 
ATOM     21  C   UNL     1      26.932  25.524  27.479  0.00  0.00    +0.000 C 
ENDBRANCH  19  21
ENDBRANCH  17  19
ENDBRANCH   1  17
TORSDOF 4
ENDMDL
MODEL 3
REMARK VINA RESULT:      -5.5     20.533     23.167
REMARK  Name = 
REMARK  4 active torsions:
REMARK  status: ('A' for Active; 'I' for Inactive)
REMARK    1  A    between atoms: C_2  and  O_3
REMARK    2  A    between atoms: O_3  and  C_4
REMARK    3  A    between atoms: C_4  and  C_6
REMARK    4  A    between atoms: C_14  and  C_15
REMARK                            x       y       z     vdW  Elec       q    Type
REMARK                         _______ _______ _______ _____ _____    ______ ____
ROOT
ATOM      1  C   UNL     1      18.073   9.623  38.676  0.00  0.00    +0.000 C 
ATOM      2  C   UNL     1      16.872  10.002  38.885  0.00  0.00    +0.000 C 
ATOM      3  C   UNL     1      16.150   9.689  40.199  0.00  0.00    +0.000 C 
ATOM      4  N   UNL     1      16.074  10.735  37.965  0.00  0.00    +0.000 N 
ATOM      5  C   UNL     1      14.729  11.120  38.284  0.00  0.00    +0.000 C 
ATOM      6  C   UNL     1      16.683  11.057  36.730  0.00  0.00    +0.000 C 
ATOM      7  O   UNL     1      15.999  11.716  35.874  0.00  0.00    +0.000 OA
ATOM      8  N   UNL     1      17.955  10.673  36.473  0.00  0.00    +0.000 NA
ATOM      9  C   UNL     1      18.840   9.907  37.388  0.00  0.00    +0.000 C 
ENDROOT
BRANCH   9  10
ATOM     10  C   UNL     1      19.812  11.114  37.834  0.00  0.00    +0.000 A 
ATOM     11  C   UNL     1      19.354  12.283  38.251  0.00  0.00    +0.000 A 
ATOM     12  C   UNL     1      20.255  13.263  38.615  0.00  0.00    +0.000 A 
ATOM     13  C   UNL     1      21.615  13.009  38.541  0.00  0.00    +0.000 A 
ATOM     14  C   UNL     1      22.053  11.789  38.106  0.00  0.00    +0.000 A 
ATOM     15  C   UNL     1      21.131  10.805  37.740  0.00  0.00    +0.000 A 
ATOM     16  O   UNL     1      21.615   9.558  37.296  0.00  0.00    +0.000 OA
ENDBRANCH   9  10
BRANCH   1  17
ATOM     17  C   UNL     1      18.772   8.865  39.736  0.00  0.00    +0.000 C 
ATOM     18  O   UNL     1      19.283   9.442  40.732  0.00  0.00    +0.000 OA
BRANCH  17  19
ATOM     19  O   UNL     1      18.882   7.500  39.663  0.00  0.00    +0.000 OA
BRANCH  19  21
ATOM     20  C   UNL     1      17.292   6.302  41.006  0.00  0.00    +0.000 C 
ATOM     21  C   UNL     1      18.748   6.617  40.756  0.00  0.00    +0.000 C 
ENDBRANCH  19  21
ENDBRANCH  17  19
ENDBRANCH   1  17
TORSDOF 4
ENDMDL
MODEL 4
REMARK VINA RESULT:      -5.5     33.115     35.497
REMARK  Name = 
REMARK  4 active torsions:
REMARK  status: ('A' for Active; 'I' for Inactive)
REMARK    1  A    between atoms: C_2  and  O_3
REMARK    2  A    between atoms: O_3  and  C_4
REMARK    3  A    between atoms: C_4  and  C_6
REMARK    4  A    between atoms: C_14  and  C_15
REMARK                            x       y       z     vdW  Elec       q    Type
REMARK                         _______ _______ _______ _____ _____    ______ ____
ROOT
ATOM      1  C   UNL     1      16.960  -9.240  26.808  0.00  0.00    +0.000 C 
ATOM      2  C   UNL     1      17.199 -10.489  26.910  0.00  0.00    +0.000 C 
ATOM      3  C   UNL     1      16.627 -11.498  25.909  0.00  0.00    +0.000 C 
ATOM      4  N   UNL     1      17.995 -11.091  27.922  0.00  0.00    +0.000 N 
ATOM      5  C   UNL     1      18.211 -12.509  27.960  0.00  0.00    +0.000 C 
ATOM      6  C   UNL     1      18.553 -10.213  28.880  0.00  0.00    +0.000 C 
ATOM      7  O   UNL     1      19.276 -10.714  29.808  0.00  0.00    +0.000 OA
ATOM      8  N   UNL     1      18.323  -8.882  28.805  0.00  0.00    +0.000 NA
ATOM      9  C   UNL     1      17.503  -8.192  27.776  0.00  0.00    +0.000 C 
ENDROOT
BRANCH   9  10
ATOM     10  C   UNL     1      18.704  -7.537  26.923  0.00  0.00    +0.000 A 
ATOM     11  C   UNL     1      19.725  -8.245  26.469  0.00  0.00    +0.000 A 
ATOM     12  C   UNL     1      20.713  -7.606  25.746  0.00  0.00    +0.000 A 
ATOM     13  C   UNL     1      20.619  -6.245  25.507  0.00  0.00    +0.000 A 
ATOM     14  C   UNL     1      19.549  -5.545  25.991  0.00  0.00    +0.000 A 
ATOM     15  C   UNL     1      18.557  -6.203  26.722  0.00  0.00    +0.000 A 
ATOM     16  O   UNL     1      17.467  -5.452  27.207  0.00  0.00    +0.000 OA
ENDBRANCH   9  10
BRANCH   1  17
ATOM     17  C   UNL     1      16.110  -8.769  25.694  0.00  0.00    +0.000 C 
ATOM     18  O   UNL     1      16.531  -8.744  24.508  0.00  0.00    +0.000 OA
BRANCH  17  19
ATOM     19  O   UNL     1      14.827  -8.341  25.925  0.00  0.00    +0.000 OA
BRANCH  19  21
ATOM     20  C   UNL     1      12.443  -8.502  26.164  0.00  0.00    +0.000 C 
ATOM     21  C   UNL     1      13.666  -8.942  25.395  0.00  0.00    +0.000 C 
ENDBRANCH  19  21
ENDBRANCH  17  19
ENDBRANCH   1  17
TORSDOF 4
ENDMDL
MODEL 5
REMARK VINA RESULT:      -5.3     32.211     34.505
REMARK  Name = 
REMARK  4 active torsions:
REMARK  status: ('A' for Active; 'I' for Inactive)
REMARK    1  A    between atoms: C_2  and  O_3
REMARK    2  A    between atoms: O_3  and  C_4
REMARK    3  A    between atoms: C_4  and  C_6
REMARK    4  A    between atoms: C_14  and  C_15
REMARK                            x       y       z     vdW  Elec       q    Type
REMARK                         _______ _______ _______ _____ _____    ______ ____
ROOT
ATOM      1  C   UNL     1      20.457  -9.392  24.350  0.00  0.00    +0.000 C 
ATOM      2  C   UNL     1      21.090  -9.142  23.270  0.00  0.00    +0.000 C 
ATOM      3  C   UNL     1      20.521  -9.529  21.902  0.00  0.00    +0.000 C 
ATOM      4  N   UNL     1      22.354  -8.498  23.192  0.00  0.00    +0.000 N 
ATOM      5  C   UNL     1      22.995  -8.257  21.930  0.00  0.00    +0.000 C 
ATOM      6  C   UNL     1      22.935  -8.115  24.423  0.00  0.00    +0.000 C 
ATOM      7  O   UNL     1      24.073  -7.532  24.397  0.00  0.00    +0.000 OA
ATOM      8  N   UNL     1      22.295  -8.362  25.589  0.00  0.00    +0.000 NA
ATOM      9  C   UNL     1      20.977  -9.029  25.739  0.00  0.00    +0.000 C 
ENDROOT
BRANCH   9  10
ATOM     10  C   UNL     1      20.096  -7.726  26.097  0.00  0.00    +0.000 A 
ATOM     11  C   UNL     1      20.333  -6.538  25.567  0.00  0.00    +0.000 A 
ATOM     12  C   UNL     1      19.531  -5.473  25.928  0.00  0.00    +0.000 A 
ATOM     13  C   UNL     1      18.498  -5.665  26.831  0.00  0.00    +0.000 A 
ATOM     14  C   UNL     1      18.282  -6.908  27.357  0.00  0.00    +0.000 A 
ATOM     15  C   UNL     1      19.100  -7.977  26.985  0.00  0.00    +0.000 A 
ATOM     16  O   UNL     1      18.851  -9.246  27.547  0.00  0.00    +0.000 OA
ENDBRANCH   9  10
BRANCH   1  17
ATOM     17  C   UNL     1      19.147 -10.071  24.264  0.00  0.00    +0.000 C 
ATOM     18  O   UNL     1      19.003 -11.274  24.607  0.00  0.00    +0.000 OA
BRANCH  17  19
ATOM     19  O   UNL     1      18.041  -9.402  23.805  0.00  0.00    +0.000 OA
BRANCH  19  21
ATOM     20  C   UNL     1      16.124  -9.007  25.196  0.00  0.00    +0.000 C 
ATOM     21  C   UNL     1      16.705  -9.788  24.041  0.00  0.00    +0.000 C 
ENDBRANCH  19  21
ENDBRANCH  17  19
ENDBRANCH   1  17
TORSDOF 4
ENDMDL
MODEL 6
REMARK VINA RESULT:      -5.3      1.851      4.841
REMARK  Name = 
REMARK  4 active torsions:
REMARK  status: ('A' for Active; 'I' for Inactive)
REMARK    1  A    between atoms: C_2  and  O_3
REMARK    2  A    between atoms: O_3  and  C_4
REMARK    3  A    between atoms: C_4  and  C_6
REMARK    4  A    between atoms: C_14  and  C_15
REMARK                            x       y       z     vdW  Elec       q    Type
REMARK                         _______ _______ _______ _____ _____    ______ ____
ROOT
ATOM      1  C   UNL     1      27.977  24.221  24.452  0.00  0.00    +0.000 C 
ATOM      2  C   UNL     1      27.582  25.128  23.646  0.00  0.00    +0.000 C 
ATOM      3  C   UNL     1      26.470  26.110  24.028  0.00  0.00    +0.000 C 
ATOM      4  N   UNL     1      28.098  25.344  22.339  0.00  0.00    +0.000 N 
ATOM      5  C   UNL     1      27.593  26.391  21.498  0.00  0.00    +0.000 C 
ATOM      6  C   UNL     1      29.129  24.469  21.925  0.00  0.00    +0.000 C 
ATOM      7  O   UNL     1      29.621  24.628  20.755  0.00  0.00    +0.000 OA
ATOM      8  N   UNL     1      29.574  23.495  22.751  0.00  0.00    +0.000 NA
ATOM      9  C   UNL     1      29.079  23.218  24.124  0.00  0.00    +0.000 C 
ENDROOT
BRANCH   9  10
ATOM     10  C   UNL     1      30.331  23.813  24.948  0.00  0.00    +0.000 A 
ATOM     11  C   UNL     1      30.954  24.925  24.594  0.00  0.00    +0.000 A 
ATOM     12  C   UNL     1      32.018  25.366  25.355  0.00  0.00    +0.000 A 
ATOM     13  C   UNL     1      32.413  24.644  26.469  0.00  0.00    +0.000 A 
ATOM     14  C   UNL     1      31.746  23.499  26.805  0.00  0.00    +0.000 A 
ATOM     15  C   UNL     1      30.671  23.063  26.027  0.00  0.00    +0.000 A 
ATOM     16  O   UNL     1      30.004  21.878  26.401  0.00  0.00    +0.000 OA
ENDBRANCH   9  10
BRANCH   1  17
ATOM     17  C   UNL     1      27.337  24.127  25.782  0.00  0.00    +0.000 C 
ATOM     18  O   UNL     1      26.412  23.304  26.012  0.00  0.00    +0.000 OA
BRANCH  17  19
ATOM     19  O   UNL     1      27.739  24.940  26.811  0.00  0.00    +0.000 OA
BRANCH  19  21
ATOM     20  C   UNL     1      28.623  24.157  28.902  0.00  0.00    +0.000 C 
ATOM     21  C   UNL     1      27.432  24.734  28.172  0.00  0.00    +0.000 C 
ENDBRANCH  19  21
ENDBRANCH  17  19
ENDBRANCH   1  17
TORSDOF 4
ENDMDL
MODEL 7
REMARK VINA RESULT:      -5.3     18.709     20.912
REMARK  Name = 
REMARK  4 active torsions:
REMARK  status: ('A' for Active; 'I' for Inactive)
REMARK    1  A    between atoms: C_2  and  O_3
REMARK    2  A    between atoms: O_3  and  C_4
REMARK    3  A    between atoms: C_4  and  C_6
REMARK    4  A    between atoms: C_14  and  C_15
REMARK                            x       y       z     vdW  Elec       q    Type
REMARK                         _______ _______ _______ _____ _____    ______ ____
ROOT
ATOM      1  C   UNL     1      21.170  11.958  38.973  0.00  0.00    +0.000 C 
ATOM      2  C   UNL     1      20.047  12.247  38.440  0.00  0.00    +0.000 C 
ATOM      3  C   UNL     1      19.611  13.701  38.232  0.00  0.00    +0.000 C 
ATOM      4  N   UNL     1      19.089  11.302  37.985  0.00  0.00    +0.000 N 
ATOM      5  C   UNL     1      17.848  11.718  37.396  0.00  0.00    +0.000 C 
ATOM      6  C   UNL     1      19.432   9.939  38.148  0.00  0.00    +0.000 C 
ATOM      7  O   UNL     1      18.596   9.056  37.752  0.00  0.00    +0.000 OA
ATOM      8  N   UNL     1      20.613   9.593  38.709  0.00  0.00    +0.000 NA
ATOM      9  C   UNL     1      21.655  10.529  39.204  0.00  0.00    +0.000 C 
ENDROOT
BRANCH   9  10
ATOM     10  C   UNL     1      22.723  10.340  38.010  0.00  0.00    +0.000 A 
ATOM     11  C   UNL     1      22.390  10.432  36.733  0.00  0.00    +0.000 A 
ATOM     12  C   UNL     1      23.366  10.256  35.773  0.00  0.00    +0.000 A 
ATOM     13  C   UNL     1      24.670   9.991  36.159  0.00  0.00    +0.000 A 
ATOM     14  C   UNL     1      24.978   9.904  37.488  0.00  0.00    +0.000 A 
ATOM     15  C   UNL     1      23.981  10.083  38.450  0.00  0.00    +0.000 A 
ATOM     16  O   UNL     1      24.332   9.987  39.812  0.00  0.00    +0.000 OA
ENDBRANCH   9  10
BRANCH   1  17
ATOM     17  C   UNL     1      22.060  13.060  39.395  0.00  0.00    +0.000 C 
ATOM     18  O   UNL     1      22.239  13.335  40.611  0.00  0.00    +0.000 OA
BRANCH  17  19
ATOM     19  O   UNL     1      22.722  13.821  38.465  0.00  0.00    +0.000 OA
BRANCH  19  21
ATOM     20  C   UNL     1      24.955  13.609  37.606  0.00  0.00    +0.000 C 
ATOM     21  C   UNL     1      24.044  14.294  38.599  0.00  0.00    +0.000 C 
ENDBRANCH  19  21
ENDBRANCH  17  19
ENDBRANCH   1  17
TORSDOF 4
ENDMDL
MODEL 8
REMARK VINA RESULT:      -5.2      2.740      4.761
REMARK  Name = 
REMARK  4 active torsions:
REMARK  status: ('A' for Active; 'I' for Inactive)
REMARK    1  A    between atoms: C_2  and  O_3
REMARK    2  A    between atoms: O_3  and  C_4
REMARK    3  A    between atoms: C_4  and  C_6
REMARK    4  A    between atoms: C_14  and  C_15
REMARK                            x       y       z     vdW  Elec       q    Type
REMARK                         _______ _______ _______ _____ _____    ______ ____
ROOT
ATOM      1  C   UNL     1      27.299  24.015  27.012  0.00  0.00    +0.000 C 
ATOM      2  C   UNL     1      26.386  24.833  26.655  0.00  0.00    +0.000 C 
ATOM      3  C   UNL     1      26.097  26.109  27.452  0.00  0.00    +0.000 C 
ATOM      4  N   UNL     1      25.548  24.679  25.517  0.00  0.00    +0.000 N 
ATOM      5  C   UNL     1      24.544  25.650  25.190  0.00  0.00    +0.000 C 
ATOM      6  C   UNL     1      25.764  23.519  24.737  0.00  0.00    +0.000 C 
ATOM      7  O   UNL     1      25.031  23.341  23.705  0.00  0.00    +0.000 OA
ATOM      8  N   UNL     1      26.722  22.629  25.084  0.00  0.00    +0.000 NA
ATOM      9  C   UNL     1      27.628  22.731  26.256  0.00  0.00    +0.000 C 
ENDROOT
BRANCH   9  10
ATOM     10  C   UNL     1      28.978  23.139  25.473  0.00  0.00    +0.000 A 
ATOM     11  C   UNL     1      28.983  23.981  24.453  0.00  0.00    +0.000 A 
ATOM     12  C   UNL     1      30.183  24.277  23.837  0.00  0.00    +0.000 A 
ATOM     13  C   UNL     1      31.353  23.694  24.294  0.00  0.00    +0.000 A 
ATOM     14  C   UNL     1      31.309  22.829  25.351  0.00  0.00    +0.000 A 
ATOM     15  C   UNL     1      30.090  22.537  25.966  0.00  0.00    +0.000 A 
ATOM     16  O   UNL     1      30.079  21.640  27.053  0.00  0.00    +0.000 OA
ENDBRANCH   9  10
BRANCH   1  17
ATOM     17  C   UNL     1      28.088  24.319  28.225  0.00  0.00    +0.000 C 
ATOM     18  O   UNL     1      29.125  25.030  28.175  0.00  0.00    +0.000 OA
BRANCH  17  19
ATOM     19  O   UNL     1      27.707  23.829  29.448  0.00  0.00    +0.000 OA
BRANCH  19  21
ATOM     20  C   UNL     1      26.592  21.867  30.269  0.00  0.00    +0.000 C 
ATOM     21  C   UNL     1      27.908  22.504  29.888  0.00  0.00    +0.000 C 
ENDBRANCH  19  21
ENDBRANCH  17  19
ENDBRANCH   1  17
TORSDOF 4
ENDMDL
MODEL 9
REMARK VINA RESULT:      -5.0      2.657      5.316
REMARK  Name = 
REMARK  4 active torsions:
REMARK  status: ('A' for Active; 'I' for Inactive)
REMARK    1  A    between atoms: C_2  and  O_3
REMARK    2  A    between atoms: O_3  and  C_4
REMARK    3  A    between atoms: C_4  and  C_6
REMARK    4  A    between atoms: C_14  and  C_15
REMARK                            x       y       z     vdW  Elec       q    Type
REMARK                         _______ _______ _______ _____ _____    ______ ____
ROOT
ATOM      1  C   UNL     1      26.724  25.661  24.958  0.00  0.00    +0.000 C 
ATOM      2  C   UNL     1      27.254  25.547  23.803  0.00  0.00    +0.000 C 
ATOM      3  C   UNL     1      28.352  26.504  23.328  0.00  0.00    +0.000 C 
ATOM      4  N   UNL     1      26.914  24.559  22.839  0.00  0.00    +0.000 N 
ATOM      5  C   UNL     1      27.563  24.506  21.561  0.00  0.00    +0.000 C 
ATOM      6  C   UNL     1      25.904  23.643  23.217  0.00  0.00    +0.000 C 
ATOM      7  O   UNL     1      25.568  22.738  22.378  0.00  0.00    +0.000 OA
ATOM      8  N   UNL     1      25.319  23.731  24.433  0.00  0.00    +0.000 NA
ATOM      9  C   UNL     1      25.628  24.737  25.482  0.00  0.00    +0.000 C 
ENDROOT
BRANCH   9  10
ATOM     10  C   UNL     1      26.448  23.779  26.488  0.00  0.00    +0.000 A 
ATOM     11  C   UNL     1      27.378  22.936  26.070  0.00  0.00    +0.000 A 
ATOM     12  C   UNL     1      28.034  22.151  26.998  0.00  0.00    +0.000 A 
ATOM     13  C   UNL     1      27.712  22.259  28.341  0.00  0.00    +0.000 A 
ATOM     14  C   UNL     1      26.746  23.142  28.736  0.00  0.00    +0.000 A 
ATOM     15  C   UNL     1      26.089  23.930  27.788  0.00  0.00    +0.000 A 
ATOM     16  O   UNL     1      25.098  24.830  28.228  0.00  0.00    +0.000 OA
ENDBRANCH   9  10
BRANCH   1  17
ATOM     17  C   UNL     1      27.189  26.745  25.849  0.00  0.00    +0.000 C 
ATOM     18  O   UNL     1      26.412  27.653  26.245  0.00  0.00    +0.000 OA
BRANCH  17  19
ATOM     19  O   UNL     1      28.493  26.792  26.272  0.00  0.00    +0.000 OA
BRANCH  19  21
ATOM     20  C   UNL     1      30.169  25.219  26.970  0.00  0.00    +0.000 C 
ATOM     21  C   UNL     1      29.009  26.094  27.384  0.00  0.00    +0.000 C 
ENDBRANCH  19  21
ENDBRANCH  17  19
ENDBRANCH   1  17
TORSDOF 4
ENDMDL
MODEL 10
REMARK VINA RESULT:      -5.0      2.502      5.336
REMARK  Name = 
REMARK  4 active torsions:
REMARK  status: ('A' for Active; 'I' for Inactive)
REMARK    1  A    between atoms: C_2  and  O_3
REMARK    2  A    between atoms: O_3  and  C_4
REMARK    3  A    between atoms: C_4  and  C_6
REMARK    4  A    between atoms: C_14  and  C_15
REMARK                            x       y       z     vdW  Elec       q    Type
REMARK                         _______ _______ _______ _____ _____    ______ ____
ROOT
ATOM      1  C   UNL     1      27.143  25.431  25.117  0.00  0.00    +0.000 C 
ATOM      2  C   UNL     1      27.361  25.946  23.969  0.00  0.00    +0.000 C 
ATOM      3  C   UNL     1      27.851  27.389  23.820  0.00  0.00    +0.000 C 
ATOM      4  N   UNL     1      27.187  25.279  22.726  0.00  0.00    +0.000 N 
ATOM      5  C   UNL     1      27.456  25.937  21.480  0.00  0.00    +0.000 C 
ATOM      6  C   UNL     1      26.735  23.940  22.795  0.00  0.00    +0.000 C 
ATOM      7  O   UNL     1      26.565  23.304  21.699  0.00  0.00    +0.000 OA
ATOM      8  N   UNL     1      26.493  23.360  23.993  0.00  0.00    +0.000 NA
ATOM      9  C   UNL     1      26.654  24.000  25.324  0.00  0.00    +0.000 C 
ENDROOT
BRANCH   9  10
ATOM     10  C   UNL     1      28.005  23.247  25.782  0.00  0.00    +0.000 A 
ATOM     11  C   UNL     1      29.021  23.043  24.960  0.00  0.00    +0.000 A 
ATOM     12  C   UNL     1      30.142  22.389  25.432  0.00  0.00    +0.000 A 
ATOM     13  C   UNL     1      30.186  21.963  26.749  0.00  0.00    +0.000 A 
ATOM     14  C   UNL     1      29.117  22.192  27.570  0.00  0.00    +0.000 A 
ATOM     15  C   UNL     1      27.989  22.854  27.081  0.00  0.00    +0.000 A 
ATOM     16  O   UNL     1      26.904  23.074  27.953  0.00  0.00    +0.000 OA
ENDBRANCH   9  10
BRANCH   1  17
ATOM     17  C   UNL     1      27.372  26.258  26.320  0.00  0.00    +0.000 C 
ATOM     18  O   UNL     1      28.518  26.379  26.829  0.00  0.00    +0.000 OA
BRANCH  17  19
ATOM     19  O   UNL     1      26.334  26.923  26.921  0.00  0.00    +0.000 OA
BRANCH  19  21
ATOM     20  C   UNL     1      24.639  25.781  28.184  0.00  0.00    +0.000 C 
ATOM     21  C   UNL     1      25.859  26.672  28.226  0.00  0.00    +0.000 C 
ENDBRANCH  19  21
ENDBRANCH  17  19
ENDBRANCH   1  17
TORSDOF 4
ENDMDL
