MODEL 1
REMARK VINA RESULT:      -6.8      0.000      0.000
REMARK  Name = 
REMARK  3 active torsions:
REMARK  status: ('A' for Active; 'I' for Inactive)
REMARK    1  A    between atoms: C_7  and  C_8
REMARK    2  A    between atoms: N_10  and  C_11
REMARK    3  A    between atoms: C_17  and  C_18
REMARK                            x       y       z     vdW  Elec       q    Type
REMARK                         _______ _______ _______ _____ _____    ______ ____
ROOT
ATOM      1  C   UNL     1      16.475  11.261  37.245  0.00  0.00    +0.000 C 
ATOM      2  O   UNL     1      16.978  12.400  37.098  0.00  0.00    +0.000 OA
ATOM      3  N   UNL     1      15.321  10.929  36.506  0.00  0.00    +0.000 NA
ENDROOT
BRANCH   1  10
ATOM      4  C   UNL     1      18.805   9.694  36.455  0.00  0.00    +0.000 C 
ATOM      5  C   UNL     1      18.162   9.579  37.792  0.00  0.00    +0.000 A 
ATOM      6  C   UNL     1      18.694   8.685  38.707  0.00  0.00    +0.000 A 
ATOM      7  C   UNL     1      18.156   8.524  39.960  0.00  0.00    +0.000 A 
ATOM      8  C   UNL     1      17.057   9.266  40.329  0.00  0.00    +0.000 A 
ATOM      9  C   UNL     1      16.539  10.149  39.411  0.00  0.00    +0.000 A 
ATOM     10  C   UNL     1      17.075  10.312  38.158  0.00  0.00    +0.000 A 
ENDBRANCH   1  10
BRANCH   3  11
ATOM     11  C   UNL     1      14.799  11.936  35.625  0.00  0.00    +0.000 A 
ATOM     12  S   UNL     1      13.849  13.296  36.054  0.00  0.00    +0.000 S 
ATOM     13  C   UNL     1      13.637  13.980  34.510  0.00  0.00    +0.000 A 
ATOM     14  C   UNL     1      12.877  15.223  34.191  0.00  0.00    +0.000 C 
ATOM     15  C   UNL     1      14.321  13.120  33.696  0.00  0.00    +0.000 A 
ATOM     16  C   UNL     1      14.342  13.433  32.214  0.00  0.00    +0.000 C 
ATOM     17  C   UNL     1      14.923  12.066  34.255  0.00  0.00    +0.000 A 
BRANCH  17  18
ATOM     18  C   UNL     1      15.696  11.051  33.514  0.00  0.00    +0.000 C 
ATOM     19  N   UNL     1      17.127  11.102  33.590  0.00  0.00    +0.000 NA
ATOM     20  O   UNL     1      15.120  10.165  32.834  0.00  0.00    +0.000 OA
ENDBRANCH  17  18
ENDBRANCH   3  11
TORSDOF 3
ENDMDL
MODEL 2
REMARK VINA RESULT:      -6.2      1.975      6.704
REMARK  Name = 
REMARK  3 active torsions:
REMARK  status: ('A' for Active; 'I' for Inactive)
REMARK    1  A    between atoms: C_7  and  C_8
REMARK    2  A    between atoms: N_10  and  C_11
REMARK    3  A    between atoms: C_17  and  C_18
REMARK                            x       y       z     vdW  Elec       q    Type
REMARK                         _______ _______ _______ _____ _____    ______ ____
ROOT
ATOM      1  C   UNL     1      15.900  11.869  34.098  0.00  0.00    +0.000 C 
ATOM      2  O   UNL     1      17.036  12.329  34.363  0.00  0.00    +0.000 OA
ATOM      3  N   UNL     1      15.340  10.906  34.962  0.00  0.00    +0.000 NA
ENDROOT
BRANCH   1  10
ATOM      4  C   UNL     1      16.186  10.497  31.540  0.00  0.00    +0.000 C 
ATOM      5  C   UNL     1      15.317  11.689  31.731  0.00  0.00    +0.000 A 
ATOM      6  C   UNL     1      14.608  12.173  30.643  0.00  0.00    +0.000 A 
ATOM      7  C   UNL     1      13.787  13.268  30.742  0.00  0.00    +0.000 A 
ATOM      8  C   UNL     1      13.655  13.913  31.951  0.00  0.00    +0.000 A 
ATOM      9  C   UNL     1      14.364  13.422  33.022  0.00  0.00    +0.000 A 
ATOM     10  C   UNL     1      15.185  12.328  32.927  0.00  0.00    +0.000 A 
ENDBRANCH   1  10
BRANCH   3  11
ATOM     11  C   UNL     1      16.125  10.514  36.099  0.00  0.00    +0.000 A 
ATOM     12  S   UNL     1      17.645   9.725  36.086  0.00  0.00    +0.000 S 
ATOM     13  C   UNL     1      17.910   9.611  37.763  0.00  0.00    +0.000 A 
ATOM     14  C   UNL     1      19.098   9.004  38.431  0.00  0.00    +0.000 C 
ATOM     15  C   UNL     1      16.794  10.198  38.290  0.00  0.00    +0.000 A 
ATOM     16  C   UNL     1      16.695  10.273  39.801  0.00  0.00    +0.000 C 
ATOM     17  C   UNL     1      15.869  10.667  37.448  0.00  0.00    +0.000 A 
BRANCH  17  18
ATOM     18  C   UNL     1      14.614  11.325  37.860  0.00  0.00    +0.000 C 
ATOM     19  N   UNL     1      13.699  10.584  38.678  0.00  0.00    +0.000 NA
ATOM     20  O   UNL     1      14.352  12.501  37.506  0.00  0.00    +0.000 OA
ENDBRANCH  17  18
ENDBRANCH   3  11
TORSDOF 3
ENDMDL
MODEL 3
REMARK VINA RESULT:      -5.9     22.162     24.073
REMARK  Name = 
REMARK  3 active torsions:
REMARK  status: ('A' for Active; 'I' for Inactive)
REMARK    1  A    between atoms: C_7  and  C_8
REMARK    2  A    between atoms: N_10  and  C_11
REMARK    3  A    between atoms: C_17  and  C_18
REMARK                            x       y       z     vdW  Elec       q    Type
REMARK                         _______ _______ _______ _____ _____    ______ ____
ROOT
ATOM      1  C   UNL     1      20.993  -8.180  25.212  0.00  0.00    +0.000 C 
ATOM      2  O   UNL     1      20.658  -8.820  24.188  0.00  0.00    +0.000 OA
ATOM      3  N   UNL     1      22.315  -8.305  25.688  0.00  0.00    +0.000 NA
ENDROOT
BRANCH   1  10
ATOM      4  C   UNL     1      18.990  -9.311  27.007  0.00  0.00    +0.000 C 
ATOM      5  C   UNL     1      19.099  -7.854  26.722  0.00  0.00    +0.000 A 
ATOM      6  C   UNL     1      18.207  -6.991  27.338  0.00  0.00    +0.000 A 
ATOM      7  C   UNL     1      18.245  -5.635  27.126  0.00  0.00    +0.000 A 
ATOM      8  C   UNL     1      19.192  -5.106  26.278  0.00  0.00    +0.000 A 
ATOM      9  C   UNL     1      20.071  -5.974  25.674  0.00  0.00    +0.000 A 
ATOM     10  C   UNL     1      20.035  -7.329  25.885  0.00  0.00    +0.000 A 
ENDBRANCH   1  10
BRANCH   3  11
ATOM     11  C   UNL     1      23.193  -9.172  24.953  0.00  0.00    +0.000 A 
ATOM     12  S   UNL     1      23.512 -10.826  25.262  0.00  0.00    +0.000 S 
ATOM     13  C   UNL     1      24.615 -11.133  24.002  0.00  0.00    +0.000 A 
ATOM     14  C   UNL     1      25.287 -12.433  23.713  0.00  0.00    +0.000 C 
ATOM     15  C   UNL     1      24.703  -9.924  23.370  0.00  0.00    +0.000 A 
ATOM     16  C   UNL     1      25.622  -9.832  22.169  0.00  0.00    +0.000 C 
ATOM     17  C   UNL     1      23.978  -8.908  23.847  0.00  0.00    +0.000 A 
BRANCH  17  18
ATOM     18  C   UNL     1      23.964  -7.547  23.277  0.00  0.00    +0.000 C 
ATOM     19  N   UNL     1      24.939  -6.607  23.748  0.00  0.00    +0.000 NA
ATOM     20  O   UNL     1      23.123  -7.217  22.405  0.00  0.00    +0.000 OA
ENDBRANCH  17  18
ENDBRANCH   3  11
TORSDOF 3
ENDMDL
MODEL 4
REMARK VINA RESULT:      -5.9     17.194     19.556
REMARK  Name = 
REMARK  3 active torsions:
REMARK  status: ('A' for Active; 'I' for Inactive)
REMARK    1  A    between atoms: C_7  and  C_8
REMARK    2  A    between atoms: N_10  and  C_11
REMARK    3  A    between atoms: C_17  and  C_18
REMARK                            x       y       z     vdW  Elec       q    Type
REMARK                         _______ _______ _______ _____ _____    ______ ____
ROOT
ATOM      1  C   UNL     1      25.722  25.242  27.551  0.00  0.00    +0.000 C 
ATOM      2  O   UNL     1      26.519  26.050  28.082  0.00  0.00    +0.000 OA
ATOM      3  N   UNL     1      26.047  23.870  27.547  0.00  0.00    +0.000 NA
ENDROOT
BRANCH   1  10
ATOM      4  C   UNL     1      25.590  25.901  24.712  0.00  0.00    +0.000 C 
ATOM      5  C   UNL     1      24.427  26.027  25.632  0.00  0.00    +0.000 A 
ATOM      6  C   UNL     1      23.223  26.480  25.117  0.00  0.00    +0.000 A 
ATOM      7  C   UNL     1      22.107  26.622  25.904  0.00  0.00    +0.000 A 
ATOM      8  C   UNL     1      22.173  26.310  27.243  0.00  0.00    +0.000 A 
ATOM      9  C   UNL     1      23.375  25.863  27.740  0.00  0.00    +0.000 A 
ATOM     10  C   UNL     1      24.491  25.719  26.956  0.00  0.00    +0.000 A 
ENDBRANCH   1  10
BRANCH   3  11
ATOM     11  C   UNL     1      27.290  23.494  28.162  0.00  0.00    +0.000 A 
ATOM     12  S   UNL     1      28.835  23.440  27.426  0.00  0.00    +0.000 S 
ATOM     13  C   UNL     1      29.757  22.918  28.758  0.00  0.00    +0.000 A 
ATOM     14  C   UNL     1      31.227  22.670  28.773  0.00  0.00    +0.000 C 
ATOM     15  C   UNL     1      28.822  22.800  29.750  0.00  0.00    +0.000 A 
ATOM     16  C   UNL     1      29.307  22.344  31.111  0.00  0.00    +0.000 C 
ATOM     17  C   UNL     1      27.552  23.092  29.458  0.00  0.00    +0.000 A 
BRANCH  17  18
ATOM     18  C   UNL     1      26.432  23.015  30.415  0.00  0.00    +0.000 C 
ATOM     19  N   UNL     1      25.868  21.727  30.695  0.00  0.00    +0.000 NA
ATOM     20  O   UNL     1      25.981  24.047  30.972  0.00  0.00    +0.000 OA
ENDBRANCH  17  18
ENDBRANCH   3  11
TORSDOF 3
ENDMDL
MODEL 5
REMARK VINA RESULT:      -5.8     18.086     19.087
REMARK  Name = 
REMARK  3 active torsions:
REMARK  status: ('A' for Active; 'I' for Inactive)
REMARK    1  A    between atoms: C_7  and  C_8
REMARK    2  A    between atoms: N_10  and  C_11
REMARK    3  A    between atoms: C_17  and  C_18
REMARK                            x       y       z     vdW  Elec       q    Type
REMARK                         _______ _______ _______ _____ _____    ______ ____
ROOT
ATOM      1  C   UNL     1      29.865  22.988  28.712  0.00  0.00    +0.000 C 
ATOM      2  O   UNL     1      29.959  24.151  28.251  0.00  0.00    +0.000 OA
ATOM      3  N   UNL     1      28.687  22.254  28.465  0.00  0.00    +0.000 NA
ENDROOT
BRANCH   1  10
ATOM      4  C   UNL     1      29.685  22.756  31.614  0.00  0.00    +0.000 C 
ATOM      5  C   UNL     1      30.872  22.311  30.834  0.00  0.00    +0.000 A 
ATOM      6  C   UNL     1      31.944  21.759  31.517  0.00  0.00    +0.000 A 
ATOM      7  C   UNL     1      33.072  21.326  30.866  0.00  0.00    +0.000 A 
ATOM      8  C   UNL     1      33.152  21.437  29.496  0.00  0.00    +0.000 A 
ATOM      9  C   UNL     1      32.081  21.987  28.832  0.00  0.00    +0.000 A 
ATOM     10  C   UNL     1      30.952  22.420  29.479  0.00  0.00    +0.000 A 
ENDBRANCH   1  10
BRANCH   3  11
ATOM     11  C   UNL     1      27.664  22.902  27.693  0.00  0.00    +0.000 A 
ATOM     12  S   UNL     1      27.440  22.822  25.996  0.00  0.00    +0.000 S 
ATOM     13  C   UNL     1      26.070  23.822  25.853  0.00  0.00    +0.000 A 
ATOM     14  C   UNL     1      25.356  24.168  24.590  0.00  0.00    +0.000 C 
ATOM     15  C   UNL     1      25.824  24.192  27.146  0.00  0.00    +0.000 A 
ATOM     16  C   UNL     1      24.641  25.107  27.395  0.00  0.00    +0.000 C 
ATOM     17  C   UNL     1      26.634  23.728  28.101  0.00  0.00    +0.000 A 
BRANCH  17  18
ATOM     18  C   UNL     1      26.501  24.035  29.538  0.00  0.00    +0.000 C 
ATOM     19  N   UNL     1      25.900  23.050  30.388  0.00  0.00    +0.000 NA
ATOM     20  O   UNL     1      26.901  25.130  30.007  0.00  0.00    +0.000 OA
ENDBRANCH  17  18
ENDBRANCH   3  11
TORSDOF 3
ENDMDL
MODEL 6
REMARK VINA RESULT:      -5.8     18.831     20.345
REMARK  Name = 
REMARK  3 active torsions:
REMARK  status: ('A' for Active; 'I' for Inactive)
REMARK    1  A    between atoms: C_7  and  C_8
REMARK    2  A    between atoms: N_10  and  C_11
REMARK    3  A    between atoms: C_17  and  C_18
REMARK                            x       y       z     vdW  Elec       q    Type
REMARK                         _______ _______ _______ _____ _____    ______ ____
ROOT
ATOM      1  C   UNL     1      25.400  25.384  26.428  0.00  0.00    +0.000 C 
ATOM      2  O   UNL     1      26.419  26.110  26.510  0.00  0.00    +0.000 OA
ATOM      3  N   UNL     1      25.570  23.995  26.253  0.00  0.00    +0.000 NA
ENDROOT
BRANCH   1  10
ATOM      4  C   UNL     1      24.206  26.005  29.017  0.00  0.00    +0.000 C 
ATOM      5  C   UNL     1      23.520  26.260  27.721  0.00  0.00    +0.000 A 
ATOM      6  C   UNL     1      22.252  26.820  27.743  0.00  0.00    +0.000 A 
ATOM      7  C   UNL     1      21.557  27.084  26.589  0.00  0.00    +0.000 A 
ATOM      8  C   UNL     1      22.124  26.790  25.370  0.00  0.00    +0.000 A 
ATOM      9  C   UNL     1      23.382  26.235  25.363  0.00  0.00    +0.000 A 
ATOM     10  C   UNL     1      24.080  25.970  26.515  0.00  0.00    +0.000 A 
ENDBRANCH   1  10
BRANCH   3  11
ATOM     11  C   UNL     1      26.919  23.507  26.180  0.00  0.00    +0.000 A 
ATOM     12  S   UNL     1      27.885  22.933  27.473  0.00  0.00    +0.000 S 
ATOM     13  C   UNL     1      29.301  22.553  26.610  0.00  0.00    +0.000 A 
ATOM     14  C   UNL     1      30.559  21.990  27.180  0.00  0.00    +0.000 C 
ATOM     15  C   UNL     1      28.976  22.887  25.325  0.00  0.00    +0.000 A 
ATOM     16  C   UNL     1      30.034  22.671  24.261  0.00  0.00    +0.000 C 
ATOM     17  C   UNL     1      27.757  23.378  25.089  0.00  0.00    +0.000 A 
BRANCH  17  18
ATOM     18  C   UNL     1      27.257  23.784  23.761  0.00  0.00    +0.000 C 
ATOM     19  N   UNL     1      27.493  25.132  23.333  0.00  0.00    +0.000 NA
ATOM     20  O   UNL     1      26.643  22.974  23.023  0.00  0.00    +0.000 OA
ENDBRANCH  17  18
ENDBRANCH   3  11
TORSDOF 3
ENDMDL
MODEL 7
REMARK VINA RESULT:      -5.7      3.950      6.392
REMARK  Name = 
REMARK  3 active torsions:
REMARK  status: ('A' for Active; 'I' for Inactive)
REMARK    1  A    between atoms: C_7  and  C_8
REMARK    2  A    between atoms: N_10  and  C_11
REMARK    3  A    between atoms: C_17  and  C_18
REMARK                            x       y       z     vdW  Elec       q    Type
REMARK                         _______ _______ _______ _____ _____    ______ ____
ROOT
ATOM      1  C   UNL     1      20.840  10.333  37.892  0.00  0.00    +0.000 C 
ATOM      2  O   UNL     1      20.540  11.394  38.488  0.00  0.00    +0.000 OA
ATOM      3  N   UNL     1      19.815   9.417  37.581  0.00  0.00    +0.000 NA
ENDROOT
BRANCH   1  10
ATOM      4  C   UNL     1      22.610   8.909  39.723  0.00  0.00    +0.000 C 
ATOM      5  C   UNL     1      23.045   9.400  38.386  0.00  0.00    +0.000 A 
ATOM      6  C   UNL     1      24.353   9.171  37.991  0.00  0.00    +0.000 A 
ATOM      7  C   UNL     1      24.827   9.594  36.774  0.00  0.00    +0.000 A 
ATOM      8  C   UNL     1      23.988  10.265  35.913  0.00  0.00    +0.000 A 
ATOM      9  C   UNL     1      22.693  10.486  36.319  0.00  0.00    +0.000 A 
ATOM     10  C   UNL     1      22.217  10.064  37.534  0.00  0.00    +0.000 A 
ENDBRANCH   1  10
BRANCH   3  11
ATOM     11  C   UNL     1      18.481   9.772  37.976  0.00  0.00    +0.000 A 
ATOM     12  S   UNL     1      17.345  10.690  37.079  0.00  0.00    +0.000 S 
ATOM     13  C   UNL     1      16.049  10.676  38.183  0.00  0.00    +0.000 A 
ATOM     14  C   UNL     1      14.719  11.322  37.992  0.00  0.00    +0.000 C 
ATOM     15  C   UNL     1      16.545   9.949  39.229  0.00  0.00    +0.000 A 
ATOM     16  C   UNL     1      15.633   9.732  40.420  0.00  0.00    +0.000 C 
ATOM     17  C   UNL     1      17.792   9.478  39.137  0.00  0.00    +0.000 A 
BRANCH  17  18
ATOM     18  C   UNL     1      18.467   8.679  40.177  0.00  0.00    +0.000 C 
ATOM     19  N   UNL     1      18.344   7.252  40.121  0.00  0.00    +0.000 NA
ATOM     20  O   UNL     1      19.132   9.231  41.089  0.00  0.00    +0.000 OA
ENDBRANCH  17  18
ENDBRANCH   3  11
TORSDOF 3
ENDMDL
MODEL 8
REMARK VINA RESULT:      -5.6      3.814      6.046
REMARK  Name = 
REMARK  3 active torsions:
REMARK  status: ('A' for Active; 'I' for Inactive)
REMARK    1  A    between atoms: C_7  and  C_8
REMARK    2  A    between atoms: N_10  and  C_11
REMARK    3  A    between atoms: C_17  and  C_18
REMARK                            x       y       z     vdW  Elec       q    Type
REMARK                         _______ _______ _______ _____ _____    ______ ____
ROOT
ATOM      1  C   UNL     1      20.966  10.548  38.013  0.00  0.00    +0.000 C 
ATOM      2  O   UNL     1      20.773  11.204  39.064  0.00  0.00    +0.000 OA
ATOM      3  N   UNL     1      19.894   9.811  37.468  0.00  0.00    +0.000 NA
ENDROOT
BRANCH   1  10
ATOM      4  C   UNL     1      22.848  12.727  38.481  0.00  0.00    +0.000 C 
ATOM      5  C   UNL     1      23.146  11.570  37.594  0.00  0.00    +0.000 A 
ATOM      6  C   UNL     1      24.377  11.524  36.959  0.00  0.00    +0.000 A 
ATOM      7  C   UNL     1      24.724  10.489  36.126  0.00  0.00    +0.000 A 
ATOM      8  C   UNL     1      23.833   9.463  35.908  0.00  0.00    +0.000 A 
ATOM      9  C   UNL     1      22.616   9.522  36.545  0.00  0.00    +0.000 A 
ATOM     10  C   UNL     1      22.266  10.554  37.378  0.00  0.00    +0.000 A 
ENDBRANCH   1  10
BRANCH   3  11
ATOM     11  C   UNL     1      18.641   9.867  38.169  0.00  0.00    +0.000 A 
ATOM     12  S   UNL     1      18.265   9.146  39.676  0.00  0.00    +0.000 S 
ATOM     13  C   UNL     1      16.645   9.649  39.824  0.00  0.00    +0.000 A 
ATOM     14  C   UNL     1      15.724   9.340  40.956  0.00  0.00    +0.000 C 
ATOM     15  C   UNL     1      16.443  10.373  38.682  0.00  0.00    +0.000 A 
ATOM     16  C   UNL     1      15.072  10.986  38.481  0.00  0.00    +0.000 C 
ATOM     17  C   UNL     1      17.459  10.494  37.823  0.00  0.00    +0.000 A 
BRANCH  17  18
ATOM     18  C   UNL     1      17.399  11.239  36.551  0.00  0.00    +0.000 C 
ATOM     19  N   UNL     1      17.130  10.506  35.349  0.00  0.00    +0.000 NA
ATOM     20  O   UNL     1      17.578  12.482  36.519  0.00  0.00    +0.000 OA
ENDBRANCH  17  18
ENDBRANCH   3  11
TORSDOF 3
ENDMDL
MODEL 9
REMARK VINA RESULT:      -5.6     18.191     20.297
REMARK  Name = 
REMARK  3 active torsions:
REMARK  status: ('A' for Active; 'I' for Inactive)
REMARK    1  A    between atoms: C_7  and  C_8
REMARK    2  A    between atoms: N_10  and  C_11
REMARK    3  A    between atoms: C_17  and  C_18
REMARK                            x       y       z     vdW  Elec       q    Type
REMARK                         _______ _______ _______ _____ _____    ______ ____
ROOT
ATOM      1  C   UNL     1      28.708  22.544  26.693  0.00  0.00    +0.000 C 
ATOM      2  O   UNL     1      29.009  21.349  26.919  0.00  0.00    +0.000 OA
ATOM      3  N   UNL     1      29.145  23.536  27.595  0.00  0.00    +0.000 NA
ENDROOT
BRANCH   1  10
ATOM      4  C   UNL     1      30.008  23.164  24.156  0.00  0.00    +0.000 C 
ATOM      5  C   UNL     1      28.531  23.180  24.339  0.00  0.00    +0.000 A 
ATOM      6  C   UNL     1      27.733  23.504  23.254  0.00  0.00    +0.000 A 
ATOM      7  C   UNL     1      26.364  23.540  23.346  0.00  0.00    +0.000 A 
ATOM      8  C   UNL     1      25.755  23.247  24.545  0.00  0.00    +0.000 A 
ATOM      9  C   UNL     1      26.559  22.927  25.613  0.00  0.00    +0.000 A 
ATOM     10  C   UNL     1      27.927  22.890  25.524  0.00  0.00    +0.000 A 
ENDBRANCH   1  10
BRANCH   3  11
ATOM     11  C   UNL     1      29.915  23.096  28.725  0.00  0.00    +0.000 A 
ATOM     12  S   UNL     1      31.605  22.824  28.784  0.00  0.00    +0.000 S 
ATOM     13  C   UNL     1      31.748  22.336  30.409  0.00  0.00    +0.000 A 
ATOM     14  C   UNL     1      33.007  21.947  31.107  0.00  0.00    +0.000 C 
ATOM     15  C   UNL     1      30.460  22.401  30.862  0.00  0.00    +0.000 A 
ATOM     16  C   UNL     1      30.212  22.025  32.309  0.00  0.00    +0.000 C 
ATOM     17  C   UNL     1      29.508  22.790  30.009  0.00  0.00    +0.000 A 
BRANCH  17  18
ATOM     18  C   UNL     1      28.076  22.910  30.346  0.00  0.00    +0.000 C 
ATOM     19  N   UNL     1      27.229  21.778  30.111  0.00  0.00    +0.000 NA
ATOM     20  O   UNL     1      27.610  23.973  30.826  0.00  0.00    +0.000 OA
ENDBRANCH  17  18
ENDBRANCH   3  11
TORSDOF 3
ENDMDL
MODEL 10
REMARK VINA RESULT:      -5.6     17.894     19.641
REMARK  Name = 
REMARK  3 active torsions:
REMARK  status: ('A' for Active; 'I' for Inactive)
REMARK    1  A    between atoms: C_7  and  C_8
REMARK    2  A    between atoms: N_10  and  C_11
REMARK    3  A    between atoms: C_17  and  C_18
REMARK                            x       y       z     vdW  Elec       q    Type
REMARK                         _______ _______ _______ _____ _____    ______ ____
ROOT
ATOM      1  C   UNL     1      27.518  24.604  26.805  0.00  0.00    +0.000 C 
ATOM      2  O   UNL     1      27.735  25.819  27.027  0.00  0.00    +0.000 OA
ATOM      3  N   UNL     1      26.346  24.018  27.327  0.00  0.00    +0.000 NA
ENDROOT
BRANCH   1  10
ATOM      4  C   UNL     1      27.226  24.371  23.911  0.00  0.00    +0.000 C 
ATOM      5  C   UNL     1      28.324  23.717  24.675  0.00  0.00    +0.000 A 
ATOM      6  C   UNL     1      29.253  22.959  23.979  0.00  0.00    +0.000 A 
ATOM      7  C   UNL     1      30.292  22.326  24.614  0.00  0.00    +0.000 A 
ATOM      8  C   UNL     1      30.426  22.438  25.980  0.00  0.00    +0.000 A 
ATOM      9  C   UNL     1      29.496  23.193  26.656  0.00  0.00    +0.000 A 
ATOM     10  C   UNL     1      28.457  23.827  26.025  0.00  0.00    +0.000 A 
ENDBRANCH   1  10
BRANCH   3  11
ATOM     11  C   UNL     1      25.474  24.869  28.088  0.00  0.00    +0.000 A 
ATOM     12  S   UNL     1      24.250  25.903  27.483  0.00  0.00    +0.000 S 
ATOM     13  C   UNL     1      23.686  26.549  28.953  0.00  0.00    +0.000 A 
ATOM     14  C   UNL     1      22.587  27.544  29.117  0.00  0.00    +0.000 C 
ATOM     15  C   UNL     1      24.477  25.934  29.882  0.00  0.00    +0.000 A 
ATOM     16  C   UNL     1      24.242  26.284  31.338  0.00  0.00    +0.000 C 
ATOM     17  C   UNL     1      25.399  25.068  29.453  0.00  0.00    +0.000 A 
BRANCH  17  18
ATOM     18  C   UNL     1      26.327  24.326  30.329  0.00  0.00    +0.000 C 
ATOM     19  N   UNL     1      27.604  24.913  30.614  0.00  0.00    +0.000 NA
ATOM     20  O   UNL     1      26.010  23.211  30.812  0.00  0.00    +0.000 OA
ENDBRANCH  17  18
ENDBRANCH   3  11
TORSDOF 3
ENDMDL
