MODEL 1
REMARK VINA RESULT:      -6.3      0.000      0.000
REMARK  Name = 
REMARK  3 active torsions:
REMARK  status: ('A' for Active; 'I' for Inactive)
REMARK    1  A    between atoms: S_2  and  C_3
REMARK    2  A    between atoms: C_7  and  C_8
REMARK    3  A    between atoms: C_15  and  C_16
REMARK                            x       y       z     vdW  Elec       q    Type
REMARK                         _______ _______ _______ _____ _____    ______ ____
ROOT
ATOM      1  C   UNL     1      26.987  23.357  27.915  0.00  0.00    +0.000 A 
ATOM      2  N   UNL     1      25.840  24.029  28.136  0.00  0.00    +0.000 NA
ATOM      3  C   UNL     1      25.278  24.800  27.156  0.00  0.00    +0.000 A 
ATOM      4  C   UNL     1      25.862  24.912  25.923  0.00  0.00    +0.000 A 
ATOM      5  C   UNL     1      27.030  24.242  25.665  0.00  0.00    +0.000 A 
ATOM      6  C   UNL     1      27.564  23.476  26.680  0.00  0.00    +0.000 A 
ATOM      7  C   UNL     1      25.033  25.800  25.085  0.00  0.00    +0.000 C 
ATOM      8  C   UNL     1      23.866  26.224  25.912  0.00  0.00    +0.000 C 
ATOM      9  C   UNL     1      24.028  25.591  27.268  0.00  0.00    +0.000 C 
ENDROOT
BRANCH   5  10
ATOM     10  C   UNL     1      27.696  24.305  24.363  0.00  0.00    +0.000 A 
ATOM     11  C   UNL     1      28.677  25.289  24.178  0.00  0.00    +0.000 A 
ATOM     12  C   UNL     1      29.369  25.406  22.978  0.00  0.00    +0.000 A 
ATOM     13  C   UNL     1      29.095  24.543  21.938  0.00  0.00    +0.000 A 
ATOM     14  O   UNL     1      29.733  24.578  20.703  0.00  0.00    +0.000 OA
ATOM     15  C   UNL     1      28.125  23.576  22.125  0.00  0.00    +0.000 A 
ATOM     16  C   UNL     1      27.442  23.463  23.319  0.00  0.00    +0.000 A 
ENDBRANCH   5  10
BRANCH   1  18
ATOM     17  C   UNL     1      26.380  21.711  30.335  0.00  0.00    +0.000 C 
ATOM     18  S   UNL     1      27.629  22.378  29.249  0.00  0.00    +0.000 S 
ENDBRANCH   1  18
BRANCH   6  19
ATOM     19  C   UNL     1      28.778  22.763  26.432  0.00  0.00    +0.000 C 
ATOM     20  N   UNL     1      29.766  22.200  26.233  0.00  0.00    +0.000 NA
ENDBRANCH   6  19
TORSDOF 3
ENDMDL
MODEL 2
REMARK VINA RESULT:      -5.8     23.825     26.897
REMARK  Name = 
REMARK  3 active torsions:
REMARK  status: ('A' for Active; 'I' for Inactive)
REMARK    1  A    between atoms: S_2  and  C_3
REMARK    2  A    between atoms: C_7  and  C_8
REMARK    3  A    between atoms: C_15  and  C_16
REMARK                            x       y       z     vdW  Elec       q    Type
REMARK                         _______ _______ _______ _____ _____    ______ ____
ROOT
ATOM      1  C   UNL     1      34.147   2.363  37.516  0.00  0.00    +0.000 A 
ATOM      2  N   UNL     1      34.162   3.345  36.593  0.00  0.00    +0.000 NA
ATOM      3  C   UNL     1      33.928   3.073  35.274  0.00  0.00    +0.000 A 
ATOM      4  C   UNL     1      33.671   1.796  34.850  0.00  0.00    +0.000 A 
ATOM      5  C   UNL     1      33.650   0.774  35.763  0.00  0.00    +0.000 A 
ATOM      6  C   UNL     1      33.892   1.091  37.083  0.00  0.00    +0.000 A 
ATOM      7  C   UNL     1      33.459   1.816  33.390  0.00  0.00    +0.000 C 
ATOM      8  C   UNL     1      33.597   3.232  32.943  0.00  0.00    +0.000 C 
ATOM      9  C   UNL     1      33.920   4.054  34.161  0.00  0.00    +0.000 C 
ENDROOT
BRANCH   5  10
ATOM     10  C   UNL     1      33.365  -0.611  35.379  0.00  0.00    +0.000 A 
ATOM     11  C   UNL     1      34.449  -1.426  35.023  0.00  0.00    +0.000 A 
ATOM     12  C   UNL     1      34.266  -2.755  34.662  0.00  0.00    +0.000 A 
ATOM     13  C   UNL     1      32.999  -3.299  34.650  0.00  0.00    +0.000 A 
ATOM     14  O   UNL     1      32.715  -4.616  34.306  0.00  0.00    +0.000 OA
ATOM     15  C   UNL     1      31.934  -2.490  35.000  0.00  0.00    +0.000 A 
ATOM     16  C   UNL     1      32.121  -1.170  35.358  0.00  0.00    +0.000 A 
ENDBRANCH   5  10
BRANCH   1  18
ATOM     17  C   UNL     1      36.127   2.527  39.749  0.00  0.00    +0.000 C 
ATOM     18  S   UNL     1      34.454   2.823  39.202  0.00  0.00    +0.000 S 
ENDBRANCH   1  18
BRANCH   6  19
ATOM     19  C   UNL     1      33.867   0.041  38.053  0.00  0.00    +0.000 C 
ATOM     20  N   UNL     1      33.835  -0.811  38.831  0.00  0.00    +0.000 NA
ENDBRANCH   6  19
TORSDOF 3
ENDMDL
MODEL 3
REMARK VINA RESULT:      -5.8     19.797     23.270
REMARK  Name = 
REMARK  3 active torsions:
REMARK  status: ('A' for Active; 'I' for Inactive)
REMARK    1  A    between atoms: S_2  and  C_3
REMARK    2  A    between atoms: C_7  and  C_8
REMARK    3  A    between atoms: C_15  and  C_16
REMARK                            x       y       z     vdW  Elec       q    Type
REMARK                         _______ _______ _______ _____ _____    ______ ____
ROOT
ATOM      1  C   UNL     1      18.837  10.048  37.896  0.00  0.00    +0.000 A 
ATOM      2  N   UNL     1      17.910  10.705  37.171  0.00  0.00    +0.000 NA
ATOM      3  C   UNL     1      16.624  10.827  37.620  0.00  0.00    +0.000 A 
ATOM      4  C   UNL     1      16.239  10.288  38.819  0.00  0.00    +0.000 A 
ATOM      5  C   UNL     1      17.158   9.613  39.580  0.00  0.00    +0.000 A 
ATOM      6  C   UNL     1      18.443   9.511  39.091  0.00  0.00    +0.000 A 
ATOM      7  C   UNL     1      14.810  10.581  39.033  0.00  0.00    +0.000 C 
ATOM      8  C   UNL     1      14.339  11.367  37.856  0.00  0.00    +0.000 C 
ATOM      9  C   UNL     1      15.510  11.515  36.923  0.00  0.00    +0.000 C 
ENDROOT
BRANCH   5  10
ATOM     10  C   UNL     1      16.817   9.027  40.879  0.00  0.00    +0.000 A 
ATOM     11  C   UNL     1      16.850   9.865  42.002  0.00  0.00    +0.000 A 
ATOM     12  C   UNL     1      16.524   9.391  43.268  0.00  0.00    +0.000 A 
ATOM     13  C   UNL     1      16.158   8.074  43.438  0.00  0.00    +0.000 A 
ATOM     14  O   UNL     1      15.812   7.508  44.661  0.00  0.00    +0.000 OA
ATOM     15  C   UNL     1      16.128   7.251  42.326  0.00  0.00    +0.000 A 
ATOM     16  C   UNL     1      16.452   7.726  41.072  0.00  0.00    +0.000 A 
ENDBRANCH   5  10
BRANCH   1  18
ATOM     17  C   UNL     1      21.579  11.233  37.806  0.00  0.00    +0.000 C 
ATOM     18  S   UNL     1      20.478   9.953  37.228  0.00  0.00    +0.000 S 
ENDBRANCH   1  18
BRANCH   6  19
ATOM     19  C   UNL     1      19.419   8.817  39.872  0.00  0.00    +0.000 C 
ATOM     20  N   UNL     1      20.196   8.248  40.507  0.00  0.00    +0.000 NA
ENDBRANCH   6  19
TORSDOF 3
ENDMDL
MODEL 4
REMARK VINA RESULT:      -5.7     19.078     20.788
REMARK  Name = 
REMARK  3 active torsions:
REMARK  status: ('A' for Active; 'I' for Inactive)
REMARK    1  A    between atoms: S_2  and  C_3
REMARK    2  A    between atoms: C_7  and  C_8
REMARK    3  A    between atoms: C_15  and  C_16
REMARK                            x       y       z     vdW  Elec       q    Type
REMARK                         _______ _______ _______ _____ _____    ______ ____
ROOT
ATOM      1  C   UNL     1      17.273   9.260  40.026  0.00  0.00    +0.000 A 
ATOM      2  N   UNL     1      16.225   9.883  39.451  0.00  0.00    +0.000 NA
ATOM      3  C   UNL     1      16.403  10.705  38.373  0.00  0.00    +0.000 A 
ATOM      4  C   UNL     1      17.648  10.921  37.845  0.00  0.00    +0.000 A 
ATOM      5  C   UNL     1      18.735  10.303  38.407  0.00  0.00    +0.000 A 
ATOM      6  C   UNL     1      18.513   9.483  39.493  0.00  0.00    +0.000 A 
ATOM      7  C   UNL     1      17.523  11.842  36.700  0.00  0.00    +0.000 C 
ATOM      8  C   UNL     1      16.076  12.174  36.555  0.00  0.00    +0.000 C 
ATOM      9  C   UNL     1      15.342  11.452  37.652  0.00  0.00    +0.000 C 
ENDROOT
BRANCH   5  10
ATOM     10  C   UNL     1      20.091  10.477  37.881  0.00  0.00    +0.000 A 
ATOM     11  C   UNL     1      20.879  11.497  38.432  0.00  0.00    +0.000 A 
ATOM     12  C   UNL     1      22.182  11.716  38.001  0.00  0.00    +0.000 A 
ATOM     13  C   UNL     1      22.724  10.925  37.012  0.00  0.00    +0.000 A 
ATOM     14  O   UNL     1      24.016  11.065  36.516  0.00  0.00    +0.000 OA
ATOM     15  C   UNL     1      21.941   9.922  36.470  0.00  0.00    +0.000 A 
ATOM     16  C   UNL     1      20.649   9.707  36.902  0.00  0.00    +0.000 A 
ENDBRANCH   5  10
BRANCH   1  18
ATOM     17  C   UNL     1      17.056   6.464  41.058  0.00  0.00    +0.000 C 
ATOM     18  S   UNL     1      16.935   8.208  41.414  0.00  0.00    +0.000 S 
ENDBRANCH   1  18
BRANCH   6  19
ATOM     19  C   UNL     1      19.632   8.823  40.091  0.00  0.00    +0.000 C 
ATOM     20  N   UNL     1      20.540   8.288  40.560  0.00  0.00    +0.000 NA
ENDBRANCH   6  19
TORSDOF 3
ENDMDL
MODEL 5
REMARK VINA RESULT:      -5.7     19.202     21.201
REMARK  Name = 
REMARK  3 active torsions:
REMARK  status: ('A' for Active; 'I' for Inactive)
REMARK    1  A    between atoms: S_2  and  C_3
REMARK    2  A    between atoms: C_7  and  C_8
REMARK    3  A    between atoms: C_15  and  C_16
REMARK                            x       y       z     vdW  Elec       q    Type
REMARK                         _______ _______ _______ _____ _____    ______ ____
ROOT
ATOM      1  C   UNL     1      20.258   9.596  40.127  0.00  0.00    +0.000 A 
ATOM      2  N   UNL     1      19.387   9.421  41.141  0.00  0.00    +0.000 NA
ATOM      3  C   UNL     1      18.038   9.485  40.927  0.00  0.00    +0.000 A 
ATOM      4  C   UNL     1      17.531   9.727  39.678  0.00  0.00    +0.000 A 
ATOM      5  C   UNL     1      18.390   9.911  38.625  0.00  0.00    +0.000 A 
ATOM      6  C   UNL     1      19.743   9.840  38.884  0.00  0.00    +0.000 A 
ATOM      7  C   UNL     1      16.058   9.736  39.758  0.00  0.00    +0.000 C 
ATOM      8  C   UNL     1      15.692   9.463  41.178  0.00  0.00    +0.000 C 
ATOM      9  C   UNL     1      16.976   9.317  41.949  0.00  0.00    +0.000 C 
ENDROOT
BRANCH   5  10
ATOM     10  C   UNL     1      17.913  10.156  37.262  0.00  0.00    +0.000 A 
ATOM     11  C   UNL     1      17.483  11.452  36.944  0.00  0.00    +0.000 A 
ATOM     12  C   UNL     1      17.033  11.772  35.669  0.00  0.00    +0.000 A 
ATOM     13  C   UNL     1      17.002  10.807  34.685  0.00  0.00    +0.000 A 
ATOM     14  O   UNL     1      16.571  11.029  33.382  0.00  0.00    +0.000 OA
ATOM     15  C   UNL     1      17.426   9.530  35.005  0.00  0.00    +0.000 A 
ATOM     16  C   UNL     1      17.873   9.217  36.272  0.00  0.00    +0.000 A 
ENDBRANCH   5  10
BRANCH   1  18
ATOM     17  C   UNL     1      22.723   7.906  40.126  0.00  0.00    +0.000 C 
ATOM     18  S   UNL     1      21.987   9.487  40.509  0.00  0.00    +0.000 S 
ENDBRANCH   1  18
BRANCH   6  19
ATOM     19  C   UNL     1      20.656  10.021  37.799  0.00  0.00    +0.000 C 
ATOM     20  N   UNL     1      21.384  10.160  36.915  0.00  0.00    +0.000 NA
ENDBRANCH   6  19
TORSDOF 3
ENDMDL
MODEL 6
REMARK VINA RESULT:      -5.6     21.995     24.506
REMARK  Name = 
REMARK  3 active torsions:
REMARK  status: ('A' for Active; 'I' for Inactive)
REMARK    1  A    between atoms: S_2  and  C_3
REMARK    2  A    between atoms: C_7  and  C_8
REMARK    3  A    between atoms: C_15  and  C_16
REMARK                            x       y       z     vdW  Elec       q    Type
REMARK                         _______ _______ _______ _____ _____    ______ ____
ROOT
ATOM      1  C   UNL     1      33.807   1.393  37.245  0.00  0.00    +0.000 A 
ATOM      2  N   UNL     1      33.566   0.692  36.120  0.00  0.00    +0.000 NA
ATOM      3  C   UNL     1      33.653   1.284  34.890  0.00  0.00    +0.000 A 
ATOM      4  C   UNL     1      33.988   2.606  34.764  0.00  0.00    +0.000 A 
ATOM      5  C   UNL     1      34.238   3.348  35.889  0.00  0.00    +0.000 A 
ATOM      6  C   UNL     1      34.139   2.713  37.109  0.00  0.00    +0.000 A 
ATOM      7  C   UNL     1      34.004   2.956  33.331  0.00  0.00    +0.000 C 
ATOM      8  C   UNL     1      33.657   1.721  32.571  0.00  0.00    +0.000 C 
ATOM      9  C   UNL     1      33.409   0.632  33.580  0.00  0.00    +0.000 C 
ENDROOT
BRANCH   5  10
ATOM     10  C   UNL     1      34.618   4.762  35.824  0.00  0.00    +0.000 A 
ATOM     11  C   UNL     1      35.976   5.066  35.658  0.00  0.00    +0.000 A 
ATOM     12  C   UNL     1      36.417   6.381  35.569  0.00  0.00    +0.000 A 
ATOM     13  C   UNL     1      35.513   7.418  35.645  0.00  0.00    +0.000 A 
ATOM     14  O   UNL     1      35.855   8.764  35.565  0.00  0.00    +0.000 OA
ATOM     15  C   UNL     1      34.175   7.112  35.810  0.00  0.00    +0.000 A 
ATOM     16  C   UNL     1      33.742   5.805  35.897  0.00  0.00    +0.000 A 
ENDBRANCH   5  10
BRANCH   1  18
ATOM     17  C   UNL     1      35.239   0.014  39.476  0.00  0.00    +0.000 C 
ATOM     18  S   UNL     1      33.675   0.529  38.789  0.00  0.00    +0.000 S 
ENDBRANCH   1  18
BRANCH   6  19
ATOM     19  C   UNL     1      34.403   3.467  38.295  0.00  0.00    +0.000 C 
ATOM     20  N   UNL     1      34.607   4.086  39.248  0.00  0.00    +0.000 NA
ENDBRANCH   6  19
TORSDOF 3
ENDMDL
MODEL 7
REMARK VINA RESULT:      -5.6     32.287     34.543
REMARK  Name = 
REMARK  3 active torsions:
REMARK  status: ('A' for Active; 'I' for Inactive)
REMARK    1  A    between atoms: S_2  and  C_3
REMARK    2  A    between atoms: C_7  and  C_8
REMARK    3  A    between atoms: C_15  and  C_16
REMARK                            x       y       z     vdW  Elec       q    Type
REMARK                         _______ _______ _______ _____ _____    ______ ____
ROOT
ATOM      1  C   UNL     1      21.432  -8.836  25.965  0.00  0.00    +0.000 A 
ATOM      2  N   UNL     1      21.248  -7.541  25.641  0.00  0.00    +0.000 NA
ATOM      3  C   UNL     1      20.155  -6.853  26.089  0.00  0.00    +0.000 A 
ATOM      4  C   UNL     1      19.215  -7.457  26.882  0.00  0.00    +0.000 A 
ATOM      5  C   UNL     1      19.372  -8.774  27.229  0.00  0.00    +0.000 A 
ATOM      6  C   UNL     1      20.488  -9.432  26.755  0.00  0.00    +0.000 A 
ATOM      7  C   UNL     1      18.165  -6.473  27.206  0.00  0.00    +0.000 C 
ATOM      8  C   UNL     1      18.545  -5.190  26.548  0.00  0.00    +0.000 C 
ATOM      9  C   UNL     1      19.830  -5.434  25.804  0.00  0.00    +0.000 C 
ENDROOT
BRANCH   5  10
ATOM     10  C   UNL     1      18.414  -9.475  28.087  0.00  0.00    +0.000 A 
ATOM     11  C   UNL     1      18.575  -9.362  29.475  0.00  0.00    +0.000 A 
ATOM     12  C   UNL     1      17.699  -9.982  30.358  0.00  0.00    +0.000 A 
ATOM     13  C   UNL     1      16.646 -10.727  29.875  0.00  0.00    +0.000 A 
ATOM     14  O   UNL     1      15.716 -11.382  30.676  0.00  0.00    +0.000 OA
ATOM     15  C   UNL     1      16.493 -10.837  28.505  0.00  0.00    +0.000 A 
ATOM     16  C   UNL     1      17.364 -10.219  27.632  0.00  0.00    +0.000 A 
ENDBRANCH   5  10
BRANCH   1  18
ATOM     17  C   UNL     1      22.658 -10.445  23.764  0.00  0.00    +0.000 C 
ATOM     18  S   UNL     1      22.887  -9.635  25.338  0.00  0.00    +0.000 S 
ENDBRANCH   1  18
BRANCH   6  19
ATOM     19  C   UNL     1      20.675 -10.803  27.111  0.00  0.00    +0.000 C 
ATOM     20  N   UNL     1      20.818 -11.915  27.387  0.00  0.00    +0.000 NA
ENDBRANCH   6  19
TORSDOF 3
ENDMDL
MODEL 8
REMARK VINA RESULT:      -5.5     14.773     18.276
REMARK  Name = 
REMARK  3 active torsions:
REMARK  status: ('A' for Active; 'I' for Inactive)
REMARK    1  A    between atoms: S_2  and  C_3
REMARK    2  A    between atoms: C_7  and  C_8
REMARK    3  A    between atoms: C_15  and  C_16
REMARK                            x       y       z     vdW  Elec       q    Type
REMARK                         _______ _______ _______ _____ _____    ______ ____
ROOT
ATOM      1  C   UNL     1      34.020  21.415   7.534  0.00  0.00    +0.000 A 
ATOM      2  N   UNL     1      33.388  20.707   6.577  0.00  0.00    +0.000 NA
ATOM      3  C   UNL     1      32.103  20.275   6.757  0.00  0.00    +0.000 A 
ATOM      4  C   UNL     1      31.420  20.549   7.911  0.00  0.00    +0.000 A 
ATOM      5  C   UNL     1      32.034  21.266   8.905  0.00  0.00    +0.000 A 
ATOM      6  C   UNL     1      33.331  21.682   8.684  0.00  0.00    +0.000 A 
ATOM      7  C   UNL     1      30.070  19.962   7.814  0.00  0.00    +0.000 C 
ATOM      8  C   UNL     1      29.971  19.303   6.479  0.00  0.00    +0.000 C 
ATOM      9  C   UNL     1      31.297  19.487   5.792  0.00  0.00    +0.000 C 
ENDROOT
BRANCH   5  10
ATOM     10  C   UNL     1      31.355  21.608  10.157  0.00  0.00    +0.000 A 
ATOM     11  C   UNL     1      30.540  22.748  10.168  0.00  0.00    +0.000 A 
ATOM     12  C   UNL     1      29.847  23.131  11.310  0.00  0.00    +0.000 A 
ATOM     13  C   UNL     1      29.953  22.385  12.464  0.00  0.00    +0.000 A 
ATOM     14  O   UNL     1      29.299  22.685  13.654  0.00  0.00    +0.000 OA
ATOM     15  C   UNL     1      30.760  21.262  12.448  0.00  0.00    +0.000 A 
ATOM     16  C   UNL     1      31.445  20.885  11.311  0.00  0.00    +0.000 A 
ENDBRANCH   5  10
BRANCH   1  18
ATOM     17  C   UNL     1      35.824  23.626   6.642  0.00  0.00    +0.000 C 
ATOM     18  S   UNL     1      35.683  21.936   7.199  0.00  0.00    +0.000 S 
ENDBRANCH   1  18
BRANCH   6  19
ATOM     19  C   UNL     1      33.988  22.438   9.704  0.00  0.00    +0.000 C 
ATOM     20  N   UNL     1      34.514  23.061  10.522  0.00  0.00    +0.000 NA
ENDBRANCH   6  19
TORSDOF 3
ENDMDL
MODEL 9
REMARK VINA RESULT:      -5.5      2.571      4.248
REMARK  Name = 
REMARK  3 active torsions:
REMARK  status: ('A' for Active; 'I' for Inactive)
REMARK    1  A    between atoms: S_2  and  C_3
REMARK    2  A    between atoms: C_7  and  C_8
REMARK    3  A    between atoms: C_15  and  C_16
REMARK                            x       y       z     vdW  Elec       q    Type
REMARK                         _______ _______ _______ _____ _____    ______ ____
ROOT
ATOM      1  C   UNL     1      24.429  25.947  28.671  0.00  0.00    +0.000 A 
ATOM      2  N   UNL     1      24.976  25.290  29.712  0.00  0.00    +0.000 NA
ATOM      3  C   UNL     1      25.888  24.291  29.510  0.00  0.00    +0.000 A 
ATOM      4  C   UNL     1      26.274  23.930  28.247  0.00  0.00    +0.000 A 
ATOM      5  C   UNL     1      25.736  24.579  27.166  0.00  0.00    +0.000 A 
ATOM      6  C   UNL     1      24.819  25.579  27.412  0.00  0.00    +0.000 A 
ATOM      7  C   UNL     1      27.260  22.837  28.347  0.00  0.00    +0.000 C 
ATOM      8  C   UNL     1      27.463  22.557  29.798  0.00  0.00    +0.000 C 
ATOM      9  C   UNL     1      26.559  23.487  30.561  0.00  0.00    +0.000 C 
ENDROOT
BRANCH   5  10
ATOM     10  C   UNL     1      26.118  24.253  25.790  0.00  0.00    +0.000 A 
ATOM     11  C   UNL     1      27.218  24.926  25.241  0.00  0.00    +0.000 A 
ATOM     12  C   UNL     1      27.656  24.662  23.948  0.00  0.00    +0.000 A 
ATOM     13  C   UNL     1      27.004  23.724  23.177  0.00  0.00    +0.000 A 
ATOM     14  O   UNL     1      27.367  23.390  21.877  0.00  0.00    +0.000 OA
ATOM     15  C   UNL     1      25.918  23.065  23.723  0.00  0.00    +0.000 A 
ATOM     16  C   UNL     1      25.488  23.329  25.007  0.00  0.00    +0.000 A 
ENDBRANCH   5  10
BRANCH   1  18
ATOM     17  C   UNL     1      21.554  26.722  28.935  0.00  0.00    +0.000 C 
ATOM     18  S   UNL     1      23.261  27.232  29.040  0.00  0.00    +0.000 S 
ENDBRANCH   1  18
BRANCH   6  19
ATOM     19  C   UNL     1      24.250  26.273  26.300  0.00  0.00    +0.000 C 
ATOM     20  N   UNL     1      23.782  26.822  25.398  0.00  0.00    +0.000 NA
ENDBRANCH   6  19
TORSDOF 3
ENDMDL
MODEL 10
REMARK VINA RESULT:      -5.4     32.742     34.950
REMARK  Name = 
REMARK  3 active torsions:
REMARK  status: ('A' for Active; 'I' for Inactive)
REMARK    1  A    between atoms: S_2  and  C_3
REMARK    2  A    between atoms: C_7  and  C_8
REMARK    3  A    between atoms: C_15  and  C_16
REMARK                            x       y       z     vdW  Elec       q    Type
REMARK                         _______ _______ _______ _____ _____    ______ ____
ROOT
ATOM      1  C   UNL     1      15.667 -10.944  28.058  0.00  0.00    +0.000 A 
ATOM      2  N   UNL     1      16.064 -11.325  29.288  0.00  0.00    +0.000 NA
ATOM      3  C   UNL     1      17.142 -10.738  29.891  0.00  0.00    +0.000 A 
ATOM      4  C   UNL     1      17.848  -9.746  29.266  0.00  0.00    +0.000 A 
ATOM      5  C   UNL     1      17.471  -9.335  28.013  0.00  0.00    +0.000 A 
ATOM      6  C   UNL     1      16.380  -9.954  27.440  0.00  0.00    +0.000 A 
ATOM      7  C   UNL     1      18.942  -9.311  30.155  0.00  0.00    +0.000 C 
ATOM      8  C   UNL     1      18.844 -10.120  31.404  0.00  0.00    +0.000 C 
ATOM      9  C   UNL     1      17.685 -11.064  31.233  0.00  0.00    +0.000 C 
ENDROOT
BRANCH   5  10
ATOM     10  C   UNL     1      18.173  -8.268  27.296  0.00  0.00    +0.000 A 
ATOM     11  C   UNL     1      17.699  -6.958  27.448  0.00  0.00    +0.000 A 
ATOM     12  C   UNL     1      18.319  -5.887  26.815  0.00  0.00    +0.000 A 
ATOM     13  C   UNL     1      19.423  -6.101  26.019  0.00  0.00    +0.000 A 
ATOM     14  O   UNL     1      20.112  -5.096  25.348  0.00  0.00    +0.000 OA
ATOM     15  C   UNL     1      19.886  -7.396  25.872  0.00  0.00    +0.000 A 
ATOM     16  C   UNL     1      19.268  -8.456  26.503  0.00  0.00    +0.000 A 
ENDBRANCH   5  10
BRANCH   1  18
ATOM     17  C   UNL     1      12.724 -10.858  27.542  0.00  0.00    +0.000 C 
ATOM     18  S   UNL     1      14.253 -11.764  27.367  0.00  0.00    +0.000 S 
ENDBRANCH   1  18
BRANCH   6  19
ATOM     19  C   UNL     1      15.965  -9.537  26.137  0.00  0.00    +0.000 C 
ATOM     20  N   UNL     1      15.617  -9.195  25.091  0.00  0.00    +0.000 NA
ENDBRANCH   6  19
TORSDOF 3
ENDMDL
