MODEL 1
REMARK VINA RESULT:      -8.5      0.000      0.000
REMARK  Name = 
REMARK  6 active torsions:
REMARK  status: ('A' for Active; 'I' for Inactive)
REMARK    1  A    between atoms: O_2  and  C_3
REMARK    2  A    between atoms: C_6  and  N_7
REMARK    3  A    between atoms: C_8  and  C_10
REMARK    4  A    between atoms: C_14  and  C_15
REMARK    5  A    between atoms: C_15  and  C_16
REMARK    6  A    between atoms: C_16  and  C_17
REMARK                            x       y       z     vdW  Elec       q    Type
REMARK                         _______ _______ _______ _____ _____    ______ ____
ROOT
ATOM      1  C   UNL     1      35.929  -0.350  16.197  0.00  0.00    +0.000 A 
ATOM      2  S   UNL     1      35.848   0.758  17.480  0.00  0.00    +0.000 S 
ATOM      3  C   UNL     1      36.761   2.042  16.801  0.00  0.00    +0.000 A 
ATOM      4  N   UNL     1      37.128   3.282  17.253  0.00  0.00    +0.000 NA
ATOM      5  C   UNL     1      37.865   4.112  16.496  0.00  0.00    +0.000 A 
ATOM      6  C   UNL     1      38.222   3.651  15.270  0.00  0.00    +0.000 A 
ATOM      7  C   UNL     1      37.876   2.419  14.783  0.00  0.00    +0.000 A 
ATOM      8  C   UNL     1      37.099   1.544  15.575  0.00  0.00    +0.000 A 
ATOM      9  C   UNL     1      36.673   0.312  15.260  0.00  0.00    +0.000 A 
ATOM     10  N   UNL     1      36.943  -0.370  13.999  0.00  0.00    +0.000 NA
ATOM     11  C   UNL     1      38.343   2.072  13.430  0.00  0.00    +0.000 C 
ATOM     12  C   UNL     1      39.770   2.420  13.180  0.00  0.00    +0.000 C 
ATOM     13  C   UNL     1      40.181   3.745  13.743  0.00  0.00    +0.000 C 
ATOM     14  C   UNL     1      39.049   4.513  14.353  0.00  0.00    +0.000 C 
ENDROOT
BRANCH   1  16
ATOM     15  N   UNL     1      35.818  -2.704  15.387  0.00  0.00    +0.000 NA
ATOM     16  C   UNL     1      35.319  -1.672  16.188  0.00  0.00    +0.000 C 
ATOM     17  O   UNL     1      34.320  -1.886  16.921  0.00  0.00    +0.000 OA
BRANCH  15  21
ATOM     18  C   UNL     1      34.244  -6.613  15.266  0.00  0.00    +0.000 A 
ATOM     19  C   UNL     1      33.684  -5.632  14.478  0.00  0.00    +0.000 A 
ATOM     20  C   UNL     1      34.205  -4.343  14.521  0.00  0.00    +0.000 A 
ATOM     21  C   UNL     1      35.271  -4.017  15.331  0.00  0.00    +0.000 A 
ATOM     22  C   UNL     1      35.810  -5.019  16.107  0.00  0.00    +0.000 A 
ATOM     23  C   UNL     1      35.310  -6.328  16.090  0.00  0.00    +0.000 A 
BRANCH  18  25
ATOM     24  C   UNL     1      33.558  -8.597  13.990  0.00  0.00    +0.000 C 
ATOM     25  O   UNL     1      33.709  -7.889  15.208  0.00  0.00    +0.000 OA
ENDBRANCH  18  25
ENDBRANCH  15  21
ENDBRANCH   1  16
BRANCH   5  26
ATOM     26  C   UNL     1      38.271   5.453  16.964  0.00  0.00    +0.000 C 
BRANCH  26  27
ATOM     27  C   UNL     1      38.668   5.420  18.428  0.00  0.00    +0.000 C 
BRANCH  27  28
ATOM     28  C   UNL     1      40.072   5.896  18.548  0.00  0.00    +0.000 A 
ATOM     29  C   UNL     1      40.677   6.130  19.764  0.00  0.00    +0.000 A 
ATOM     30  C   UNL     1      41.991   6.574  19.841  0.00  0.00    +0.000 A 
ATOM     31  C   UNL     1      42.677   6.776  18.677  0.00  0.00    +0.000 A 
ATOM     32  C   UNL     1      42.077   6.543  17.453  0.00  0.00    +0.000 A 
ATOM     33  C   UNL     1      40.772   6.102  17.399  0.00  0.00    +0.000 A 
ENDBRANCH  27  28
ENDBRANCH  26  27
ENDBRANCH   5  26
TORSDOF 6
ENDMDL
MODEL 2
REMARK VINA RESULT:      -8.2      5.074     10.224
REMARK  Name = 
REMARK  6 active torsions:
REMARK  status: ('A' for Active; 'I' for Inactive)
REMARK    1  A    between atoms: O_2  and  C_3
REMARK    2  A    between atoms: C_6  and  N_7
REMARK    3  A    between atoms: C_8  and  C_10
REMARK    4  A    between atoms: C_14  and  C_15
REMARK    5  A    between atoms: C_15  and  C_16
REMARK    6  A    between atoms: C_16  and  C_17
REMARK                            x       y       z     vdW  Elec       q    Type
REMARK                         _______ _______ _______ _____ _____    ______ ____
ROOT
ATOM      1  C   UNL     1      36.143   3.709  14.232  0.00  0.00    +0.000 A 
ATOM      2  S   UNL     1      37.080   2.742  13.198  0.00  0.00    +0.000 S 
ATOM      3  C   UNL     1      36.767   1.204  13.892  0.00  0.00    +0.000 A 
ATOM      4  N   UNL     1      37.180  -0.068  13.595  0.00  0.00    +0.000 NA
ATOM      5  C   UNL     1      36.772  -1.123  14.320  0.00  0.00    +0.000 A 
ATOM      6  C   UNL     1      35.935  -0.854  15.355  0.00  0.00    +0.000 A 
ATOM      7  C   UNL     1      35.500   0.402  15.683  0.00  0.00    +0.000 A 
ATOM      8  C   UNL     1      35.926   1.514  14.923  0.00  0.00    +0.000 A 
ATOM      9  C   UNL     1      35.602   2.803  15.101  0.00  0.00    +0.000 A 
ATOM     10  N   UNL     1      34.721   3.307  16.149  0.00  0.00    +0.000 NA
ATOM     11  C   UNL     1      34.592   0.522  16.836  0.00  0.00    +0.000 C 
ATOM     12  C   UNL     1      35.014  -0.280  18.020  0.00  0.00    +0.000 C 
ATOM     13  C   UNL     1      35.535  -1.642  17.678  0.00  0.00    +0.000 C 
ATOM     14  C   UNL     1      35.427  -1.975  16.222  0.00  0.00    +0.000 C 
ENDROOT
BRANCH   1  16
ATOM     15  N   UNL     1      34.822   5.753  13.697  0.00  0.00    +0.000 NA
ATOM     16  C   UNL     1      36.008   5.155  14.136  0.00  0.00    +0.000 C 
ATOM     17  O   UNL     1      36.984   5.880  14.460  0.00  0.00    +0.000 OA
BRANCH  15  21
ATOM     18  C   UNL     1      34.261   9.911  13.290  0.00  0.00    +0.000 A 
ATOM     19  C   UNL     1      33.893   9.289  14.462  0.00  0.00    +0.000 A 
ATOM     20  C   UNL     1      34.079   7.916  14.593  0.00  0.00    +0.000 A 
ATOM     21  C   UNL     1      34.624   7.158  13.581  0.00  0.00    +0.000 A 
ATOM     22  C   UNL     1      34.982   7.808  12.421  0.00  0.00    +0.000 A 
ATOM     23  C   UNL     1      34.808   9.188  12.254  0.00  0.00    +0.000 A 
BRANCH  18  25
ATOM     24  C   UNL     1      33.864  12.111  14.309  0.00  0.00    +0.000 C 
ATOM     25  O   UNL     1      34.066  11.278  13.181  0.00  0.00    +0.000 OA
ENDBRANCH  18  25
ENDBRANCH  15  21
ENDBRANCH   1  16
BRANCH   5  26
ATOM     26  C   UNL     1      37.206  -2.502  14.016  0.00  0.00    +0.000 C 
BRANCH  26  27
ATOM     27  C   UNL     1      38.628  -2.741  14.487  0.00  0.00    +0.000 C 
BRANCH  27  28
ATOM     28  C   UNL     1      38.583  -3.274  15.875  0.00  0.00    +0.000 A 
ATOM     29  C   UNL     1      38.159  -4.552  16.168  0.00  0.00    +0.000 A 
ATOM     30  C   UNL     1      38.130  -5.019  17.477  0.00  0.00    +0.000 A 
ATOM     31  C   UNL     1      38.532  -4.178  18.474  0.00  0.00    +0.000 A 
ATOM     32  C   UNL     1      38.959  -2.894  18.189  0.00  0.00    +0.000 A 
ATOM     33  C   UNL     1      38.981  -2.450  16.884  0.00  0.00    +0.000 A 
ENDBRANCH  27  28
ENDBRANCH  26  27
ENDBRANCH   5  26
TORSDOF 6
ENDMDL
MODEL 3
REMARK VINA RESULT:      -8.1     19.002     23.121
REMARK  Name = 
REMARK  6 active torsions:
REMARK  status: ('A' for Active; 'I' for Inactive)
REMARK    1  A    between atoms: O_2  and  C_3
REMARK    2  A    between atoms: C_6  and  N_7
REMARK    3  A    between atoms: C_8  and  C_10
REMARK    4  A    between atoms: C_14  and  C_15
REMARK    5  A    between atoms: C_15  and  C_16
REMARK    6  A    between atoms: C_16  and  C_17
REMARK                            x       y       z     vdW  Elec       q    Type
REMARK                         _______ _______ _______ _____ _____    ______ ____
ROOT
ATOM      1  C   UNL     1      28.450  17.687  21.640  0.00  0.00    +0.000 A 
ATOM      2  S   UNL     1      27.295  16.578  21.075  0.00  0.00    +0.000 S 
ATOM      3  C   UNL     1      25.905  17.584  21.097  0.00  0.00    +0.000 A 
ATOM      4  N   UNL     1      24.589  17.384  20.774  0.00  0.00    +0.000 NA
ATOM      5  C   UNL     1      23.684  18.370  20.887  0.00  0.00    +0.000 A 
ATOM      6  C   UNL     1      24.147  19.563  21.339  0.00  0.00    +0.000 A 
ATOM      7  C   UNL     1      25.453  19.803  21.673  0.00  0.00    +0.000 A 
ATOM      8  C   UNL     1      26.409  18.768  21.554  0.00  0.00    +0.000 A 
ATOM      9  C   UNL     1      27.719  18.826  21.835  0.00  0.00    +0.000 A 
ATOM     10  N   UNL     1      28.418  20.007  22.330  0.00  0.00    +0.000 NA
ATOM     11  C   UNL     1      25.792  21.155  22.147  0.00  0.00    +0.000 C 
ATOM     12  C   UNL     1      24.824  21.705  23.138  0.00  0.00    +0.000 C 
ATOM     13  C   UNL     1      23.391  21.416  22.813  0.00  0.00    +0.000 C 
ATOM     14  C   UNL     1      23.203  20.726  21.498  0.00  0.00    +0.000 C 
ENDROOT
BRANCH   1  16
ATOM     15  N   UNL     1      30.488  17.610  23.071  0.00  0.00    +0.000 NA
ATOM     16  C   UNL     1      29.863  17.401  21.838  0.00  0.00    +0.000 C 
ATOM     17  O   UNL     1      30.534  16.952  20.872  0.00  0.00    +0.000 OA
BRANCH  15  21
ATOM     18  C   UNL     1      34.575  16.907  23.821  0.00  0.00    +0.000 A 
ATOM     19  C   UNL     1      33.656  15.920  24.098  0.00  0.00    +0.000 A 
ATOM     20  C   UNL     1      32.307  16.155  23.850  0.00  0.00    +0.000 A 
ATOM     21  C   UNL     1      31.863  17.351  23.333  0.00  0.00    +0.000 A 
ATOM     22  C   UNL     1      32.806  18.319  23.066  0.00  0.00    +0.000 A 
ATOM     23  C   UNL     1      34.171  18.117  23.304  0.00  0.00    +0.000 A 
BRANCH  18  25
ATOM     24  C   UNL     1      36.423  15.337  24.223  0.00  0.00    +0.000 C 
ATOM     25  O   UNL     1      35.913  16.651  24.076  0.00  0.00    +0.000 OA
ENDBRANCH  18  25
ENDBRANCH  15  21
ENDBRANCH   1  16
BRANCH   5  26
ATOM     26  C   UNL     1      22.260  18.175  20.543  0.00  0.00    +0.000 C 
BRANCH  26  27
ATOM     27  C   UNL     1      22.116  17.470  19.208  0.00  0.00    +0.000 C 
BRANCH  27  28
ATOM     28  C   UNL     1      21.004  18.109  18.454  0.00  0.00    +0.000 A 
ATOM     29  C   UNL     1      21.091  18.411  17.112  0.00  0.00    +0.000 A 
ATOM     30  C   UNL     1      20.033  19.008  16.438  0.00  0.00    +0.000 A 
ATOM     31  C   UNL     1      18.896  19.292  17.137  0.00  0.00    +0.000 A 
ATOM     32  C   UNL     1      18.799  18.991  18.484  0.00  0.00    +0.000 A 
ATOM     33  C   UNL     1      19.861  18.399  19.134  0.00  0.00    +0.000 A 
ENDBRANCH  27  28
ENDBRANCH  26  27
ENDBRANCH   5  26
TORSDOF 6
ENDMDL
MODEL 4
REMARK VINA RESULT:      -7.9      5.775      8.215
REMARK  Name = 
REMARK  6 active torsions:
REMARK  status: ('A' for Active; 'I' for Inactive)
REMARK    1  A    between atoms: O_2  and  C_3
REMARK    2  A    between atoms: C_6  and  N_7
REMARK    3  A    between atoms: C_8  and  C_10
REMARK    4  A    between atoms: C_14  and  C_15
REMARK    5  A    between atoms: C_15  and  C_16
REMARK    6  A    between atoms: C_16  and  C_17
REMARK                            x       y       z     vdW  Elec       q    Type
REMARK                         _______ _______ _______ _____ _____    ______ ____
ROOT
ATOM      1  C   UNL     1      37.731   2.359  13.623  0.00  0.00    +0.000 A 
ATOM      2  S   UNL     1      38.047   2.438  11.957  0.00  0.00    +0.000 S 
ATOM      3  C   UNL     1      37.198   3.880  11.578  0.00  0.00    +0.000 A 
ATOM      4  N   UNL     1      36.999   4.581  10.419  0.00  0.00    +0.000 NA
ATOM      5  C   UNL     1      36.273   5.712  10.401  0.00  0.00    +0.000 A 
ATOM      6  C   UNL     1      35.752   6.110  11.590  0.00  0.00    +0.000 A 
ATOM      7  C   UNL     1      35.927   5.437  12.769  0.00  0.00    +0.000 A 
ATOM      8  C   UNL     1      36.692   4.248  12.792  0.00  0.00    +0.000 A 
ATOM      9  C   UNL     1      36.964   3.468  13.848  0.00  0.00    +0.000 A 
ATOM     10  N   UNL     1      36.504   3.713  15.211  0.00  0.00    +0.000 NA
ATOM     11  C   UNL     1      35.295   6.005  13.972  0.00  0.00    +0.000 C 
ATOM     12  C   UNL     1      33.890   6.453  13.758  0.00  0.00    +0.000 C 
ATOM     13  C   UNL     1      33.668   7.154  12.453  0.00  0.00    +0.000 C 
ATOM     14  C   UNL     1      34.924   7.365  11.666  0.00  0.00    +0.000 C 
ENDROOT
BRANCH   1  16
ATOM     15  N   UNL     1      37.465   0.154  14.755  0.00  0.00    +0.000 NA
ATOM     16  C   UNL     1      38.207   1.316  14.521  0.00  0.00    +0.000 C 
ATOM     17  O   UNL     1      39.315   1.469  15.096  0.00  0.00    +0.000 OA
BRANCH  15  21
ATOM     18  C   UNL     1      38.712  -2.997  17.260  0.00  0.00    +0.000 A 
ATOM     19  C   UNL     1      37.764  -2.107  17.712  0.00  0.00    +0.000 A 
ATOM     20  C   UNL     1      37.354  -1.067  16.883  0.00  0.00    +0.000 A 
ATOM     21  C   UNL     1      37.871  -0.902  15.617  0.00  0.00    +0.000 A 
ATOM     22  C   UNL     1      38.818  -1.809  15.193  0.00  0.00    +0.000 A 
ATOM     23  C   UNL     1      39.254  -2.867  16.001  0.00  0.00    +0.000 A 
BRANCH  18  25
ATOM     24  C   UNL     1      38.902  -3.980  19.504  0.00  0.00    +0.000 C 
ATOM     25  O   UNL     1      39.104  -4.025  18.103  0.00  0.00    +0.000 OA
ENDBRANCH  18  25
ENDBRANCH  15  21
ENDBRANCH   1  16
BRANCH   5  26
ATOM     26  C   UNL     1      36.047   6.483   9.162  0.00  0.00    +0.000 C 
BRANCH  26  27
ATOM     27  C   UNL     1      35.047   5.784   8.261  0.00  0.00    +0.000 C 
BRANCH  27  28
ATOM     28  C   UNL     1      34.334   6.813   7.458  0.00  0.00    +0.000 A 
ATOM     29  C   UNL     1      33.278   6.508   6.626  0.00  0.00    +0.000 A 
ATOM     30  C   UNL     1      32.633   7.494   5.890  0.00  0.00    +0.000 A 
ATOM     31  C   UNL     1      33.071   8.782   6.008  0.00  0.00    +0.000 A 
ATOM     32  C   UNL     1      34.130   9.097   6.840  0.00  0.00    +0.000 A 
ATOM     33  C   UNL     1      34.756   8.103   7.562  0.00  0.00    +0.000 A 
ENDBRANCH  27  28
ENDBRANCH  26  27
ENDBRANCH   5  26
TORSDOF 6
ENDMDL
MODEL 5
REMARK VINA RESULT:      -7.9      5.083      9.975
REMARK  Name = 
REMARK  6 active torsions:
REMARK  status: ('A' for Active; 'I' for Inactive)
REMARK    1  A    between atoms: O_2  and  C_3
REMARK    2  A    between atoms: C_6  and  N_7
REMARK    3  A    between atoms: C_8  and  C_10
REMARK    4  A    between atoms: C_14  and  C_15
REMARK    5  A    between atoms: C_15  and  C_16
REMARK    6  A    between atoms: C_16  and  C_17
REMARK                            x       y       z     vdW  Elec       q    Type
REMARK                         _______ _______ _______ _____ _____    ______ ____
ROOT
ATOM      1  C   UNL     1      36.216   3.534  14.242  0.00  0.00    +0.000 A 
ATOM      2  S   UNL     1      37.151   2.587  13.188  0.00  0.00    +0.000 S 
ATOM      3  C   UNL     1      36.874   1.041  13.879  0.00  0.00    +0.000 A 
ATOM      4  N   UNL     1      37.303  -0.222  13.569  0.00  0.00    +0.000 NA
ATOM      5  C   UNL     1      36.925  -1.287  14.295  0.00  0.00    +0.000 A 
ATOM      6  C   UNL     1      36.102  -1.037  15.346  0.00  0.00    +0.000 A 
ATOM      7  C   UNL     1      35.652   0.210  15.688  0.00  0.00    +0.000 A 
ATOM      8  C   UNL     1      36.047   1.332  14.925  0.00  0.00    +0.000 A 
ATOM      9  C   UNL     1      35.705   2.615  15.116  0.00  0.00    +0.000 A 
ATOM     10  N   UNL     1      34.834   3.100  16.182  0.00  0.00    +0.000 NA
ATOM     11  C   UNL     1      34.762   0.310  16.857  0.00  0.00    +0.000 C 
ATOM     12  C   UNL     1      35.218  -0.490  18.029  0.00  0.00    +0.000 C 
ATOM     13  C   UNL     1      35.754  -1.842  17.672  0.00  0.00    +0.000 C 
ATOM     14  C   UNL     1      35.627  -2.170  16.216  0.00  0.00    +0.000 C 
ENDROOT
BRANCH   1  16
ATOM     15  N   UNL     1      34.935   5.557  13.552  0.00  0.00    +0.000 NA
ATOM     16  C   UNL     1      36.056   4.979  14.156  0.00  0.00    +0.000 C 
ATOM     17  O   UNL     1      36.950   5.719  14.640  0.00  0.00    +0.000 OA
BRANCH  15  21
ATOM     18  C   UNL     1      34.255   9.707  13.268  0.00  0.00    +0.000 A 
ATOM     19  C   UNL     1      34.887   9.052  12.234  0.00  0.00    +0.000 A 
ATOM     20  C   UNL     1      35.110   7.682  12.331  0.00  0.00    +0.000 A 
ATOM     21  C   UNL     1      34.716   6.959  13.435  0.00  0.00    +0.000 A 
ATOM     22  C   UNL     1      34.087   7.642  14.452  0.00  0.00    +0.000 A 
ATOM     23  C   UNL     1      33.846   9.020  14.389  0.00  0.00    +0.000 A 
BRANCH  18  25
ATOM     24  C   UNL     1      33.737  11.894  14.262  0.00  0.00    +0.000 C 
ATOM     25  O   UNL     1      34.043  11.071  13.150  0.00  0.00    +0.000 OA
ENDBRANCH  18  25
ENDBRANCH  15  21
ENDBRANCH   1  16
BRANCH   5  26
ATOM     26  C   UNL     1      37.376  -2.657  13.978  0.00  0.00    +0.000 C 
BRANCH  26  27
ATOM     27  C   UNL     1      38.594  -3.033  14.799  0.00  0.00    +0.000 C 
BRANCH  27  28
ATOM     28  C   UNL     1      39.803  -2.482  14.131  0.00  0.00    +0.000 A 
ATOM     29  C   UNL     1      40.166  -2.827  12.847  0.00  0.00    +0.000 A 
ATOM     30  C   UNL     1      41.303  -2.293  12.252  0.00  0.00    +0.000 A 
ATOM     31  C   UNL     1      42.059  -1.414  12.972  0.00  0.00    +0.000 A 
ATOM     32  C   UNL     1      41.702  -1.063  14.262  0.00  0.00    +0.000 A 
ATOM     33  C   UNL     1      40.570  -1.603  14.833  0.00  0.00    +0.000 A 
ENDBRANCH  27  28
ENDBRANCH  26  27
ENDBRANCH   5  26
TORSDOF 6
ENDMDL
MODEL 6
REMARK VINA RESULT:      -7.9      1.848      3.105
REMARK  Name = 
REMARK  6 active torsions:
REMARK  status: ('A' for Active; 'I' for Inactive)
REMARK    1  A    between atoms: O_2  and  C_3
REMARK    2  A    between atoms: C_6  and  N_7
REMARK    3  A    between atoms: C_8  and  C_10
REMARK    4  A    between atoms: C_14  and  C_15
REMARK    5  A    between atoms: C_15  and  C_16
REMARK    6  A    between atoms: C_16  and  C_17
REMARK                            x       y       z     vdW  Elec       q    Type
REMARK                         _______ _______ _______ _____ _____    ______ ____
ROOT
ATOM      1  C   UNL     1      35.706  -3.216  15.553  0.00  0.00    +0.000 A 
ATOM      2  S   UNL     1      34.938  -1.966  16.407  0.00  0.00    +0.000 S 
ATOM      3  C   UNL     1      35.890  -0.639  15.881  0.00  0.00    +0.000 A 
ATOM      4  N   UNL     1      35.868   0.704  16.149  0.00  0.00    +0.000 NA
ATOM      5  C   UNL     1      36.753   1.544  15.585  0.00  0.00    +0.000 A 
ATOM      6  C   UNL     1      37.662   0.985  14.745  0.00  0.00    +0.000 A 
ATOM      7  C   UNL     1      37.717  -0.351  14.453  0.00  0.00    +0.000 A 
ATOM      8  C   UNL     1      36.787  -1.237  15.042  0.00  0.00    +0.000 A 
ATOM      9  C   UNL     1      36.696  -2.564  14.870  0.00  0.00    +0.000 A 
ATOM     10  N   UNL     1      37.570  -3.360  14.014  0.00  0.00    +0.000 NA
ATOM     11  C   UNL     1      38.765  -0.796  13.519  0.00  0.00    +0.000 C 
ATOM     12  C   UNL     1      40.104  -0.201  13.791  0.00  0.00    +0.000 C 
ATOM     13  C   UNL     1      40.062   1.251  14.156  0.00  0.00    +0.000 C 
ATOM     14  C   UNL     1      38.692   1.850  14.069  0.00  0.00    +0.000 C 
ENDROOT
BRANCH   1  16
ATOM     15  N   UNL     1      34.204  -5.100  14.919  0.00  0.00    +0.000 NA
ATOM     16  C   UNL     1      35.328  -4.621  15.598  0.00  0.00    +0.000 C 
ATOM     17  O   UNL     1      36.036  -5.419  16.265  0.00  0.00    +0.000 OA
BRANCH  15  21
ATOM     18  C   UNL     1      32.975  -9.132  14.863  0.00  0.00    +0.000 A 
ATOM     19  C   UNL     1      32.684  -8.350  15.958  0.00  0.00    +0.000 A 
ATOM     20  C   UNL     1      33.091  -7.020  15.974  0.00  0.00    +0.000 A 
ATOM     21  C   UNL     1      33.780  -6.459  14.921  0.00  0.00    +0.000 A 
ATOM     22  C   UNL     1      34.056  -7.266  13.840  0.00  0.00    +0.000 A 
ATOM     23  C   UNL     1      33.661  -8.609  13.790  0.00  0.00    +0.000 A 
BRANCH  18  25
ATOM     24  C   UNL     1      33.129 -11.428  15.725  0.00  0.00    +0.000 C 
ATOM     25  O   UNL     1      32.559 -10.453  14.868  0.00  0.00    +0.000 OA
ENDBRANCH  18  25
ENDBRANCH  15  21
ENDBRANCH   1  16
BRANCH   5  26
ATOM     26  C   UNL     1      36.746   2.995  15.860  0.00  0.00    +0.000 C 
BRANCH  26  27
ATOM     27  C   UNL     1      37.167   3.280  17.290  0.00  0.00    +0.000 C 
BRANCH  27  28
ATOM     28  C   UNL     1      38.271   4.275  17.268  0.00  0.00    +0.000 A 
ATOM     29  C   UNL     1      38.881   4.686  16.102  0.00  0.00    +0.000 A 
ATOM     30  C   UNL     1      39.911   5.619  16.118  0.00  0.00    +0.000 A 
ATOM     31  C   UNL     1      40.310   6.124  17.322  0.00  0.00    +0.000 A 
ATOM     32  C   UNL     1      39.704   5.718  18.496  0.00  0.00    +0.000 A 
ATOM     33  C   UNL     1      38.684   4.791  18.459  0.00  0.00    +0.000 A 
ENDBRANCH  27  28
ENDBRANCH  26  27
ENDBRANCH   5  26
TORSDOF 6
ENDMDL
MODEL 7
REMARK VINA RESULT:      -7.9      4.541     10.253
REMARK  Name = 
REMARK  6 active torsions:
REMARK  status: ('A' for Active; 'I' for Inactive)
REMARK    1  A    between atoms: O_2  and  C_3
REMARK    2  A    between atoms: C_6  and  N_7
REMARK    3  A    between atoms: C_8  and  C_10
REMARK    4  A    between atoms: C_14  and  C_15
REMARK    5  A    between atoms: C_15  and  C_16
REMARK    6  A    between atoms: C_16  and  C_17
REMARK                            x       y       z     vdW  Elec       q    Type
REMARK                         _______ _______ _______ _____ _____    ______ ____
ROOT
ATOM      1  C   UNL     1      36.073   3.070  14.920  0.00  0.00    +0.000 A 
ATOM      2  S   UNL     1      37.427   2.325  14.217  0.00  0.00    +0.000 S 
ATOM      3  C   UNL     1      37.509   0.915  15.191  0.00  0.00    +0.000 A 
ATOM      4  N   UNL     1      38.350  -0.166  15.218  0.00  0.00    +0.000 NA
ATOM      5  C   UNL     1      38.185  -1.158  16.109  0.00  0.00    +0.000 A 
ATOM      6  C   UNL     1      37.146  -1.024  16.973  0.00  0.00    +0.000 A 
ATOM      7  C   UNL     1      36.285   0.041  16.979  0.00  0.00    +0.000 A 
ATOM      8  C   UNL     1      36.455   1.086  16.043  0.00  0.00    +0.000 A 
ATOM      9  C   UNL     1      35.712   2.194  15.906  0.00  0.00    +0.000 A 
ATOM     10  N   UNL     1      34.556   2.533  16.729  0.00  0.00    +0.000 NA
ATOM     11  C   UNL     1      35.209   0.034  17.983  0.00  0.00    +0.000 C 
ATOM     12  C   UNL     1      35.662  -0.360  19.348  0.00  0.00    +0.000 C 
ATOM     13  C   UNL     1      36.638  -1.495  19.361  0.00  0.00    +0.000 C 
ATOM     14  C   UNL     1      36.885  -2.087  18.007  0.00  0.00    +0.000 C 
ENDROOT
BRANCH   1  16
ATOM     15  N   UNL     1      36.291   5.353  13.945  0.00  0.00    +0.000 NA
ATOM     16  C   UNL     1      35.502   4.342  14.502  0.00  0.00    +0.000 C 
ATOM     17  O   UNL     1      34.267   4.531  14.648  0.00  0.00    +0.000 OA
BRANCH  15  21
ATOM     18  C   UNL     1      34.858   9.125  12.731  0.00  0.00    +0.000 A 
ATOM     19  C   UNL     1      34.594   8.019  11.955  0.00  0.00    +0.000 A 
ATOM     20  C   UNL     1      35.069   6.775  12.358  0.00  0.00    +0.000 A 
ATOM     21  C   UNL     1      35.798   6.617  13.516  0.00  0.00    +0.000 A 
ATOM     22  C   UNL     1      36.045   7.742  14.271  0.00  0.00    +0.000 A 
ATOM     23  C   UNL     1      35.584   9.010  13.895  0.00  0.00    +0.000 A 
BRANCH  18  25
ATOM     24  C   UNL     1      33.913  11.342  13.215  0.00  0.00    +0.000 C 
ATOM     25  O   UNL     1      34.375  10.354  12.310  0.00  0.00    +0.000 OA
ENDBRANCH  18  25
ENDBRANCH  15  21
ENDBRANCH   1  16
BRANCH   5  26
ATOM     26  C   UNL     1      39.079  -2.333  16.154  0.00  0.00    +0.000 C 
BRANCH  26  27
ATOM     27  C   UNL     1      38.816  -3.262  14.984  0.00  0.00    +0.000 C 
BRANCH  27  28
ATOM     28  C   UNL     1      37.496  -3.915  15.187  0.00  0.00    +0.000 A 
ATOM     29  C   UNL     1      37.278  -4.868  16.160  0.00  0.00    +0.000 A 
ATOM     30  C   UNL     1      36.031  -5.459  16.323  0.00  0.00    +0.000 A 
ATOM     31  C   UNL     1      35.018  -5.075  15.492  0.00  0.00    +0.000 A 
ATOM     32  C   UNL     1      35.228  -4.121  14.513  0.00  0.00    +0.000 A 
ATOM     33  C   UNL     1      36.472  -3.546  14.369  0.00  0.00    +0.000 A 
ENDBRANCH  27  28
ENDBRANCH  26  27
ENDBRANCH   5  26
TORSDOF 6
ENDMDL
MODEL 8
REMARK VINA RESULT:      -7.7      4.833      9.974
REMARK  Name = 
REMARK  6 active torsions:
REMARK  status: ('A' for Active; 'I' for Inactive)
REMARK    1  A    between atoms: O_2  and  C_3
REMARK    2  A    between atoms: C_6  and  N_7
REMARK    3  A    between atoms: C_8  and  C_10
REMARK    4  A    between atoms: C_14  and  C_15
REMARK    5  A    between atoms: C_15  and  C_16
REMARK    6  A    between atoms: C_16  and  C_17
REMARK                            x       y       z     vdW  Elec       q    Type
REMARK                         _______ _______ _______ _____ _____    ______ ____
ROOT
ATOM      1  C   UNL     1      36.390   4.290  14.554  0.00  0.00    +0.000 A 
ATOM      2  S   UNL     1      35.138   3.158  14.737  0.00  0.00    +0.000 S 
ATOM      3  C   UNL     1      36.067   1.717  14.782  0.00  0.00    +0.000 A 
ATOM      4  N   UNL     1      35.747   0.391  14.911  0.00  0.00    +0.000 NA
ATOM      5  C   UNL     1      36.697  -0.560  14.916  0.00  0.00    +0.000 A 
ATOM      6  C   UNL     1      37.978  -0.131  14.787  0.00  0.00    +0.000 A 
ATOM      7  C   UNL     1      38.338   1.184  14.656  0.00  0.00    +0.000 A 
ATOM      8  C   UNL     1      37.342   2.186  14.651  0.00  0.00    +0.000 A 
ATOM      9  C   UNL     1      37.514   3.511  14.533  0.00  0.00    +0.000 A 
ATOM     10  N   UNL     1      38.802   4.179  14.384  0.00  0.00    +0.000 NA
ATOM     11  C   UNL     1      39.774   1.481  14.527  0.00  0.00    +0.000 C 
ATOM     12  C   UNL     1      40.492   0.581  13.580  0.00  0.00    +0.000 C 
ATOM     13  C   UNL     1      40.081  -0.856  13.677  0.00  0.00    +0.000 C 
ATOM     14  C   UNL     1      39.108  -1.127  14.783  0.00  0.00    +0.000 C 
ENDROOT
BRANCH   1  16
ATOM     15  N   UNL     1      35.145   6.290  13.741  0.00  0.00    +0.000 NA
ATOM     16  C   UNL     1      36.212   5.732  14.453  0.00  0.00    +0.000 C 
ATOM     17  O   UNL     1      37.040   6.488  15.022  0.00  0.00    +0.000 OA
BRANCH  15  21
ATOM     18  C   UNL     1      34.419  10.427  13.391  0.00  0.00    +0.000 A 
ATOM     19  C   UNL     1      35.171   9.788  12.431  0.00  0.00    +0.000 A 
ATOM     20  C   UNL     1      35.410   8.422  12.550  0.00  0.00    +0.000 A 
ATOM     21  C   UNL     1      34.913   7.688  13.604  0.00  0.00    +0.000 A 
ATOM     22  C   UNL     1      34.165   8.356  14.548  0.00  0.00    +0.000 A 
ATOM     23  C   UNL     1      33.905   9.729  14.461  0.00  0.00    +0.000 A 
BRANCH  18  25
ATOM     24  C   UNL     1      33.462  12.539  14.205  0.00  0.00    +0.000 C 
ATOM     25  O   UNL     1      34.195  11.788  13.253  0.00  0.00    +0.000 OA
ENDBRANCH  18  25
ENDBRANCH  15  21
ENDBRANCH   1  16
BRANCH   5  26
ATOM     26  C   UNL     1      36.373  -1.995  15.054  0.00  0.00    +0.000 C 
BRANCH  26  27
ATOM     27  C   UNL     1      35.652  -2.266  16.360  0.00  0.00    +0.000 C 
BRANCH  27  28
ATOM     28  C   UNL     1      36.667  -2.527  17.416  0.00  0.00    +0.000 A 
ATOM     29  C   UNL     1      36.728  -1.800  18.585  0.00  0.00    +0.000 A 
ATOM     30  C   UNL     1      37.689  -2.069  19.551  0.00  0.00    +0.000 A 
ATOM     31  C   UNL     1      38.581  -3.076  19.316  0.00  0.00    +0.000 A 
ATOM     32  C   UNL     1      38.527  -3.811  18.145  0.00  0.00    +0.000 A 
ATOM     33  C   UNL     1      37.564  -3.527  17.200  0.00  0.00    +0.000 A 
ENDBRANCH  27  28
ENDBRANCH  26  27
ENDBRANCH   5  26
TORSDOF 6
ENDMDL
MODEL 9
REMARK VINA RESULT:      -7.7     26.589     29.185
REMARK  Name = 
REMARK  6 active torsions:
REMARK  status: ('A' for Active; 'I' for Inactive)
REMARK    1  A    between atoms: O_2  and  C_3
REMARK    2  A    between atoms: C_6  and  N_7
REMARK    3  A    between atoms: C_8  and  C_10
REMARK    4  A    between atoms: C_14  and  C_15
REMARK    5  A    between atoms: C_15  and  C_16
REMARK    6  A    between atoms: C_16  and  C_17
REMARK                            x       y       z     vdW  Elec       q    Type
REMARK                         _______ _______ _______ _____ _____    ______ ____
ROOT
ATOM      1  C   UNL     1      10.933   1.120   8.178  0.00  0.00    +0.000 A 
ATOM      2  S   UNL     1      10.409   1.404   9.768  0.00  0.00    +0.000 S 
ATOM      3  C   UNL     1       9.667   2.935   9.550  0.00  0.00    +0.000 A 
ATOM      4  N   UNL     1       9.020   3.800  10.393  0.00  0.00    +0.000 NA
ATOM      5  C   UNL     1       8.519   4.965   9.949  0.00  0.00    +0.000 A 
ATOM      6  C   UNL     1       8.694   5.232   8.629  0.00  0.00    +0.000 A 
ATOM      7  C   UNL     1       9.335   4.395   7.756  0.00  0.00    +0.000 A 
ATOM      8  C   UNL     1       9.861   3.168   8.218  0.00  0.00    +0.000 A 
ATOM      9  C   UNL     1      10.513   2.235   7.508  0.00  0.00    +0.000 A 
ATOM     10  N   UNL     1      10.806   2.323   6.081  0.00  0.00    +0.000 NA
ATOM     11  C   UNL     1       9.439   4.833   6.354  0.00  0.00    +0.000 C 
ATOM     12  C   UNL     1       9.840   6.260   6.199  0.00  0.00    +0.000 C 
ATOM     13  C   UNL     1       9.183   7.187   7.174  0.00  0.00    +0.000 C 
ATOM     14  C   UNL     1       8.166   6.515   8.045  0.00  0.00    +0.000 C 
ENDROOT
BRANCH   1  16
ATOM     15  N   UNL     1      13.025  -0.216   7.955  0.00  0.00    +0.000 NA
ATOM     16  C   UNL     1      11.653  -0.063   7.729  0.00  0.00    +0.000 C 
ATOM     17  O   UNL     1      11.020  -0.967   7.125  0.00  0.00    +0.000 OA
BRANCH  15  21
ATOM     18  C   UNL     1      15.263  -3.593   6.795  0.00  0.00    +0.000 A 
ATOM     19  C   UNL     1      15.289  -2.462   6.011  0.00  0.00    +0.000 A 
ATOM     20  C   UNL     1      14.548  -1.348   6.396  0.00  0.00    +0.000 A 
ATOM     21  C   UNL     1      13.788  -1.345   7.544  0.00  0.00    +0.000 A 
ATOM     22  C   UNL     1      13.782  -2.492   8.308  0.00  0.00    +0.000 A 
ATOM     23  C   UNL     1      14.515  -3.631   7.950  0.00  0.00    +0.000 A 
BRANCH  18  25
ATOM     24  C   UNL     1      15.432  -5.967   6.183  0.00  0.00    +0.000 C 
ATOM     25  O   UNL     1      16.008  -4.690   6.392  0.00  0.00    +0.000 OA
ENDBRANCH  18  25
ENDBRANCH  15  21
ENDBRANCH   1  16
BRANCH   5  26
ATOM     26  C   UNL     1       7.818   5.911  10.841  0.00  0.00    +0.000 C 
BRANCH  26  27
ATOM     27  C   UNL     1       6.663   5.232  11.553  0.00  0.00    +0.000 C 
BRANCH  27  28
ATOM     28  C   UNL     1       5.433   6.037  11.332  0.00  0.00    +0.000 A 
ATOM     29  C   UNL     1       4.924   6.290  10.076  0.00  0.00    +0.000 A 
ATOM     30  C   UNL     1       3.771   7.046   9.904  0.00  0.00    +0.000 A 
ATOM     31  C   UNL     1       3.147   7.538  11.014  0.00  0.00    +0.000 A 
ATOM     32  C   UNL     1       3.651   7.290  12.278  0.00  0.00    +0.000 A 
ATOM     33  C   UNL     1       4.796   6.537  12.426  0.00  0.00    +0.000 A 
ENDBRANCH  27  28
ENDBRANCH  26  27
ENDBRANCH   5  26
TORSDOF 6
ENDMDL
MODEL 10
REMARK VINA RESULT:      -7.6      1.793      2.928
REMARK  Name = 
REMARK  6 active torsions:
REMARK  status: ('A' for Active; 'I' for Inactive)
REMARK    1  A    between atoms: O_2  and  C_3
REMARK    2  A    between atoms: C_6  and  N_7
REMARK    3  A    between atoms: C_8  and  C_10
REMARK    4  A    between atoms: C_14  and  C_15
REMARK    5  A    between atoms: C_15  and  C_16
REMARK    6  A    between atoms: C_16  and  C_17
REMARK                            x       y       z     vdW  Elec       q    Type
REMARK                         _______ _______ _______ _____ _____    ______ ____
ROOT
ATOM      1  C   UNL     1      37.282   2.178  15.745  0.00  0.00    +0.000 A 
ATOM      2  S   UNL     1      36.952   2.978  17.205  0.00  0.00    +0.000 S 
ATOM      3  C   UNL     1      38.004   4.322  17.034  0.00  0.00    +0.000 A 
ATOM      4  N   UNL     1      38.287   5.406  17.822  0.00  0.00    +0.000 NA
ATOM      5  C   UNL     1      39.178   6.336  17.438  0.00  0.00    +0.000 A 
ATOM      6  C   UNL     1      39.775   6.137  16.235  0.00  0.00    +0.000 A 
ATOM      7  C   UNL     1      39.520   5.067  15.420  0.00  0.00    +0.000 A 
ATOM      8  C   UNL     1      38.583   4.087  15.820  0.00  0.00    +0.000 A 
ATOM      9  C   UNL     1      38.214   2.984  15.152  0.00  0.00    +0.000 A 
ATOM     10  N   UNL     1      38.731   2.583  13.848  0.00  0.00    +0.000 NA
ATOM     11  C   UNL     1      40.253   5.000  14.145  0.00  0.00    +0.000 C 
ATOM     12  C   UNL     1      41.706   5.307  14.270  0.00  0.00    +0.000 C 
ATOM     13  C   UNL     1      42.009   6.447  15.192  0.00  0.00    +0.000 C 
ATOM     14  C   UNL     1      40.786   7.128  15.724  0.00  0.00    +0.000 C 
ENDROOT
BRANCH   1  16
ATOM     15  N   UNL     1      36.907  -0.274  15.980  0.00  0.00    +0.000 NA
ATOM     16  C   UNL     1      36.669   0.931  15.312  0.00  0.00    +0.000 C 
ATOM     17  O   UNL     1      35.905   0.945  14.312  0.00  0.00    +0.000 OA
BRANCH  15  21
ATOM     18  C   UNL     1      35.279  -3.991  14.840  0.00  0.00    +0.000 A 
ATOM     19  C   UNL     1      34.626  -3.225  15.779  0.00  0.00    +0.000 A 
ATOM     20  C   UNL     1      35.166  -1.999  16.154  0.00  0.00    +0.000 A 
ATOM     21  C   UNL     1      36.340  -1.526  15.610  0.00  0.00    +0.000 A 
ATOM     22  C   UNL     1      36.969  -2.315  14.672  0.00  0.00    +0.000 A 
ATOM     23  C   UNL     1      36.455  -3.554  14.272  0.00  0.00    +0.000 A 
BRANCH  18  25
ATOM     24  C   UNL     1      34.410  -6.212  15.432  0.00  0.00    +0.000 C 
ATOM     25  O   UNL     1      34.724  -5.209  14.482  0.00  0.00    +0.000 OA
ENDBRANCH  18  25
ENDBRANCH  15  21
ENDBRANCH   1  16
BRANCH   5  26
ATOM     26  C   UNL     1      39.496   7.513  18.272  0.00  0.00    +0.000 C 
BRANCH  26  27
ATOM     27  C   UNL     1      39.802   7.101  19.699  0.00  0.00    +0.000 C 
BRANCH  27  28
ATOM     28  C   UNL     1      41.277   6.999  19.857  0.00  0.00    +0.000 A 
ATOM     29  C   UNL     1      41.872   6.159  20.773  0.00  0.00    +0.000 A 
ATOM     30  C   UNL     1      43.255   6.088  20.894  0.00  0.00    +0.000 A 
ATOM     31  C   UNL     1      44.018   6.876  20.081  0.00  0.00    +0.000 A 
ATOM     32  C   UNL     1      43.429   7.723  19.159  0.00  0.00    +0.000 A 
ATOM     33  C   UNL     1      42.056   7.777  19.054  0.00  0.00    +0.000 A 
ENDBRANCH  27  28
ENDBRANCH  26  27
ENDBRANCH   5  26
TORSDOF 6
ENDMDL
