MODEL 1
REMARK VINA RESULT:      -7.6      0.000      0.000
REMARK  Name = 
REMARK  6 active torsions:
REMARK  status: ('A' for Active; 'I' for Inactive)
REMARK    1  A    between atoms: C_9  and  C_10
REMARK    2  A    between atoms: C_16  and  C_17
REMARK    3  A    between atoms: N_23  and  C_24
REMARK    4  A    between atoms: C_24  and  C_25
REMARK    5  A    between atoms: C_25  and  C_27
REMARK    6  A    between atoms: C_27  and  N_28
REMARK                            x       y       z     vdW  Elec       q    Type
REMARK                         _______ _______ _______ _____ _____    ______ ____
ROOT
ATOM      1  C   UNL     1      38.893  -3.952  19.277  0.00  0.00    +0.000 C 
ATOM      2  C   UNL     1      38.341  -2.909  18.374  0.00  0.00    +0.000 A 
ATOM      3  C   UNL     1      37.248  -2.176  18.789  0.00  0.00    +0.000 A 
ATOM      4  C   UNL     1      36.749  -1.210  17.933  0.00  0.00    +0.000 A 
ATOM      5  C   UNL     1      35.571  -0.370  18.295  0.00  0.00    +0.000 C 
ATOM      6  C   UNL     1      37.318  -0.976  16.699  0.00  0.00    +0.000 A 
ATOM      7  C   UNL     1      38.421  -1.743  16.326  0.00  0.00    +0.000 A 
ATOM      8  C   UNL     1      38.955  -2.724  17.155  0.00  0.00    +0.000 A 
ATOM      9  C   UNL     1      38.786  -1.309  15.066  0.00  0.00    +0.000 A 
ATOM     10  C   UNL     1      37.915  -0.308  14.706  0.00  0.00    +0.000 A 
ATOM     11  N   UNL     1      37.030  -0.104  15.685  0.00  0.00    +0.000 N 
ENDROOT
BRANCH   9  12
ATOM     12  C   UNL     1      39.908  -1.871  14.326  0.00  0.00    +0.000 A 
ATOM     13  C   UNL     1      39.750  -2.746  13.272  0.00  0.00    +0.000 A 
ATOM     14  C   UNL     1      40.876  -3.247  12.608  0.00  0.00    +0.000 A 
ATOM     15  C   UNL     1      42.154  -2.900  12.964  0.00  0.00    +0.000 A 
ATOM     16  C   UNL     1      42.299  -2.033  14.009  0.00  0.00    +0.000 A 
ATOM     17  C   UNL     1      41.199  -1.542  14.660  0.00  0.00    +0.000 A 
ENDBRANCH   9  12
BRANCH  10  18
ATOM     18  C   UNL     1      37.983   0.422  13.449  0.00  0.00    +0.000 A 
ATOM     19  C   UNL     1      38.914   1.408  13.232  0.00  0.00    +0.000 A 
ATOM     20  C   UNL     1      39.009   2.108  12.080  0.00  0.00    +0.000 A 
ATOM     21  C   UNL     1      38.154   1.851  11.054  0.00  0.00    +0.000 A 
ATOM     22  C   UNL     1      37.204   0.878  11.212  0.00  0.00    +0.000 A 
ATOM     23  C   UNL     1      37.108   0.160  12.398  0.00  0.00    +0.000 A 
ENDBRANCH  10  18
BRANCH  11  24
ATOM     24  C   UNL     1      35.944   0.829  15.749  0.00  0.00    +0.000 C 
BRANCH  24  25
ATOM     25  C   UNL     1      36.550   2.319  16.001  0.00  0.00    +0.000 C 
ATOM     26  O   UNL     1      35.437   2.741  16.916  0.00  0.00    +0.000 OA
BRANCH  25  27
ATOM     27  C   UNL     1      35.830   2.949  14.672  0.00  0.00    +0.000 C 
BRANCH  27  28
ATOM     28  N   UNL     1      36.188   4.362  14.695  0.00  0.00    +0.000 NA
ATOM     29  C   UNL     1      37.622   4.496  14.705  0.00  0.00    +0.000 C 
ATOM     30  C   UNL     1      38.039   5.842  14.103  0.00  0.00    +0.000 C 
ATOM     31  C   UNL     1      37.687   5.841  12.604  0.00  0.00    +0.000 C 
ATOM     32  C   UNL     1      36.521   4.883  12.366  0.00  0.00    +0.000 C 
ATOM     33  C   UNL     1      35.590   5.036  13.560  0.00  0.00    +0.000 C 
ENDBRANCH  27  28
ENDBRANCH  25  27
ENDBRANCH  24  25
ENDBRANCH  11  24
TORSDOF 6
ENDMDL
MODEL 2
REMARK VINA RESULT:      -6.7      2.135      5.699
REMARK  Name = 
REMARK  6 active torsions:
REMARK  status: ('A' for Active; 'I' for Inactive)
REMARK    1  A    between atoms: C_9  and  C_10
REMARK    2  A    between atoms: C_16  and  C_17
REMARK    3  A    between atoms: N_23  and  C_24
REMARK    4  A    between atoms: C_24  and  C_25
REMARK    5  A    between atoms: C_25  and  C_27
REMARK    6  A    between atoms: C_27  and  N_28
REMARK                            x       y       z     vdW  Elec       q    Type
REMARK                         _______ _______ _______ _____ _____    ______ ____
ROOT
ATOM      1  C   UNL     1      42.839   3.919  11.800  0.00  0.00    +0.000 C 
ATOM      2  C   UNL     1      41.785   3.206  12.566  0.00  0.00    +0.000 A 
ATOM      3  C   UNL     1      40.739   3.931  13.097  0.00  0.00    +0.000 A 
ATOM      4  C   UNL     1      39.767   3.248  13.808  0.00  0.00    +0.000 A 
ATOM      5  C   UNL     1      38.600   3.948  14.418  0.00  0.00    +0.000 C 
ATOM      6  C   UNL     1      39.831   1.882  13.987  0.00  0.00    +0.000 A 
ATOM      7  C   UNL     1      40.908   1.194  13.430  0.00  0.00    +0.000 A 
ATOM      8  C   UNL     1      41.907   1.841  12.709  0.00  0.00    +0.000 A 
ATOM      9  C   UNL     1      40.728  -0.136  13.754  0.00  0.00    +0.000 A 
ATOM     10  C   UNL     1      39.567  -0.229  14.487  0.00  0.00    +0.000 A 
ATOM     11  N   UNL     1      39.024   0.983  14.629  0.00  0.00    +0.000 N 
ENDROOT
BRANCH   9  12
ATOM     12  C   UNL     1      41.654  -1.185  13.349  0.00  0.00    +0.000 A 
ATOM     13  C   UNL     1      42.800  -1.489  14.054  0.00  0.00    +0.000 A 
ATOM     14  C   UNL     1      43.643  -2.512  13.603  0.00  0.00    +0.000 A 
ATOM     15  C   UNL     1      43.377  -3.239  12.472  0.00  0.00    +0.000 A 
ATOM     16  C   UNL     1      42.240  -2.930  11.783  0.00  0.00    +0.000 A 
ATOM     17  C   UNL     1      41.413  -1.931  12.221  0.00  0.00    +0.000 A 
ENDBRANCH   9  12
BRANCH  10  18
ATOM     18  C   UNL     1      39.022  -1.476  14.999  0.00  0.00    +0.000 A 
ATOM     19  C   UNL     1      38.253  -2.306  14.220  0.00  0.00    +0.000 A 
ATOM     20  C   UNL     1      37.729  -3.471  14.659  0.00  0.00    +0.000 A 
ATOM     21  C   UNL     1      37.950  -3.881  15.936  0.00  0.00    +0.000 A 
ATOM     22  C   UNL     1      38.710  -3.094  16.760  0.00  0.00    +0.000 A 
ATOM     23  C   UNL     1      39.248  -1.896  16.307  0.00  0.00    +0.000 A 
ENDBRANCH  10  18
BRANCH  11  24
ATOM     24  C   UNL     1      37.826   1.367  15.314  0.00  0.00    +0.000 C 
BRANCH  24  25
ATOM     25  C   UNL     1      36.579   0.516  14.702  0.00  0.00    +0.000 C 
ATOM     26  O   UNL     1      36.420   1.397  13.498  0.00  0.00    +0.000 OA
BRANCH  25  27
ATOM     27  C   UNL     1      35.459   1.333  15.573  0.00  0.00    +0.000 C 
BRANCH  27  28
ATOM     28  N   UNL     1      34.851   0.323  16.430  0.00  0.00    +0.000 NA
ATOM     29  C   UNL     1      35.475  -0.953  16.188  0.00  0.00    +0.000 C 
ATOM     30  C   UNL     1      35.358  -1.850  17.425  0.00  0.00    +0.000 C 
ATOM     31  C   UNL     1      36.207  -1.242  18.556  0.00  0.00    +0.000 C 
ATOM     32  C   UNL     1      36.318   0.267  18.341  0.00  0.00    +0.000 C 
ATOM     33  C   UNL     1      34.965   0.726  17.817  0.00  0.00    +0.000 C 
ENDBRANCH  27  28
ENDBRANCH  25  27
ENDBRANCH  24  25
ENDBRANCH  11  24
TORSDOF 6
ENDMDL
MODEL 3
REMARK VINA RESULT:      -6.6      2.748      5.370
REMARK  Name = 
REMARK  6 active torsions:
REMARK  status: ('A' for Active; 'I' for Inactive)
REMARK    1  A    between atoms: C_9  and  C_10
REMARK    2  A    between atoms: C_16  and  C_17
REMARK    3  A    between atoms: N_23  and  C_24
REMARK    4  A    between atoms: C_24  and  C_25
REMARK    5  A    between atoms: C_25  and  C_27
REMARK    6  A    between atoms: C_27  and  N_28
REMARK                            x       y       z     vdW  Elec       q    Type
REMARK                         _______ _______ _______ _____ _____    ______ ____
ROOT
ATOM      1  C   UNL     1      34.559   1.757  16.648  0.00  0.00    +0.000 C 
ATOM      2  C   UNL     1      35.622   1.545  15.633  0.00  0.00    +0.000 A 
ATOM      3  C   UNL     1      35.863   2.532  14.700  0.00  0.00    +0.000 A 
ATOM      4  C   UNL     1      36.856   2.315  13.762  0.00  0.00    +0.000 A 
ATOM      5  C   UNL     1      37.187   3.325  12.716  0.00  0.00    +0.000 C 
ATOM      6  C   UNL     1      37.593   1.149  13.749  0.00  0.00    +0.000 A 
ATOM      7  C   UNL     1      37.313   0.181  14.712  0.00  0.00    +0.000 A 
ATOM      8  C   UNL     1      36.322   0.359  15.673  0.00  0.00    +0.000 A 
ATOM      9  C   UNL     1      38.182  -0.866  14.474  0.00  0.00    +0.000 A 
ATOM     10  C   UNL     1      38.958  -0.520  13.393  0.00  0.00    +0.000 A 
ATOM     11  N   UNL     1      38.608   0.691  12.953  0.00  0.00    +0.000 N 
ENDROOT
BRANCH   9  12
ATOM     12  C   UNL     1      38.201  -2.081  15.278  0.00  0.00    +0.000 A 
ATOM     13  C   UNL     1      39.065  -2.267  16.337  0.00  0.00    +0.000 A 
ATOM     14  C   UNL     1      39.025  -3.463  17.065  0.00  0.00    +0.000 A 
ATOM     15  C   UNL     1      38.151  -4.476  16.768  0.00  0.00    +0.000 A 
ATOM     16  C   UNL     1      37.300  -4.280  15.717  0.00  0.00    +0.000 A 
ATOM     17  C   UNL     1      37.337  -3.112  15.004  0.00  0.00    +0.000 A 
ENDBRANCH   9  12
BRANCH  10  18
ATOM     18  C   UNL     1      40.013  -1.358  12.843  0.00  0.00    +0.000 A 
ATOM     19  C   UNL     1      39.754  -2.327  11.905  0.00  0.00    +0.000 A 
ATOM     20  C   UNL     1      40.705  -3.124  11.370  0.00  0.00    +0.000 A 
ATOM     21  C   UNL     1      42.002  -2.991  11.755  0.00  0.00    +0.000 A 
ATOM     22  C   UNL     1      42.321  -2.041  12.689  0.00  0.00    +0.000 A 
ATOM     23  C   UNL     1      41.341  -1.222  13.237  0.00  0.00    +0.000 A 
ENDBRANCH  10  18
BRANCH  11  24
ATOM     24  C   UNL     1      39.136   1.447  11.857  0.00  0.00    +0.000 C 
BRANCH  24  25
ATOM     25  C   UNL     1      38.617   0.781  10.464  0.00  0.00    +0.000 C 
ATOM     26  O   UNL     1      40.000   0.527   9.938  0.00  0.00    +0.000 OA
BRANCH  25  27
ATOM     27  C   UNL     1      38.483   2.224   9.703  0.00  0.00    +0.000 C 
BRANCH  27  28
ATOM     28  N   UNL     1      37.093   2.281   9.266  0.00  0.00    +0.000 NA
ATOM     29  C   UNL     1      36.735   3.647   8.979  0.00  0.00    +0.000 C 
ATOM     30  C   UNL     1      35.591   3.698   7.961  0.00  0.00    +0.000 C 
ATOM     31  C   UNL     1      36.110   3.170   6.610  0.00  0.00    +0.000 C 
ATOM     32  C   UNL     1      37.269   2.206   6.864  0.00  0.00    +0.000 C 
ATOM     33  C   UNL     1      36.907   1.421   8.116  0.00  0.00    +0.000 C 
ENDBRANCH  27  28
ENDBRANCH  25  27
ENDBRANCH  24  25
ENDBRANCH  11  24
TORSDOF 6
ENDMDL
MODEL 4
REMARK VINA RESULT:      -6.5      2.383      5.957
REMARK  Name = 
REMARK  6 active torsions:
REMARK  status: ('A' for Active; 'I' for Inactive)
REMARK    1  A    between atoms: C_9  and  C_10
REMARK    2  A    between atoms: C_16  and  C_17
REMARK    3  A    between atoms: N_23  and  C_24
REMARK    4  A    between atoms: C_24  and  C_25
REMARK    5  A    between atoms: C_25  and  C_27
REMARK    6  A    between atoms: C_27  and  N_28
REMARK                            x       y       z     vdW  Elec       q    Type
REMARK                         _______ _______ _______ _____ _____    ______ ____
ROOT
ATOM      1  C   UNL     1      35.934  -0.975  19.363  0.00  0.00    +0.000 C 
ATOM      2  C   UNL     1      36.738  -0.997  18.114  0.00  0.00    +0.000 A 
ATOM      3  C   UNL     1      37.625  -2.033  17.908  0.00  0.00    +0.000 A 
ATOM      4  C   UNL     1      38.364  -2.035  16.739  0.00  0.00    +0.000 A 
ATOM      5  C   UNL     1      39.347  -3.114  16.430  0.00  0.00    +0.000 C 
ATOM      6  C   UNL     1      38.229  -1.036  15.797  0.00  0.00    +0.000 A 
ATOM      7  C   UNL     1      37.319  -0.011  16.051  0.00  0.00    +0.000 A 
ATOM      8  C   UNL     1      36.555   0.030  17.214  0.00  0.00    +0.000 A 
ATOM      9  C   UNL     1      37.381   0.840  14.965  0.00  0.00    +0.000 A 
ATOM     10  C   UNL     1      38.309   0.326  14.090  0.00  0.00    +0.000 A 
ATOM     11  N   UNL     1      38.822  -0.803  14.587  0.00  0.00    +0.000 N 
ENDROOT
BRANCH   9  12
ATOM     12  C   UNL     1      36.571   2.046  14.853  0.00  0.00    +0.000 A 
ATOM     13  C   UNL     1      35.194   2.021  14.778  0.00  0.00    +0.000 A 
ATOM     14  C   UNL     1      34.481   3.222  14.672  0.00  0.00    +0.000 A 
ATOM     15  C   UNL     1      35.101   4.444  14.639  0.00  0.00    +0.000 A 
ATOM     16  C   UNL     1      36.464   4.456  14.715  0.00  0.00    +0.000 A 
ATOM     17  C   UNL     1      37.164   3.284  14.819  0.00  0.00    +0.000 A 
ENDBRANCH   9  12
BRANCH  10  18
ATOM     18  C   UNL     1      38.648   0.929  12.811  0.00  0.00    +0.000 A 
ATOM     19  C   UNL     1      37.854   0.770  11.701  0.00  0.00    +0.000 A 
ATOM     20  C   UNL     1      38.134   1.313  10.496  0.00  0.00    +0.000 A 
ATOM     21  C   UNL     1      39.254   2.065  10.330  0.00  0.00    +0.000 A 
ATOM     22  C   UNL     1      40.085   2.258  11.402  0.00  0.00    +0.000 A 
ATOM     23  C   UNL     1      39.795   1.699  12.640  0.00  0.00    +0.000 A 
ENDBRANCH  10  18
BRANCH  11  24
ATOM     24  C   UNL     1      39.815  -1.672  14.029  0.00  0.00    +0.000 C 
BRANCH  24  25
ATOM     25  C   UNL     1      39.300  -2.185  12.571  0.00  0.00    +0.000 C 
ATOM     26  O   UNL     1      38.456  -3.293  13.132  0.00  0.00    +0.000 OA
BRANCH  25  27
ATOM     27  C   UNL     1      40.598  -3.156  12.340  0.00  0.00    +0.000 C 
BRANCH  27  28
ATOM     28  N   UNL     1      41.016  -2.891  10.968  0.00  0.00    +0.000 NA
ATOM     29  C   UNL     1      40.176  -1.869  10.398  0.00  0.00    +0.000 C 
ATOM     30  C   UNL     1      40.918  -1.126   9.282  0.00  0.00    +0.000 C 
ATOM     31  C   UNL     1      42.080  -0.332   9.908  0.00  0.00    +0.000 C 
ATOM     32  C   UNL     1      42.514  -1.018  11.202  0.00  0.00    +0.000 C 
ATOM     33  C   UNL     1      42.415  -2.515  10.948  0.00  0.00    +0.000 C 
ENDBRANCH  27  28
ENDBRANCH  25  27
ENDBRANCH  24  25
ENDBRANCH  11  24
TORSDOF 6
ENDMDL
MODEL 5
REMARK VINA RESULT:      -6.5      2.570      6.433
REMARK  Name = 
REMARK  6 active torsions:
REMARK  status: ('A' for Active; 'I' for Inactive)
REMARK    1  A    between atoms: C_9  and  C_10
REMARK    2  A    between atoms: C_16  and  C_17
REMARK    3  A    between atoms: N_23  and  C_24
REMARK    4  A    between atoms: C_24  and  C_25
REMARK    5  A    between atoms: C_25  and  C_27
REMARK    6  A    between atoms: C_27  and  N_28
REMARK                            x       y       z     vdW  Elec       q    Type
REMARK                         _______ _______ _______ _____ _____    ______ ____
ROOT
ATOM      1  C   UNL     1      34.057   3.506  15.425  0.00  0.00    +0.000 C 
ATOM      2  C   UNL     1      35.288   2.953  14.804  0.00  0.00    +0.000 A 
ATOM      3  C   UNL     1      36.024   3.752  13.953  0.00  0.00    +0.000 A 
ATOM      4  C   UNL     1      37.167   3.218  13.385  0.00  0.00    +0.000 A 
ATOM      5  C   UNL     1      38.025   4.006  12.453  0.00  0.00    +0.000 C 
ATOM      6  C   UNL     1      37.571   1.927  13.653  0.00  0.00    +0.000 A 
ATOM      7  C   UNL     1      36.794   1.160  14.520  0.00  0.00    +0.000 A 
ATOM      8  C   UNL     1      35.637   1.657  15.113  0.00  0.00    +0.000 A 
ATOM      9  C   UNL     1      37.415  -0.070  14.612  0.00  0.00    +0.000 A 
ATOM     10  C   UNL     1      38.535  -0.027  13.815  0.00  0.00    +0.000 A 
ATOM     11  N   UNL     1      38.633   1.172  13.236  0.00  0.00    +0.000 N 
ENDROOT
BRANCH   9  12
ATOM     12  C   UNL     1      36.903  -1.160  15.431  0.00  0.00    +0.000 A 
ATOM     13  C   UNL     1      37.227  -1.315  16.763  0.00  0.00    +0.000 A 
ATOM     14  C   UNL     1      36.696  -2.388  17.488  0.00  0.00    +0.000 A 
ATOM     15  C   UNL     1      35.851  -3.309  16.925  0.00  0.00    +0.000 A 
ATOM     16  C   UNL     1      35.536  -3.145  15.607  0.00  0.00    +0.000 A 
ATOM     17  C   UNL     1      36.054  -2.097  14.895  0.00  0.00    +0.000 A 
ENDBRANCH   9  12
BRANCH  10  18
ATOM     18  C   UNL     1      39.471  -1.130  13.660  0.00  0.00    +0.000 A 
ATOM     19  C   UNL     1      40.317  -1.512  14.673  0.00  0.00    +0.000 A 
ATOM     20  C   UNL     1      41.199  -2.529  14.568  0.00  0.00    +0.000 A 
ATOM     21  C   UNL     1      41.285  -3.241  13.413  0.00  0.00    +0.000 A 
ATOM     22  C   UNL     1      40.466  -2.907  12.368  0.00  0.00    +0.000 A 
ATOM     23  C   UNL     1      39.560  -1.859  12.478  0.00  0.00    +0.000 A 
ENDBRANCH  10  18
BRANCH  11  24
ATOM     24  C   UNL     1      39.628   1.666  12.330  0.00  0.00    +0.000 C 
BRANCH  24  25
ATOM     25  C   UNL     1      41.022   1.871  13.146  0.00  0.00    +0.000 C 
ATOM     26  O   UNL     1      41.294   3.228  12.567  0.00  0.00    +0.000 OA
BRANCH  25  27
ATOM     27  C   UNL     1      41.918   1.098  12.014  0.00  0.00    +0.000 C 
BRANCH  27  28
ATOM     28  N   UNL     1      43.250   1.004  12.600  0.00  0.00    +0.000 NA
ATOM     29  C   UNL     1      43.155   0.448  13.925  0.00  0.00    +0.000 C 
ATOM     30  C   UNL     1      44.466  -0.244  14.311  0.00  0.00    +0.000 C 
ATOM     31  C   UNL     1      44.653  -1.481  13.413  0.00  0.00    +0.000 C 
ATOM     32  C   UNL     1      43.916  -1.255  12.094  0.00  0.00    +0.000 C 
ATOM     33  C   UNL     1      44.106   0.213  11.741  0.00  0.00    +0.000 C 
ENDBRANCH  27  28
ENDBRANCH  25  27
ENDBRANCH  24  25
ENDBRANCH  11  24
TORSDOF 6
ENDMDL
MODEL 6
REMARK VINA RESULT:      -6.5      2.748      7.575
REMARK  Name = 
REMARK  6 active torsions:
REMARK  status: ('A' for Active; 'I' for Inactive)
REMARK    1  A    between atoms: C_9  and  C_10
REMARK    2  A    between atoms: C_16  and  C_17
REMARK    3  A    between atoms: N_23  and  C_24
REMARK    4  A    between atoms: C_24  and  C_25
REMARK    5  A    between atoms: C_25  and  C_27
REMARK    6  A    between atoms: C_27  and  N_28
REMARK                            x       y       z     vdW  Elec       q    Type
REMARK                         _______ _______ _______ _____ _____    ______ ____
ROOT
ATOM      1  C   UNL     1      43.382   5.960  13.323  0.00  0.00    +0.000 C 
ATOM      2  C   UNL     1      42.193   5.070  13.324  0.00  0.00    +0.000 A 
ATOM      3  C   UNL     1      42.096   4.081  12.368  0.00  0.00    +0.000 A 
ATOM      4  C   UNL     1      40.980   3.263  12.386  0.00  0.00    +0.000 A 
ATOM      5  C   UNL     1      40.790   2.167  11.393  0.00  0.00    +0.000 C 
ATOM      6  C   UNL     1      39.985   3.422  13.328  0.00  0.00    +0.000 A 
ATOM      7  C   UNL     1      40.129   4.436  14.274  0.00  0.00    +0.000 A 
ATOM      8  C   UNL     1      41.234   5.280  14.291  0.00  0.00    +0.000 A 
ATOM      9  C   UNL     1      39.010   4.373  15.082  0.00  0.00    +0.000 A 
ATOM     10  C   UNL     1      38.225   3.343  14.621  0.00  0.00    +0.000 A 
ATOM     11  N   UNL     1      38.808   2.767  13.566  0.00  0.00    +0.000 N 
ENDROOT
BRANCH   9  12
ATOM     12  C   UNL     1      38.787   5.279  16.201  0.00  0.00    +0.000 A 
ATOM     13  C   UNL     1      38.227   6.531  16.054  0.00  0.00    +0.000 A 
ATOM     14  C   UNL     1      38.043   7.347  17.176  0.00  0.00    +0.000 A 
ATOM     15  C   UNL     1      38.400   6.952  18.439  0.00  0.00    +0.000 A 
ATOM     16  C   UNL     1      38.953   5.711  18.573  0.00  0.00    +0.000 A 
ATOM     17  C   UNL     1      39.135   4.910  17.478  0.00  0.00    +0.000 A 
ENDBRANCH   9  12
BRANCH  10  18
ATOM     18  C   UNL     1      36.963   2.944  15.224  0.00  0.00    +0.000 A 
ATOM     19  C   UNL     1      35.755   3.367  14.725  0.00  0.00    +0.000 A 
ATOM     20  C   UNL     1      34.562   3.019  15.256  0.00  0.00    +0.000 A 
ATOM     21  C   UNL     1      34.511   2.206  16.345  0.00  0.00    +0.000 A 
ATOM     22  C   UNL     1      35.685   1.753  16.887  0.00  0.00    +0.000 A 
ATOM     23  C   UNL     1      36.910   2.112  16.339  0.00  0.00    +0.000 A 
ENDBRANCH  10  18
BRANCH  11  24
ATOM     24  C   UNL     1      38.356   1.668  12.766  0.00  0.00    +0.000 C 
BRANCH  24  25
ATOM     25  C   UNL     1      38.906   0.283  13.423  0.00  0.00    +0.000 C 
ATOM     26  O   UNL     1      39.048  -0.420  12.104  0.00  0.00    +0.000 OA
BRANCH  25  27
ATOM     27  C   UNL     1      37.403  -0.309  13.690  0.00  0.00    +0.000 C 
BRANCH  27  28
ATOM     28  N   UNL     1      37.615  -1.495  14.512  0.00  0.00    +0.000 NA
ATOM     29  C   UNL     1      38.219  -1.112  15.762  0.00  0.00    +0.000 C 
ATOM     30  C   UNL     1      37.885  -2.134  16.853  0.00  0.00    +0.000 C 
ATOM     31  C   UNL     1      36.375  -2.066  17.147  0.00  0.00    +0.000 C 
ATOM     32  C   UNL     1      35.648  -1.561  15.901  0.00  0.00    +0.000 C 
ATOM     33  C   UNL     1      36.357  -2.184  14.708  0.00  0.00    +0.000 C 
ENDBRANCH  27  28
ENDBRANCH  25  27
ENDBRANCH  24  25
ENDBRANCH  11  24
TORSDOF 6
ENDMDL
MODEL 7
REMARK VINA RESULT:      -6.5     27.782     30.918
REMARK  Name = 
REMARK  6 active torsions:
REMARK  status: ('A' for Active; 'I' for Inactive)
REMARK    1  A    between atoms: C_9  and  C_10
REMARK    2  A    between atoms: C_16  and  C_17
REMARK    3  A    between atoms: N_23  and  C_24
REMARK    4  A    between atoms: C_24  and  C_25
REMARK    5  A    between atoms: C_25  and  C_27
REMARK    6  A    between atoms: C_27  and  N_28
REMARK                            x       y       z     vdW  Elec       q    Type
REMARK                         _______ _______ _______ _____ _____    ______ ____
ROOT
ATOM      1  C   UNL     1      25.463  14.379  32.295  0.00  0.00    +0.000 C 
ATOM      2  C   UNL     1      25.177  15.630  33.044  0.00  0.00    +0.000 A 
ATOM      3  C   UNL     1      24.743  16.740  32.350  0.00  0.00    +0.000 A 
ATOM      4  C   UNL     1      24.483  17.895  33.066  0.00  0.00    +0.000 A 
ATOM      5  C   UNL     1      24.010  19.145  32.402  0.00  0.00    +0.000 C 
ATOM      6  C   UNL     1      24.647  17.948  34.434  0.00  0.00    +0.000 A 
ATOM      7  C   UNL     1      25.087  16.800  35.090  0.00  0.00    +0.000 A 
ATOM      8  C   UNL     1      25.361  15.618  34.409  0.00  0.00    +0.000 A 
ATOM      9  C   UNL     1      25.164  17.124  36.431  0.00  0.00    +0.000 A 
ATOM     10  C   UNL     1      24.777  18.437  36.561  0.00  0.00    +0.000 A 
ATOM     11  N   UNL     1      24.465  18.938  35.362  0.00  0.00    +0.000 N 
ENDROOT
BRANCH   9  12
ATOM     12  C   UNL     1      25.591  16.179  37.454  0.00  0.00    +0.000 A 
ATOM     13  C   UNL     1      24.711  15.372  38.144  0.00  0.00    +0.000 A 
ATOM     14  C   UNL     1      25.195  14.486  39.115  0.00  0.00    +0.000 A 
ATOM     15  C   UNL     1      26.528  14.382  39.416  0.00  0.00    +0.000 A 
ATOM     16  C   UNL     1      27.390  15.185  38.726  0.00  0.00    +0.000 A 
ATOM     17  C   UNL     1      26.920  16.052  37.776  0.00  0.00    +0.000 A 
ENDBRANCH   9  12
BRANCH  10  18
ATOM     18  C   UNL     1      24.705  19.147  37.828  0.00  0.00    +0.000 A 
ATOM     19  C   UNL     1      23.505  19.435  38.431  0.00  0.00    +0.000 A 
ATOM     20  C   UNL     1      23.396  20.091  39.607  0.00  0.00    +0.000 A 
ATOM     21  C   UNL     1      24.512  20.506  40.262  0.00  0.00    +0.000 A 
ATOM     22  C   UNL     1      25.738  20.248  39.709  0.00  0.00    +0.000 A 
ATOM     23  C   UNL     1      25.848  19.572  38.500  0.00  0.00    +0.000 A 
ENDBRANCH  10  18
BRANCH  11  24
ATOM     24  C   UNL     1      24.018  20.254  35.015  0.00  0.00    +0.000 C 
BRANCH  24  25
ATOM     25  C   UNL     1      25.115  21.335  35.547  0.00  0.00    +0.000 C 
ATOM     26  O   UNL     1      24.268  22.528  35.214  0.00  0.00    +0.000 OA
BRANCH  25  27
ATOM     27  C   UNL     1      25.916  21.379  34.120  0.00  0.00    +0.000 C 
BRANCH  27  28
ATOM     28  N   UNL     1      27.325  21.424  34.490  0.00  0.00    +0.000 NA
ATOM     29  C   UNL     1      27.451  21.309  35.921  0.00  0.00    +0.000 C 
ATOM     30  C   UNL     1      28.817  20.725  36.293  0.00  0.00    +0.000 C 
ATOM     31  C   UNL     1      28.878  19.265  35.807  0.00  0.00    +0.000 C 
ATOM     32  C   UNL     1      27.936  19.097  34.616  0.00  0.00    +0.000 C 
ATOM     33  C   UNL     1      28.046  20.376  33.798  0.00  0.00    +0.000 C 
ENDBRANCH  27  28
ENDBRANCH  25  27
ENDBRANCH  24  25
ENDBRANCH  11  24
TORSDOF 6
ENDMDL
MODEL 8
REMARK VINA RESULT:      -6.4     25.891     29.114
REMARK  Name = 
REMARK  6 active torsions:
REMARK  status: ('A' for Active; 'I' for Inactive)
REMARK    1  A    between atoms: C_9  and  C_10
REMARK    2  A    between atoms: C_16  and  C_17
REMARK    3  A    between atoms: N_23  and  C_24
REMARK    4  A    between atoms: C_24  and  C_25
REMARK    5  A    between atoms: C_25  and  C_27
REMARK    6  A    between atoms: C_27  and  N_28
REMARK                            x       y       z     vdW  Elec       q    Type
REMARK                         _______ _______ _______ _____ _____    ______ ____
ROOT
ATOM      1  C   UNL     1      22.791  15.068  39.747  0.00  0.00    +0.000 C 
ATOM      2  C   UNL     1      24.248  15.229  39.506  0.00  0.00    +0.000 A 
ATOM      3  C   UNL     1      25.106  15.243  40.586  0.00  0.00    +0.000 A 
ATOM      4  C   UNL     1      26.460  15.395  40.340  0.00  0.00    +0.000 A 
ATOM      5  C   UNL     1      27.463  15.421  41.444  0.00  0.00    +0.000 C 
ATOM      6  C   UNL     1      26.949  15.530  39.058  0.00  0.00    +0.000 A 
ATOM      7  C   UNL     1      26.041  15.510  38.000  0.00  0.00    +0.000 A 
ATOM      8  C   UNL     1      24.673  15.360  38.202  0.00  0.00    +0.000 A 
ATOM      9  C   UNL     1      26.786  15.661  36.847  0.00  0.00    +0.000 A 
ATOM     10  C   UNL     1      28.106  15.768  37.218  0.00  0.00    +0.000 A 
ATOM     11  N   UNL     1      28.209  15.690  38.548  0.00  0.00    +0.000 N 
ENDROOT
BRANCH   9  12
ATOM     12  C   UNL     1      26.193  15.691  35.516  0.00  0.00    +0.000 A 
ATOM     13  C   UNL     1      26.184  14.600  34.673  0.00  0.00    +0.000 A 
ATOM     14  C   UNL     1      25.595  14.703  33.407  0.00  0.00    +0.000 A 
ATOM     15  C   UNL     1      25.015  15.862  32.959  0.00  0.00    +0.000 A 
ATOM     16  C   UNL     1      25.029  16.936  33.802  0.00  0.00    +0.000 A 
ATOM     17  C   UNL     1      25.605  16.838  35.041  0.00  0.00    +0.000 A 
ENDBRANCH   9  12
BRANCH  10  18
ATOM     18  C   UNL     1      29.209  15.921  36.283  0.00  0.00    +0.000 A 
ATOM     19  C   UNL     1      29.859  14.837  35.745  0.00  0.00    +0.000 A 
ATOM     20  C   UNL     1      30.887  14.936  34.874  0.00  0.00    +0.000 A 
ATOM     21  C   UNL     1      31.332  16.160  34.482  0.00  0.00    +0.000 A 
ATOM     22  C   UNL     1      30.722  17.278  34.985  0.00  0.00    +0.000 A 
ATOM     23  C   UNL     1      29.665  17.173  35.881  0.00  0.00    +0.000 A 
ENDBRANCH  10  18
BRANCH  11  24
ATOM     24  C   UNL     1      29.377  15.755  39.374  0.00  0.00    +0.000 C 
BRANCH  24  25
ATOM     25  C   UNL     1      30.109  14.301  39.361  0.00  0.00    +0.000 C 
ATOM     26  O   UNL     1      30.374  14.293  40.838  0.00  0.00    +0.000 OA
BRANCH  25  27
ATOM     27  C   UNL     1      31.578  14.926  38.998  0.00  0.00    +0.000 C 
BRANCH  27  28
ATOM     28  N   UNL     1      32.452  13.766  38.873  0.00  0.00    +0.000 NA
ATOM     29  C   UNL     1      31.851  12.805  37.984  0.00  0.00    +0.000 C 
ATOM     30  C   UNL     1      32.928  11.930  37.335  0.00  0.00    +0.000 C 
ATOM     31  C   UNL     1      33.777  12.809  36.396  0.00  0.00    +0.000 C 
ATOM     32  C   UNL     1      33.733  14.254  36.892  0.00  0.00    +0.000 C 
ATOM     33  C   UNL     1      33.758  14.187  38.412  0.00  0.00    +0.000 C 
ENDBRANCH  27  28
ENDBRANCH  25  27
ENDBRANCH  24  25
ENDBRANCH  11  24
TORSDOF 6
ENDMDL
MODEL 9
REMARK VINA RESULT:      -6.4      4.819      8.556
REMARK  Name = 
REMARK  6 active torsions:
REMARK  status: ('A' for Active; 'I' for Inactive)
REMARK    1  A    between atoms: C_9  and  C_10
REMARK    2  A    between atoms: C_16  and  C_17
REMARK    3  A    between atoms: N_23  and  C_24
REMARK    4  A    between atoms: C_24  and  C_25
REMARK    5  A    between atoms: C_25  and  C_27
REMARK    6  A    between atoms: C_27  and  N_28
REMARK                            x       y       z     vdW  Elec       q    Type
REMARK                         _______ _______ _______ _____ _____    ______ ____
ROOT
ATOM      1  C   UNL     1      38.943   1.829  14.621  0.00  0.00    +0.000 C 
ATOM      2  C   UNL     1      38.438   3.226  14.621  0.00  0.00    +0.000 A 
ATOM      3  C   UNL     1      37.491   3.595  13.689  0.00  0.00    +0.000 A 
ATOM      4  C   UNL     1      37.034   4.900  13.705  0.00  0.00    +0.000 A 
ATOM      5  C   UNL     1      36.010   5.389  12.736  0.00  0.00    +0.000 C 
ATOM      6  C   UNL     1      37.504   5.817  14.622  0.00  0.00    +0.000 A 
ATOM      7  C   UNL     1      38.461   5.397  15.543  0.00  0.00    +0.000 A 
ATOM      8  C   UNL     1      38.948   4.094  15.562  0.00  0.00    +0.000 A 
ATOM      9  C   UNL     1      38.751   6.495  16.330  0.00  0.00    +0.000 A 
ATOM     10  C   UNL     1      37.979   7.541  15.879  0.00  0.00    +0.000 A 
ATOM     11  N   UNL     1      37.227   7.138  14.852  0.00  0.00    +0.000 N 
ENDROOT
BRANCH   9  12
ATOM     12  C   UNL     1      39.716   6.459  17.420  0.00  0.00    +0.000 A 
ATOM     13  C   UNL     1      41.075   6.592  17.224  0.00  0.00    +0.000 A 
ATOM     14  C   UNL     1      41.944   6.547  18.322  0.00  0.00    +0.000 A 
ATOM     15  C   UNL     1      41.497   6.373  19.606  0.00  0.00    +0.000 A 
ATOM     16  C   UNL     1      40.150   6.243  19.788  0.00  0.00    +0.000 A 
ATOM     17  C   UNL     1      39.298   6.287  18.717  0.00  0.00    +0.000 A 
ENDBRANCH   9  12
BRANCH  10  18
ATOM     18  C   UNL     1      37.983   8.872  16.466  0.00  0.00    +0.000 A 
ATOM     19  C   UNL     1      38.675   9.913  15.896  0.00  0.00    +0.000 A 
ATOM     20  C   UNL     1      38.703  11.162  16.410  0.00  0.00    +0.000 A 
ATOM     21  C   UNL     1      38.023  11.446  17.552  0.00  0.00    +0.000 A 
ATOM     22  C   UNL     1      37.315  10.447  18.165  0.00  0.00    +0.000 A 
ATOM     23  C   UNL     1      37.287   9.163  17.635  0.00  0.00    +0.000 A 
ENDBRANCH  10  18
BRANCH  11  24
ATOM     24  C   UNL     1      36.282   7.880  14.071  0.00  0.00    +0.000 C 
BRANCH  24  25
ATOM     25  C   UNL     1      34.988   8.217  15.000  0.00  0.00    +0.000 C 
ATOM     26  O   UNL     1      33.993   7.703  14.000  0.00  0.00    +0.000 OA
BRANCH  25  27
ATOM     27  C   UNL     1      34.877   9.761  14.466  0.00  0.00    +0.000 C 
BRANCH  27  28
ATOM     28  N   UNL     1      33.811  10.352  15.267  0.00  0.00    +0.000 NA
ATOM     29  C   UNL     1      33.962   9.949  16.641  0.00  0.00    +0.000 C 
ATOM     30  C   UNL     1      33.325  10.983  17.575  0.00  0.00    +0.000 C 
ATOM     31  C   UNL     1      34.136  12.289  17.491  0.00  0.00    +0.000 C 
ATOM     32  C   UNL     1      34.820  12.364  16.127  0.00  0.00    +0.000 C 
ATOM     33  C   UNL     1      33.832  11.792  15.120  0.00  0.00    +0.000 C 
ENDBRANCH  27  28
ENDBRANCH  25  27
ENDBRANCH  24  25
ENDBRANCH  11  24
TORSDOF 6
ENDMDL
MODEL 10
REMARK VINA RESULT:      -6.3      2.763      6.426
REMARK  Name = 
REMARK  6 active torsions:
REMARK  status: ('A' for Active; 'I' for Inactive)
REMARK    1  A    between atoms: C_9  and  C_10
REMARK    2  A    between atoms: C_16  and  C_17
REMARK    3  A    between atoms: N_23  and  C_24
REMARK    4  A    between atoms: C_24  and  C_25
REMARK    5  A    between atoms: C_25  and  C_27
REMARK    6  A    between atoms: C_27  and  N_28
REMARK                            x       y       z     vdW  Elec       q    Type
REMARK                         _______ _______ _______ _____ _____    ______ ____
ROOT
ATOM      1  C   UNL     1      38.558  -3.338  17.877  0.00  0.00    +0.000 C 
ATOM      2  C   UNL     1      38.983  -2.616  16.650  0.00  0.00    +0.000 A 
ATOM      3  C   UNL     1      40.007  -3.139  15.888  0.00  0.00    +0.000 A 
ATOM      4  C   UNL     1      40.388  -2.451  14.749  0.00  0.00    +0.000 A 
ATOM      5  C   UNL     1      41.485  -2.940  13.864  0.00  0.00    +0.000 C 
ATOM      6  C   UNL     1      39.771  -1.275  14.376  0.00  0.00    +0.000 A 
ATOM      7  C   UNL     1      38.742  -0.788  15.179  0.00  0.00    +0.000 A 
ATOM      8  C   UNL     1      38.327  -1.447  16.332  0.00  0.00    +0.000 A 
ATOM      9  C   UNL     1      38.307   0.381  14.585  0.00  0.00    +0.000 A 
ATOM     10  C   UNL     1      39.065   0.577  13.455  0.00  0.00    +0.000 A 
ATOM     11  N   UNL     1      39.948  -0.417  13.325  0.00  0.00    +0.000 N 
ENDROOT
BRANCH   9  12
ATOM     12  C   UNL     1      37.230   1.196  15.131  0.00  0.00    +0.000 A 
ATOM     13  C   UNL     1      35.897   0.860  15.010  0.00  0.00    +0.000 A 
ATOM     14  C   UNL     1      34.916   1.693  15.560  0.00  0.00    +0.000 A 
ATOM     15  C   UNL     1      35.225   2.851  16.227  0.00  0.00    +0.000 A 
ATOM     16  C   UNL     1      36.546   3.174  16.341  0.00  0.00    +0.000 A 
ATOM     17  C   UNL     1      37.508   2.361  15.804  0.00  0.00    +0.000 A 
ENDBRANCH   9  12
BRANCH  10  18
ATOM     18  C   UNL     1      38.898   1.696  12.542  0.00  0.00    +0.000 A 
ATOM     19  C   UNL     1      38.099   1.609  11.427  0.00  0.00    +0.000 A 
ATOM     20  C   UNL     1      37.917   2.625  10.555  0.00  0.00    +0.000 A 
ATOM     21  C   UNL     1      38.541   3.816  10.756  0.00  0.00    +0.000 A 
ATOM     22  C   UNL     1      39.351   3.962  11.851  0.00  0.00    +0.000 A 
ATOM     23  C   UNL     1      39.536   2.916  12.746  0.00  0.00    +0.000 A 
ENDBRANCH  10  18
BRANCH  11  24
ATOM     24  C   UNL     1      40.937  -0.627  12.310  0.00  0.00    +0.000 C 
BRANCH  24  25
ATOM     25  C   UNL     1      42.122   0.473  12.500  0.00  0.00    +0.000 C 
ATOM     26  O   UNL     1      42.071   0.943  11.076  0.00  0.00    +0.000 OA
BRANCH  25  27
ATOM     27  C   UNL     1      43.316  -0.609  12.206  0.00  0.00    +0.000 C 
BRANCH  27  28
ATOM     28  N   UNL     1      44.375  -0.252  13.142  0.00  0.00    +0.000 NA
ATOM     29  C   UNL     1      43.818  -0.092  14.461  0.00  0.00    +0.000 C 
ATOM     30  C   UNL     1      44.886  -0.353  15.528  0.00  0.00    +0.000 C 
ATOM     31  C   UNL     1      45.277  -1.842  15.480  0.00  0.00    +0.000 C 
ATOM     32  C   UNL     1      45.026  -2.378  14.072  0.00  0.00    +0.000 C 
ATOM     33  C   UNL     1      45.413  -1.261  13.112  0.00  0.00    +0.000 C 
ENDBRANCH  27  28
ENDBRANCH  25  27
ENDBRANCH  24  25
ENDBRANCH  11  24
TORSDOF 6
ENDMDL
