MODEL 1
REMARK VINA RESULT:      -7.3      0.000      0.000
REMARK  Name = 
REMARK  11 active torsions:
REMARK  status: ('A' for Active; 'I' for Inactive)
REMARK    1  A    between atoms: C_2  and  O_3
REMARK    2  A    between atoms: O_3  and  C_4
REMARK    3  A    between atoms: C_4  and  C_5
REMARK    4  A    between atoms: C_5  and  N_6
REMARK    5  A    between atoms: N_6  and  C_7
REMARK    6  A    between atoms: N_6  and  C_12
REMARK    7  A    between atoms: C_7  and  C_8
REMARK    8  A    between atoms: C_8  and  O_9
REMARK    9  A    between atoms: O_9  and  C_10
REMARK   10  A    between atoms: C_14  and  C_15
REMARK   11  A    between atoms: C_22  and  C_23
REMARK                            x       y       z     vdW  Elec       q    Type
REMARK                         _______ _______ _______ _____ _____    ______ ____
ROOT
ATOM      1  C   UNL     1      37.213   2.709  15.269  0.00  0.00    +0.000 A 
ATOM      2  C   UNL     1      36.385   3.459  14.471  0.00  0.00    +0.000 A 
ATOM      3  C   UNL     1      36.414   4.837  14.462  0.00  0.00    +0.000 A 
ATOM      4  C   UNL     1      37.325   5.436  15.304  0.00  0.00    +0.000 A 
ATOM      5  C   UNL     1      38.154   4.646  16.104  0.00  0.00    +0.000 A 
ATOM      6  N   UNL     1      38.090   3.310  16.078  0.00  0.00    +0.000 NA
ENDROOT
BRANCH   5   7
ATOM      7  C   UNL     1      39.112   5.254  17.004  0.00  0.00    +0.000 A 
ATOM      8  C   UNL     1      38.878   5.338  18.352  0.00  0.00    +0.000 A 
ATOM      9  C   UNL     1      39.806   5.929  19.185  0.00  0.00    +0.000 A 
ATOM     10  C   UNL     1      40.963   6.433  18.683  0.00  0.00    +0.000 A 
ATOM     11  O   UNL     1      41.895   7.023  19.516  0.00  0.00    +0.000 OA
ATOM     12  C   UNL     1      41.221   6.358  17.318  0.00  0.00    +0.000 A 
ATOM     13  C   UNL     1      40.281   5.764  16.496  0.00  0.00    +0.000 A 
ATOM     14  C   UNL     1      40.575   5.693  15.033  0.00  0.00    +0.000 C 
ENDBRANCH   5   7
BRANCH   3  15
ATOM     15  C   UNL     1      35.537   5.638  13.614  0.00  0.00    +0.000 A 
ATOM     16  C   UNL     1      35.836   5.842  12.269  0.00  0.00    +0.000 A 
ATOM     17  C   UNL     1      34.949   6.626  11.519  0.00  0.00    +0.000 A 
ATOM     18  C   UNL     1      33.817   7.189  12.047  0.00  0.00    +0.000 A 
ATOM     19  C   UNL     1      33.548   6.967  13.391  0.00  0.00    +0.000 A 
ATOM     20  C   UNL     1      34.400   6.211  14.126  0.00  0.00    +0.000 A 
ENDBRANCH   3  15
BRANCH   1  21
ATOM     21  N   UNL     1      37.175   1.291  15.267  0.00  0.00    +0.000 N 
BRANCH  21  22
ATOM     22  C   UNL     1      35.988   0.574  15.668  0.00  0.00    +0.000 C 
BRANCH  22  23
ATOM     23  C   UNL     1      35.690   0.953  17.103  0.00  0.00    +0.000 C 
BRANCH  23  24
ATOM     24  O   UNL     1      36.589   0.412  17.986  0.00  0.00    +0.000 OA
BRANCH  24  26
ATOM     25  C   UNL     1      37.103  -1.403  19.419  0.00  0.00    +0.000 C 
ATOM     26  C   UNL     1      36.017  -0.477  18.901  0.00  0.00    +0.000 C 
ENDBRANCH  24  26
ENDBRANCH  23  24
ENDBRANCH  22  23
ENDBRANCH  21  22
BRANCH  21  27
ATOM     27  C   UNL     1      38.354   0.543  14.856  0.00  0.00    +0.000 C 
BRANCH  27  28
ATOM     28  C   UNL     1      38.143  -0.915  15.141  0.00  0.00    +0.000 C 
BRANCH  28  29
ATOM     29  O   UNL     1      38.960  -1.310  16.169  0.00  0.00    +0.000 OA
BRANCH  29  30
ATOM     30  C   UNL     1      39.515  -2.566  16.041  0.00  0.00    +0.000 C 
ATOM     31  C   UNL     1      38.974  -3.544  17.068  0.00  0.00    +0.000 C 
ENDBRANCH  29  30
ENDBRANCH  28  29
ENDBRANCH  27  28
ENDBRANCH  21  27
ENDBRANCH   1  21
TORSDOF 11
ENDMDL
MODEL 2
REMARK VINA RESULT:      -7.2      2.125      5.460
REMARK  Name = 
REMARK  11 active torsions:
REMARK  status: ('A' for Active; 'I' for Inactive)
REMARK    1  A    between atoms: C_2  and  O_3
REMARK    2  A    between atoms: O_3  and  C_4
REMARK    3  A    between atoms: C_4  and  C_5
REMARK    4  A    between atoms: C_5  and  N_6
REMARK    5  A    between atoms: N_6  and  C_7
REMARK    6  A    between atoms: N_6  and  C_12
REMARK    7  A    between atoms: C_7  and  C_8
REMARK    8  A    between atoms: C_8  and  O_9
REMARK    9  A    between atoms: O_9  and  C_10
REMARK   10  A    between atoms: C_14  and  C_15
REMARK   11  A    between atoms: C_22  and  C_23
REMARK                            x       y       z     vdW  Elec       q    Type
REMARK                         _______ _______ _______ _____ _____    ______ ____
ROOT
ATOM      1  C   UNL     1      36.555   2.845  15.839  0.00  0.00    +0.000 A 
ATOM      2  C   UNL     1      37.581   3.404  16.558  0.00  0.00    +0.000 A 
ATOM      3  C   UNL     1      37.983   4.711  16.383  0.00  0.00    +0.000 A 
ATOM      4  C   UNL     1      37.296   5.441  15.437  0.00  0.00    +0.000 A 
ATOM      5  C   UNL     1      36.256   4.843  14.720  0.00  0.00    +0.000 A 
ATOM      6  N   UNL     1      35.903   3.570  14.927  0.00  0.00    +0.000 NA
ENDROOT
BRANCH   5   7
ATOM      7  C   UNL     1      35.528   5.588  13.714  0.00  0.00    +0.000 A 
ATOM      8  C   UNL     1      34.393   6.293  14.024  0.00  0.00    +0.000 A 
ATOM      9  C   UNL     1      33.717   6.989  13.044  0.00  0.00    +0.000 A 
ATOM     10  C   UNL     1      34.163   6.987  11.761  0.00  0.00    +0.000 A 
ATOM     11  O   UNL     1      33.488   7.686  10.778  0.00  0.00    +0.000 OA
ATOM     12  C   UNL     1      35.313   6.279  11.425  0.00  0.00    +0.000 A 
ATOM     13  C   UNL     1      35.980   5.586  12.418  0.00  0.00    +0.000 A 
ATOM     14  C   UNL     1      37.212   4.831  12.039  0.00  0.00    +0.000 C 
ENDBRANCH   5   7
BRANCH   3  15
ATOM     15  C   UNL     1      39.072   5.311  17.147  0.00  0.00    +0.000 A 
ATOM     16  C   UNL     1      39.020   5.370  18.538  0.00  0.00    +0.000 A 
ATOM     17  C   UNL     1      40.101   5.964  19.202  0.00  0.00    +0.000 A 
ATOM     18  C   UNL     1      41.190   6.479  18.550  0.00  0.00    +0.000 A 
ATOM     19  C   UNL     1      41.210   6.406  17.164  0.00  0.00    +0.000 A 
ATOM     20  C   UNL     1      40.169   5.834  16.510  0.00  0.00    +0.000 A 
ENDBRANCH   3  15
BRANCH   1  21
ATOM     21  N   UNL     1      36.150   1.499  16.032  0.00  0.00    +0.000 N 
BRANCH  21  22
ATOM     22  C   UNL     1      35.555   1.067  17.273  0.00  0.00    +0.000 C 
BRANCH  22  23
ATOM     23  C   UNL     1      35.070  -0.354  17.075  0.00  0.00    +0.000 C 
BRANCH  23  24
ATOM     24  O   UNL     1      35.841  -1.270  17.743  0.00  0.00    +0.000 OA
BRANCH  24  26
ATOM     25  C   UNL     1      37.246  -1.855  19.559  0.00  0.00    +0.000 C 
ATOM     26  C   UNL     1      36.591  -0.722  18.788  0.00  0.00    +0.000 C 
ENDBRANCH  24  26
ENDBRANCH  23  24
ENDBRANCH  22  23
ENDBRANCH  21  22
BRANCH  21  27
ATOM     27  C   UNL     1      36.342   0.532  14.960  0.00  0.00    +0.000 C 
BRANCH  27  28
ATOM     28  C   UNL     1      37.809   0.373  14.689  0.00  0.00    +0.000 C 
BRANCH  28  29
ATOM     29  O   UNL     1      38.411  -0.254  15.750  0.00  0.00    +0.000 OA
BRANCH  29  30
ATOM     30  C   UNL     1      39.259  -1.293  15.426  0.00  0.00    +0.000 C 
ATOM     31  C   UNL     1      39.130  -2.463  16.383  0.00  0.00    +0.000 C 
ENDBRANCH  29  30
ENDBRANCH  28  29
ENDBRANCH  27  28
ENDBRANCH  21  27
ENDBRANCH   1  21
TORSDOF 11
ENDMDL
MODEL 3
REMARK VINA RESULT:      -7.1      2.062      5.830
REMARK  Name = 
REMARK  11 active torsions:
REMARK  status: ('A' for Active; 'I' for Inactive)
REMARK    1  A    between atoms: C_2  and  O_3
REMARK    2  A    between atoms: O_3  and  C_4
REMARK    3  A    between atoms: C_4  and  C_5
REMARK    4  A    between atoms: C_5  and  N_6
REMARK    5  A    between atoms: N_6  and  C_7
REMARK    6  A    between atoms: N_6  and  C_12
REMARK    7  A    between atoms: C_7  and  C_8
REMARK    8  A    between atoms: C_8  and  O_9
REMARK    9  A    between atoms: O_9  and  C_10
REMARK   10  A    between atoms: C_14  and  C_15
REMARK   11  A    between atoms: C_22  and  C_23
REMARK                            x       y       z     vdW  Elec       q    Type
REMARK                         _______ _______ _______ _____ _____    ______ ____
ROOT
ATOM      1  C   UNL     1      37.023   2.694  15.358  0.00  0.00    +0.000 A 
ATOM      2  C   UNL     1      37.962   3.285  16.167  0.00  0.00    +0.000 A 
ATOM      3  C   UNL     1      38.185   4.645  16.171  0.00  0.00    +0.000 A 
ATOM      4  C   UNL     1      37.411   5.396  15.313  0.00  0.00    +0.000 A 
ATOM      5  C   UNL     1      36.463   4.765  14.502  0.00  0.00    +0.000 A 
ATOM      6  N   UNL     1      36.283   3.440  14.534  0.00  0.00    +0.000 NA
ENDROOT
BRANCH   5   7
ATOM      7  C   UNL     1      35.646   5.532  13.586  0.00  0.00    +0.000 A 
ATOM      8  C   UNL     1      34.500   6.160  14.000  0.00  0.00    +0.000 A 
ATOM      9  C   UNL     1      33.737   6.880  13.104  0.00  0.00    +0.000 A 
ATOM     10  C   UNL     1      34.110   6.978  11.801  0.00  0.00    +0.000 A 
ATOM     11  O   UNL     1      33.349   7.701  10.902  0.00  0.00    +0.000 OA
ATOM     12  C   UNL     1      35.269   6.349  11.361  0.00  0.00    +0.000 A 
ATOM     13  C   UNL     1      36.023   5.631  12.270  0.00  0.00    +0.000 A 
ATOM     14  C   UNL     1      37.265   4.961  11.778  0.00  0.00    +0.000 C 
ENDBRANCH   5   7
BRANCH   3  15
ATOM     15  C   UNL     1      39.181   5.278  17.030  0.00  0.00    +0.000 A 
ATOM     16  C   UNL     1      39.001   5.334  18.411  0.00  0.00    +0.000 A 
ATOM     17  C   UNL     1      39.998   5.961  19.169  0.00  0.00    +0.000 A 
ATOM     18  C   UNL     1      41.125   6.511  18.618  0.00  0.00    +0.000 A 
ATOM     19  C   UNL     1      41.273   6.440  17.239  0.00  0.00    +0.000 A 
ATOM     20  C   UNL     1      40.315   5.836  16.495  0.00  0.00    +0.000 A 
ENDBRANCH   3  15
BRANCH   1  21
ATOM     21  N   UNL     1      36.802   1.293  15.366  0.00  0.00    +0.000 N 
BRANCH  21  22
ATOM     22  C   UNL     1      37.829   0.371  14.945  0.00  0.00    +0.000 C 
BRANCH  22  23
ATOM     23  C   UNL     1      37.162  -0.962  14.676  0.00  0.00    +0.000 C 
BRANCH  23  24
ATOM     24  O   UNL     1      37.742  -1.989  15.375  0.00  0.00    +0.000 OA
BRANCH  24  26
ATOM     25  C   UNL     1      39.999  -2.697  15.505  0.00  0.00    +0.000 C 
ATOM     26  C   UNL     1      38.978  -1.661  15.941  0.00  0.00    +0.000 C 
ENDBRANCH  24  26
ENDBRANCH  23  24
ENDBRANCH  22  23
ENDBRANCH  21  22
BRANCH  21  27
ATOM     27  C   UNL     1      35.515   0.772  15.803  0.00  0.00    +0.000 C 
BRANCH  27  28
ATOM     28  C   UNL     1      35.309   1.104  17.251  0.00  0.00    +0.000 C 
BRANCH  28  29
ATOM     29  O   UNL     1      36.382   0.667  17.985  0.00  0.00    +0.000 OA
BRANCH  29  30
ATOM     30  C   UNL     1      36.083  -0.169  19.040  0.00  0.00    +0.000 C 
ATOM     31  C   UNL     1      36.884  -1.458  19.001  0.00  0.00    +0.000 C 
ENDBRANCH  29  30
ENDBRANCH  28  29
ENDBRANCH  27  28
ENDBRANCH  21  27
ENDBRANCH   1  21
TORSDOF 11
ENDMDL
MODEL 4
REMARK VINA RESULT:      -6.8      2.746      7.196
REMARK  Name = 
REMARK  11 active torsions:
REMARK  status: ('A' for Active; 'I' for Inactive)
REMARK    1  A    between atoms: C_2  and  O_3
REMARK    2  A    between atoms: O_3  and  C_4
REMARK    3  A    between atoms: C_4  and  C_5
REMARK    4  A    between atoms: C_5  and  N_6
REMARK    5  A    between atoms: N_6  and  C_7
REMARK    6  A    between atoms: N_6  and  C_12
REMARK    7  A    between atoms: C_7  and  C_8
REMARK    8  A    between atoms: C_8  and  O_9
REMARK    9  A    between atoms: O_9  and  C_10
REMARK   10  A    between atoms: C_14  and  C_15
REMARK   11  A    between atoms: C_22  and  C_23
REMARK                            x       y       z     vdW  Elec       q    Type
REMARK                         _______ _______ _______ _____ _____    ______ ____
ROOT
ATOM      1  C   UNL     1      36.414   5.030  14.717  0.00  0.00    +0.000 A 
ATOM      2  C   UNL     1      37.434   5.569  15.462  0.00  0.00    +0.000 A 
ATOM      3  C   UNL     1      38.080   4.863  16.453  0.00  0.00    +0.000 A 
ATOM      4  C   UNL     1      37.650   3.571  16.665  0.00  0.00    +0.000 A 
ATOM      5  C   UNL     1      36.610   3.051  15.891  0.00  0.00    +0.000 A 
ATOM      6  N   UNL     1      36.012   3.776  14.940  0.00  0.00    +0.000 NA
ENDROOT
BRANCH   5   7
ATOM      7  C   UNL     1      36.134   1.700  16.104  0.00  0.00    +0.000 A 
ATOM      8  C   UNL     1      35.055   1.437  16.908  0.00  0.00    +0.000 A 
ATOM      9  C   UNL     1      34.627   0.139  17.098  0.00  0.00    +0.000 A 
ATOM     10  C   UNL     1      35.265  -0.895  16.491  0.00  0.00    +0.000 A 
ATOM     11  O   UNL     1      34.837  -2.195  16.677  0.00  0.00    +0.000 OA
ATOM     12  C   UNL     1      36.362  -0.650  15.671  0.00  0.00    +0.000 A 
ATOM     13  C   UNL     1      36.780   0.656  15.491  0.00  0.00    +0.000 A 
ATOM     14  C   UNL     1      37.960   0.899  14.608  0.00  0.00    +0.000 C 
ENDBRANCH   5   7
BRANCH   3  15
ATOM     15  C   UNL     1      39.167   5.431  17.246  0.00  0.00    +0.000 A 
ATOM     16  C   UNL     1      40.345   5.861  16.639  0.00  0.00    +0.000 A 
ATOM     17  C   UNL     1      41.343   6.391  17.466  0.00  0.00    +0.000 A 
ATOM     18  C   UNL     1      41.210   6.504  18.824  0.00  0.00    +0.000 A 
ATOM     19  C   UNL     1      40.025   6.065  19.398  0.00  0.00    +0.000 A 
ATOM     20  C   UNL     1      39.051   5.550  18.608  0.00  0.00    +0.000 A 
ENDBRANCH   3  15
BRANCH   1  21
ATOM     21  N   UNL     1      35.759   5.768  13.699  0.00  0.00    +0.000 N 
BRANCH  21  22
ATOM     22  C   UNL     1      34.385   6.186  13.843  0.00  0.00    +0.000 C 
BRANCH  22  23
ATOM     23  C   UNL     1      34.387   7.679  14.092  0.00  0.00    +0.000 C 
BRANCH  23  24
ATOM     24  O   UNL     1      33.443   8.060  15.011  0.00  0.00    +0.000 OA
BRANCH  24  26
ATOM     25  C   UNL     1      33.055   9.203  17.050  0.00  0.00    +0.000 C 
ATOM     26  C   UNL     1      33.773   9.223  15.712  0.00  0.00    +0.000 C 
ENDBRANCH  24  26
ENDBRANCH  23  24
ENDBRANCH  22  23
ENDBRANCH  21  22
BRANCH  21  27
ATOM     27  C   UNL     1      36.482   6.109  12.482  0.00  0.00    +0.000 C 
BRANCH  27  28
ATOM     28  C   UNL     1      36.789   4.856  11.717  0.00  0.00    +0.000 C 
BRANCH  28  29
ATOM     29  O   UNL     1      38.147   4.699  11.609  0.00  0.00    +0.000 OA
BRANCH  29  30
ATOM     30  C   UNL     1      38.669   3.578  12.221  0.00  0.00    +0.000 C 
ATOM     31  C   UNL     1      39.780   3.918  13.197  0.00  0.00    +0.000 C 
ENDBRANCH  29  30
ENDBRANCH  28  29
ENDBRANCH  27  28
ENDBRANCH  21  27
ENDBRANCH   1  21
TORSDOF 11
ENDMDL
MODEL 5
REMARK VINA RESULT:      -6.7      2.353      5.974
REMARK  Name = 
REMARK  11 active torsions:
REMARK  status: ('A' for Active; 'I' for Inactive)
REMARK    1  A    between atoms: C_2  and  O_3
REMARK    2  A    between atoms: O_3  and  C_4
REMARK    3  A    between atoms: C_4  and  C_5
REMARK    4  A    between atoms: C_5  and  N_6
REMARK    5  A    between atoms: N_6  and  C_7
REMARK    6  A    between atoms: N_6  and  C_12
REMARK    7  A    between atoms: C_7  and  C_8
REMARK    8  A    between atoms: C_8  and  O_9
REMARK    9  A    between atoms: O_9  and  C_10
REMARK   10  A    between atoms: C_14  and  C_15
REMARK   11  A    between atoms: C_22  and  C_23
REMARK                            x       y       z     vdW  Elec       q    Type
REMARK                         _______ _______ _______ _____ _____    ______ ____
ROOT
ATOM      1  C   UNL     1      36.808   2.783  15.510  0.00  0.00    +0.000 A 
ATOM      2  C   UNL     1      37.790   3.358  16.277  0.00  0.00    +0.000 A 
ATOM      3  C   UNL     1      38.092   4.701  16.208  0.00  0.00    +0.000 A 
ATOM      4  C   UNL     1      37.352   5.451  15.320  0.00  0.00    +0.000 A 
ATOM      5  C   UNL     1      36.359   4.836  14.553  0.00  0.00    +0.000 A 
ATOM      6  N   UNL     1      36.102   3.527  14.656  0.00  0.00    +0.000 NA
ENDROOT
BRANCH   5   7
ATOM      7  C   UNL     1      35.576   5.602  13.606  0.00  0.00    +0.000 A 
ATOM      8  C   UNL     1      34.440   6.268  13.987  0.00  0.00    +0.000 A 
ATOM      9  C   UNL     1      33.710   6.986  13.062  0.00  0.00    +0.000 A 
ATOM     10  C   UNL     1      34.105   7.043  11.763  0.00  0.00    +0.000 A 
ATOM     11  O   UNL     1      33.377   7.763  10.835  0.00  0.00    +0.000 OA
ATOM     12  C   UNL     1      35.255   6.375  11.356  0.00  0.00    +0.000 A 
ATOM     13  C   UNL     1      35.976   5.659  12.294  0.00  0.00    +0.000 A 
ATOM     14  C   UNL     1      37.207   4.947  11.838  0.00  0.00    +0.000 C 
ENDBRANCH   5   7
BRANCH   3  15
ATOM     15  C   UNL     1      39.134   5.319  17.023  0.00  0.00    +0.000 A 
ATOM     16  C   UNL     1      40.286   5.839  16.437  0.00  0.00    +0.000 A 
ATOM     17  C   UNL     1      41.242   6.412  17.285  0.00  0.00    +0.000 A 
ATOM     18  C   UNL     1      41.093   6.482  18.644  0.00  0.00    +0.000 A 
ATOM     19  C   UNL     1      39.934   5.954  19.198  0.00  0.00    +0.000 A 
ATOM     20  C   UNL     1      39.002   5.396  18.387  0.00  0.00    +0.000 A 
ENDBRANCH   3  15
BRANCH   1  21
ATOM     21  N   UNL     1      36.507   1.399  15.593  0.00  0.00    +0.000 N 
BRANCH  21  22
ATOM     22  C   UNL     1      37.385   0.406  15.023  0.00  0.00    +0.000 C 
BRANCH  22  23
ATOM     23  C   UNL     1      37.089   0.333  13.540  0.00  0.00    +0.000 C 
BRANCH  23  24
ATOM     24  O   UNL     1      37.868   1.191  12.807  0.00  0.00    +0.000 OA
BRANCH  24  26
ATOM     25  C   UNL     1      39.744   2.576  13.226  0.00  0.00    +0.000 C 
ATOM     26  C   UNL     1      39.224   1.151  13.145  0.00  0.00    +0.000 C 
ENDBRANCH  24  26
ENDBRANCH  23  24
ENDBRANCH  22  23
ENDBRANCH  21  22
BRANCH  21  27
ATOM     27  C   UNL     1      35.287   0.970  16.262  0.00  0.00    +0.000 C 
BRANCH  27  28
ATOM     28  C   UNL     1      35.638   0.301  17.557  0.00  0.00    +0.000 C 
BRANCH  28  29
ATOM     29  O   UNL     1      35.357  -1.039  17.479  0.00  0.00    +0.000 OA
BRANCH  29  30
ATOM     30  C   UNL     1      36.268  -1.876  18.090  0.00  0.00    +0.000 C 
ATOM     31  C   UNL     1      37.052  -1.175  19.184  0.00  0.00    +0.000 C 
ENDBRANCH  29  30
ENDBRANCH  28  29
ENDBRANCH  27  28
ENDBRANCH  21  27
ENDBRANCH   1  21
TORSDOF 11
ENDMDL
MODEL 6
REMARK VINA RESULT:      -6.7      3.965      6.683
REMARK  Name = 
REMARK  11 active torsions:
REMARK  status: ('A' for Active; 'I' for Inactive)
REMARK    1  A    between atoms: C_2  and  O_3
REMARK    2  A    between atoms: O_3  and  C_4
REMARK    3  A    between atoms: C_4  and  C_5
REMARK    4  A    between atoms: C_5  and  N_6
REMARK    5  A    between atoms: N_6  and  C_7
REMARK    6  A    between atoms: N_6  and  C_12
REMARK    7  A    between atoms: C_7  and  C_8
REMARK    8  A    between atoms: C_8  and  O_9
REMARK    9  A    between atoms: O_9  and  C_10
REMARK   10  A    between atoms: C_14  and  C_15
REMARK   11  A    between atoms: C_22  and  C_23
REMARK                            x       y       z     vdW  Elec       q    Type
REMARK                         _______ _______ _______ _____ _____    ______ ____
ROOT
ATOM      1  C   UNL     1      37.851  -1.781  15.686  0.00  0.00    +0.000 A 
ATOM      2  C   UNL     1      37.135  -0.610  15.656  0.00  0.00    +0.000 A 
ATOM      3  C   UNL     1      37.290   0.327  14.658  0.00  0.00    +0.000 A 
ATOM      4  C   UNL     1      38.210   0.030  13.676  0.00  0.00    +0.000 A 
ATOM      5  C   UNL     1      38.923  -1.170  13.735  0.00  0.00    +0.000 A 
ATOM      6  N   UNL     1      38.738  -2.049  14.725  0.00  0.00    +0.000 NA
ENDROOT
BRANCH   5   7
ATOM      7  C   UNL     1      39.903  -1.498  12.720  0.00  0.00    +0.000 A 
ATOM      8  C   UNL     1      39.588  -2.294  11.649  0.00  0.00    +0.000 A 
ATOM      9  C   UNL     1      40.544  -2.595  10.700  0.00  0.00    +0.000 A 
ATOM     10  C   UNL     1      41.807  -2.108  10.812  0.00  0.00    +0.000 A 
ATOM     11  O   UNL     1      42.764  -2.406   9.861  0.00  0.00    +0.000 OA
ATOM     12  C   UNL     1      42.147  -1.297  11.890  0.00  0.00    +0.000 A 
ATOM     13  C   UNL     1      41.179  -1.005  12.833  0.00  0.00    +0.000 A 
ATOM     14  C   UNL     1      41.563  -0.134  13.985  0.00  0.00    +0.000 C 
ENDBRANCH   5   7
BRANCH   3  15
ATOM     15  C   UNL     1      36.529   1.572  14.620  0.00  0.00    +0.000 A 
ATOM     16  C   UNL     1      36.926   2.627  13.800  0.00  0.00    +0.000 A 
ATOM     17  C   UNL     1      36.148   3.792  13.821  0.00  0.00    +0.000 A 
ATOM     18  C   UNL     1      35.030   3.933  14.600  0.00  0.00    +0.000 A 
ATOM     19  C   UNL     1      34.662   2.864  15.406  0.00  0.00    +0.000 A 
ATOM     20  C   UNL     1      35.408   1.732  15.394  0.00  0.00    +0.000 A 
ENDBRANCH   3  15
BRANCH   1  21
ATOM     21  N   UNL     1      37.680  -2.738  16.720  0.00  0.00    +0.000 N 
BRANCH  21  22
ATOM     22  C   UNL     1      36.470  -3.518  16.825  0.00  0.00    +0.000 C 
BRANCH  22  23
ATOM     23  C   UNL     1      36.698  -4.814  16.077  0.00  0.00    +0.000 C 
BRANCH  23  24
ATOM     24  O   UNL     1      35.585  -5.226  15.389  0.00  0.00    +0.000 OA
BRANCH  24  26
ATOM     25  C   UNL     1      33.598  -4.695  14.213  0.00  0.00    +0.000 C 
ATOM     26  C   UNL     1      34.968  -4.210  14.652  0.00  0.00    +0.000 C 
ENDBRANCH  24  26
ENDBRANCH  23  24
ENDBRANCH  22  23
ENDBRANCH  21  22
BRANCH  21  27
ATOM     27  C   UNL     1      38.742  -2.936  17.696  0.00  0.00    +0.000 C 
BRANCH  27  28
ATOM     28  C   UNL     1      38.232  -2.590  19.063  0.00  0.00    +0.000 C 
BRANCH  28  29
ATOM     29  O   UNL     1      37.922  -1.255  19.119  0.00  0.00    +0.000 OA
BRANCH  29  30
ATOM     30  C   UNL     1      36.623  -0.959  19.475  0.00  0.00    +0.000 C 
ATOM     31  C   UNL     1      36.173   0.392  18.948  0.00  0.00    +0.000 C 
ENDBRANCH  29  30
ENDBRANCH  28  29
ENDBRANCH  27  28
ENDBRANCH  21  27
ENDBRANCH   1  21
TORSDOF 11
ENDMDL
MODEL 7
REMARK VINA RESULT:      -6.6      2.881      7.965
REMARK  Name = 
REMARK  11 active torsions:
REMARK  status: ('A' for Active; 'I' for Inactive)
REMARK    1  A    between atoms: C_2  and  O_3
REMARK    2  A    between atoms: O_3  and  C_4
REMARK    3  A    between atoms: C_4  and  C_5
REMARK    4  A    between atoms: C_5  and  N_6
REMARK    5  A    between atoms: N_6  and  C_7
REMARK    6  A    between atoms: N_6  and  C_12
REMARK    7  A    between atoms: C_7  and  C_8
REMARK    8  A    between atoms: C_8  and  O_9
REMARK    9  A    between atoms: O_9  and  C_10
REMARK   10  A    between atoms: C_14  and  C_15
REMARK   11  A    between atoms: C_22  and  C_23
REMARK                            x       y       z     vdW  Elec       q    Type
REMARK                         _______ _______ _______ _____ _____    ______ ____
ROOT
ATOM      1  C   UNL     1      37.947   1.252  14.757  0.00  0.00    +0.000 A 
ATOM      2  C   UNL     1      39.277   1.326  14.426  0.00  0.00    +0.000 A 
ATOM      3  C   UNL     1      40.087   0.213  14.358  0.00  0.00    +0.000 A 
ATOM      4  C   UNL     1      39.491  -0.996  14.643  0.00  0.00    +0.000 A 
ATOM      5  C   UNL     1      38.135  -1.039  14.977  0.00  0.00    +0.000 A 
ATOM      6  N   UNL     1      37.389   0.069  15.029  0.00  0.00    +0.000 NA
ENDROOT
BRANCH   5   7
ATOM      7  C   UNL     1      37.490  -2.298  15.290  0.00  0.00    +0.000 A 
ATOM      8  C   UNL     1      36.775  -2.992  14.348  0.00  0.00    +0.000 A 
ATOM      9  C   UNL     1      36.167  -4.186  14.676  0.00  0.00    +0.000 A 
ATOM     10  C   UNL     1      36.267  -4.691  15.933  0.00  0.00    +0.000 A 
ATOM     11  O   UNL     1      35.661  -5.888  16.263  0.00  0.00    +0.000 OA
ATOM     12  C   UNL     1      36.989  -4.003  16.903  0.00  0.00    +0.000 A 
ATOM     13  C   UNL     1      37.593  -2.807  16.560  0.00  0.00    +0.000 A 
ATOM     14  C   UNL     1      38.362  -2.082  17.616  0.00  0.00    +0.000 C 
ENDBRANCH   5   7
BRANCH   3  15
ATOM     15  C   UNL     1      41.501   0.287  14.004  0.00  0.00    +0.000 A 
ATOM     16  C   UNL     1      42.402  -0.675  14.457  0.00  0.00    +0.000 A 
ATOM     17  C   UNL     1      43.743  -0.535  14.079  0.00  0.00    +0.000 A 
ATOM     18  C   UNL     1      44.198   0.492  13.294  0.00  0.00    +0.000 A 
ATOM     19  C   UNL     1      43.275   1.434  12.861  0.00  0.00    +0.000 A 
ATOM     20  C   UNL     1      41.974   1.309  13.221  0.00  0.00    +0.000 A 
ENDBRANCH   3  15
BRANCH   1  21
ATOM     21  N   UNL     1      37.124   2.406  14.820  0.00  0.00    +0.000 N 
BRANCH  21  22
ATOM     22  C   UNL     1      35.705   2.301  15.063  0.00  0.00    +0.000 C 
BRANCH  22  23
ATOM     23  C   UNL     1      35.498   2.309  16.563  0.00  0.00    +0.000 C 
BRANCH  23  24
ATOM     24  O   UNL     1      34.600   1.358  16.974  0.00  0.00    +0.000 OA
BRANCH  24  26
ATOM     25  C   UNL     1      34.483  -0.997  17.214  0.00  0.00    +0.000 C 
ATOM     26  C   UNL     1      35.186   0.279  17.643  0.00  0.00    +0.000 C 
ENDBRANCH  24  26
ENDBRANCH  23  24
ENDBRANCH  22  23
ENDBRANCH  21  22
BRANCH  21  27
ATOM     27  C   UNL     1      37.719   3.721  14.635  0.00  0.00    +0.000 C 
BRANCH  27  28
ATOM     28  C   UNL     1      37.631   4.494  15.917  0.00  0.00    +0.000 C 
BRANCH  28  29
ATOM     29  O   UNL     1      38.614   4.078  16.778  0.00  0.00    +0.000 OA
BRANCH  29  30
ATOM     30  C   UNL     1      38.409   4.380  18.109  0.00  0.00    +0.000 C 
ATOM     31  C   UNL     1      39.308   5.504  18.590  0.00  0.00    +0.000 C 
ENDBRANCH  29  30
ENDBRANCH  28  29
ENDBRANCH  27  28
ENDBRANCH  21  27
ENDBRANCH   1  21
TORSDOF 11
ENDMDL
MODEL 8
REMARK VINA RESULT:      -6.5      3.400      8.168
REMARK  Name = 
REMARK  11 active torsions:
REMARK  status: ('A' for Active; 'I' for Inactive)
REMARK    1  A    between atoms: C_2  and  O_3
REMARK    2  A    between atoms: O_3  and  C_4
REMARK    3  A    between atoms: C_4  and  C_5
REMARK    4  A    between atoms: C_5  and  N_6
REMARK    5  A    between atoms: N_6  and  C_7
REMARK    6  A    between atoms: N_6  and  C_12
REMARK    7  A    between atoms: C_7  and  C_8
REMARK    8  A    between atoms: C_8  and  O_9
REMARK    9  A    between atoms: O_9  and  C_10
REMARK   10  A    between atoms: C_14  and  C_15
REMARK   11  A    between atoms: C_22  and  C_23
REMARK                            x       y       z     vdW  Elec       q    Type
REMARK                         _______ _______ _______ _____ _____    ______ ____
ROOT
ATOM      1  C   UNL     1      36.556  -0.420  15.307  0.00  0.00    +0.000 A 
ATOM      2  C   UNL     1      35.825  -1.572  15.463  0.00  0.00    +0.000 A 
ATOM      3  C   UNL     1      36.264  -2.795  15.004  0.00  0.00    +0.000 A 
ATOM      4  C   UNL     1      37.488  -2.809  14.372  0.00  0.00    +0.000 A 
ATOM      5  C   UNL     1      38.208  -1.620  14.227  0.00  0.00    +0.000 A 
ATOM      6  N   UNL     1      37.740  -0.456  14.690  0.00  0.00    +0.000 NA
ENDROOT
BRANCH   5   7
ATOM      7  C   UNL     1      39.491  -1.609  13.556  0.00  0.00    +0.000 A 
ATOM      8  C   UNL     1      39.654  -1.021  12.328  0.00  0.00    +0.000 A 
ATOM      9  C   UNL     1      40.887  -1.031  11.710  0.00  0.00    +0.000 A 
ATOM     10  C   UNL     1      41.955  -1.620  12.306  0.00  0.00    +0.000 A 
ATOM     11  O   UNL     1      43.192  -1.629  11.690  0.00  0.00    +0.000 OA
ATOM     12  C   UNL     1      41.812  -2.222  13.552  0.00  0.00    +0.000 A 
ATOM     13  C   UNL     1      40.570  -2.205  14.160  0.00  0.00    +0.000 A 
ATOM     14  C   UNL     1      40.434  -2.858  15.497  0.00  0.00    +0.000 C 
ENDBRANCH   5   7
BRANCH   3  15
ATOM     15  C   UNL     1      35.492  -4.023  15.171  0.00  0.00    +0.000 A 
ATOM     16  C   UNL     1      34.240  -4.166  14.576  0.00  0.00    +0.000 A 
ATOM     17  C   UNL     1      33.558  -5.371  14.784  0.00  0.00    +0.000 A 
ATOM     18  C   UNL     1      34.064  -6.399  15.534  0.00  0.00    +0.000 A 
ATOM     19  C   UNL     1      35.314  -6.225  16.114  0.00  0.00    +0.000 A 
ATOM     20  C   UNL     1      35.983  -5.062  15.920  0.00  0.00    +0.000 A 
ENDBRANCH   3  15
BRANCH   1  21
ATOM     21  N   UNL     1      36.093   0.832  15.786  0.00  0.00    +0.000 N 
BRANCH  21  22
ATOM     22  C   UNL     1      36.412   1.289  17.117  0.00  0.00    +0.000 C 
BRANCH  22  23
ATOM     23  C   UNL     1      36.015   0.192  18.082  0.00  0.00    +0.000 C 
BRANCH  23  24
ATOM     24  O   UNL     1      37.030  -0.146  18.939  0.00  0.00    +0.000 OA
BRANCH  24  26
ATOM     25  C   UNL     1      38.138  -2.138  18.291  0.00  0.00    +0.000 C 
ATOM     26  C   UNL     1      37.106  -1.515  19.214  0.00  0.00    +0.000 C 
ENDBRANCH  24  26
ENDBRANCH  23  24
ENDBRANCH  22  23
ENDBRANCH  21  22
BRANCH  21  27
ATOM     27  C   UNL     1      35.277   1.673  14.922  0.00  0.00    +0.000 C 
BRANCH  27  28
ATOM     28  C   UNL     1      34.663   2.774  15.734  0.00  0.00    +0.000 C 
BRANCH  28  29
ATOM     29  O   UNL     1      34.592   3.920  14.984  0.00  0.00    +0.000 OA
BRANCH  29  30
ATOM     30  C   UNL     1      35.644   4.132  14.117  0.00  0.00    +0.000 C 
ATOM     31  C   UNL     1      36.446   5.370  14.475  0.00  0.00    +0.000 C 
ENDBRANCH  29  30
ENDBRANCH  28  29
ENDBRANCH  27  28
ENDBRANCH  21  27
ENDBRANCH   1  21
TORSDOF 11
ENDMDL
MODEL 9
REMARK VINA RESULT:      -6.5      3.997      6.736
REMARK  Name = 
REMARK  11 active torsions:
REMARK  status: ('A' for Active; 'I' for Inactive)
REMARK    1  A    between atoms: C_2  and  O_3
REMARK    2  A    between atoms: O_3  and  C_4
REMARK    3  A    between atoms: C_4  and  C_5
REMARK    4  A    between atoms: C_5  and  N_6
REMARK    5  A    between atoms: N_6  and  C_7
REMARK    6  A    between atoms: N_6  and  C_12
REMARK    7  A    between atoms: C_7  and  C_8
REMARK    8  A    between atoms: C_8  and  O_9
REMARK    9  A    between atoms: O_9  and  C_10
REMARK   10  A    between atoms: C_14  and  C_15
REMARK   11  A    between atoms: C_22  and  C_23
REMARK                            x       y       z     vdW  Elec       q    Type
REMARK                         _______ _______ _______ _____ _____    ______ ____
ROOT
ATOM      1  C   UNL     1      39.050  -2.236  16.284  0.00  0.00    +0.000 A 
ATOM      2  C   UNL     1      38.306  -1.137  15.934  0.00  0.00    +0.000 A 
ATOM      3  C   UNL     1      38.716  -0.241  14.970  0.00  0.00    +0.000 A 
ATOM      4  C   UNL     1      39.925  -0.504  14.364  0.00  0.00    +0.000 A 
ATOM      5  C   UNL     1      40.660  -1.631  14.743  0.00  0.00    +0.000 A 
ATOM      6  N   UNL     1      40.219  -2.472  15.685  0.00  0.00    +0.000 NA
ENDROOT
BRANCH   5   7
ATOM      7  C   UNL     1      41.938  -1.922  14.128  0.00  0.00    +0.000 A 
ATOM      8  C   UNL     1      43.111  -1.432  14.644  0.00  0.00    +0.000 A 
ATOM      9  C   UNL     1      44.314  -1.720  14.034  0.00  0.00    +0.000 A 
ATOM     10  C   UNL     1      44.356  -2.492  12.917  0.00  0.00    +0.000 A 
ATOM     11  O   UNL     1      45.560  -2.784  12.306  0.00  0.00    +0.000 OA
ATOM     12  C   UNL     1      43.178  -2.999  12.378  0.00  0.00    +0.000 A 
ATOM     13  C   UNL     1      41.980  -2.701  12.999  0.00  0.00    +0.000 A 
ATOM     14  C   UNL     1      40.725  -3.254  12.405  0.00  0.00    +0.000 C 
ENDBRANCH   5   7
BRANCH   3  15
ATOM     15  C   UNL     1      37.927   0.927  14.592  0.00  0.00    +0.000 A 
ATOM     16  C   UNL     1      38.538   2.057  14.053  0.00  0.00    +0.000 A 
ATOM     17  C   UNL     1      37.716   3.141  13.719  0.00  0.00    +0.000 A 
ATOM     18  C   UNL     1      36.358   3.134  13.895  0.00  0.00    +0.000 A 
ATOM     19  C   UNL     1      35.780   1.993  14.436  0.00  0.00    +0.000 A 
ATOM     20  C   UNL     1      36.566   0.939  14.764  0.00  0.00    +0.000 A 
ENDBRANCH   3  15
BRANCH   1  21
ATOM     21  N   UNL     1      38.614  -3.150  17.277  0.00  0.00    +0.000 N 
BRANCH  21  22
ATOM     22  C   UNL     1      38.549  -2.771  18.668  0.00  0.00    +0.000 C 
BRANCH  22  23
ATOM     23  C   UNL     1      37.225  -2.070  18.887  0.00  0.00    +0.000 C 
BRANCH  23  24
ATOM     24  O   UNL     1      37.375  -0.731  19.143  0.00  0.00    +0.000 OA
BRANCH  24  26
ATOM     25  C   UNL     1      35.248  -0.830  18.104  0.00  0.00    +0.000 C 
ATOM     26  C   UNL     1      36.228   0.026  18.886  0.00  0.00    +0.000 C 
ENDBRANCH  24  26
ENDBRANCH  23  24
ENDBRANCH  22  23
ENDBRANCH  21  22
BRANCH  21  27
ATOM     27  C   UNL     1      38.228  -4.500  16.890  0.00  0.00    +0.000 C 
BRANCH  27  28
ATOM     28  C   UNL     1      37.101  -4.431  15.902  0.00  0.00    +0.000 C 
BRANCH  28  29
ATOM     29  O   UNL     1      36.062  -5.218  16.329  0.00  0.00    +0.000 OA
BRANCH  29  30
ATOM     30  C   UNL     1      35.018  -5.361  15.439  0.00  0.00    +0.000 C 
ATOM     31  C   UNL     1      34.581  -4.036  14.843  0.00  0.00    +0.000 C 
ENDBRANCH  29  30
ENDBRANCH  28  29
ENDBRANCH  27  28
ENDBRANCH  21  27
ENDBRANCH   1  21
TORSDOF 11
ENDMDL
MODEL 10
REMARK VINA RESULT:      -6.3     25.028     28.026
REMARK  Name = 
REMARK  11 active torsions:
REMARK  status: ('A' for Active; 'I' for Inactive)
REMARK    1  A    between atoms: C_2  and  O_3
REMARK    2  A    between atoms: O_3  and  C_4
REMARK    3  A    between atoms: C_4  and  C_5
REMARK    4  A    between atoms: C_5  and  N_6
REMARK    5  A    between atoms: N_6  and  C_7
REMARK    6  A    between atoms: N_6  and  C_12
REMARK    7  A    between atoms: C_7  and  C_8
REMARK    8  A    between atoms: C_8  and  O_9
REMARK    9  A    between atoms: O_9  and  C_10
REMARK   10  A    between atoms: C_14  and  C_15
REMARK   11  A    between atoms: C_22  and  C_23
REMARK                            x       y       z     vdW  Elec       q    Type
REMARK                         _______ _______ _______ _____ _____    ______ ____
ROOT
ATOM      1  C   UNL     1      13.825   0.210  29.223  0.00  0.00    +0.000 A 
ATOM      2  C   UNL     1      15.011   0.076  28.545  0.00  0.00    +0.000 A 
ATOM      3  C   UNL     1      15.102   0.217  27.177  0.00  0.00    +0.000 A 
ATOM      4  C   UNL     1      13.930   0.503  26.512  0.00  0.00    +0.000 A 
ATOM      5  C   UNL     1      12.738   0.633  27.230  0.00  0.00    +0.000 A 
ATOM      6  N   UNL     1      12.700   0.487  28.559  0.00  0.00    +0.000 NA
ENDROOT
BRANCH   5   7
ATOM      7  C   UNL     1      11.493   0.922  26.550  0.00  0.00    +0.000 A 
ATOM      8  C   UNL     1      10.712  -0.076  26.026  0.00  0.00    +0.000 A 
ATOM      9  C   UNL     1       9.533   0.229  25.378  0.00  0.00    +0.000 A 
ATOM     10  C   UNL     1       9.128   1.520  25.251  0.00  0.00    +0.000 A 
ATOM     11  O   UNL     1       7.946   1.828  24.605  0.00  0.00    +0.000 OA
ATOM     12  C   UNL     1       9.905   2.547  25.776  0.00  0.00    +0.000 A 
ATOM     13  C   UNL     1      11.084   2.226  26.422  0.00  0.00    +0.000 A 
ATOM     14  C   UNL     1      11.906   3.343  26.978  0.00  0.00    +0.000 C 
ENDBRANCH   5   7
BRANCH   3  15
ATOM     15  C   UNL     1      16.361   0.078  26.452  0.00  0.00    +0.000 A 
ATOM     16  C   UNL     1      17.177   1.183  26.220  0.00  0.00    +0.000 A 
ATOM     17  C   UNL     1      18.368   0.972  25.514  0.00  0.00    +0.000 A 
ATOM     18  C   UNL     1      18.757  -0.257  25.051  0.00  0.00    +0.000 A 
ATOM     19  C   UNL     1      17.921  -1.337  25.298  0.00  0.00    +0.000 A 
ATOM     20  C   UNL     1      16.765  -1.145  25.980  0.00  0.00    +0.000 A 
ENDBRANCH   3  15
BRANCH   1  21
ATOM     21  N   UNL     1      13.746   0.065  30.632  0.00  0.00    +0.000 N 
BRANCH  21  22
ATOM     22  C   UNL     1      12.561  -0.463  31.265  0.00  0.00    +0.000 C 
BRANCH  22  23
ATOM     23  C   UNL     1      12.798  -1.938  31.516  0.00  0.00    +0.000 C 
BRANCH  23  24
ATOM     24  O   UNL     1      11.901  -2.733  30.850  0.00  0.00    +0.000 OA
BRANCH  24  26
ATOM     25  C   UNL     1      11.341  -2.813  28.549  0.00  0.00    +0.000 C 
ATOM     26  C   UNL     1      12.361  -3.187  29.610  0.00  0.00    +0.000 C 
ENDBRANCH  24  26
ENDBRANCH  23  24
ENDBRANCH  22  23
ENDBRANCH  21  22
BRANCH  21  27
ATOM     27  C   UNL     1      14.879   0.458  31.458  0.00  0.00    +0.000 C 
BRANCH  27  28
ATOM     28  C   UNL     1      14.382   1.180  32.675  0.00  0.00    +0.000 C 
BRANCH  28  29
ATOM     29  O   UNL     1      15.180   0.884  33.749  0.00  0.00    +0.000 OA
BRANCH  29  30
ATOM     30  C   UNL     1      14.730  -0.134  34.564  0.00  0.00    +0.000 C 
ATOM     31  C   UNL     1      15.619  -1.363  34.498  0.00  0.00    +0.000 C 
ENDBRANCH  29  30
ENDBRANCH  28  29
ENDBRANCH  27  28
ENDBRANCH  21  27
ENDBRANCH   1  21
TORSDOF 11
ENDMDL
