MODEL 1
REMARK VINA RESULT:      -6.4      0.000      0.000
REMARK  Name = 
REMARK  2 active torsions:
REMARK  status: ('A' for Active; 'I' for Inactive)
REMARK    1  A    between atoms: O_2  and  C_3
REMARK    2  A    between atoms: C_7  and  C_8
REMARK                            x       y       z     vdW  Elec       q    Type
REMARK                         _______ _______ _______ _____ _____    ______ ____
ROOT
ATOM      1  C   UNL     1      16.541  11.055  36.572  0.00  0.00    +0.000 A 
ATOM      2  N   UNL     1      16.796  11.192  35.260  0.00  0.00    +0.000 NA
ATOM      3  C   UNL     1      15.857  11.546  34.365  0.00  0.00    +0.000 A 
ATOM      4  S   UNL     1      16.221  11.701  32.760  0.00  0.00    +0.000 S 
ATOM      5  N   UNL     1      14.621  11.772  34.778  0.00  0.00    +0.000 NA
ATOM      6  C   UNL     1      14.312  11.646  36.098  0.00  0.00    +0.000 A 
ATOM      7  C   UNL     1      15.261  11.286  37.026  0.00  0.00    +0.000 A 
ATOM      8  C   UNL     1      15.175  11.091  38.463  0.00  0.00    +0.000 C 
ATOM      9  C   UNL     1      13.825  11.018  39.065  0.00  0.00    +0.000 C 
ATOM     10  C   UNL     1      12.747  10.493  38.189  0.00  0.00    +0.000 C 
ATOM     11  C   UNL     1      12.059  11.571  37.381  0.00  0.00    +0.000 C 
ATOM     12  N   UNL     1      12.941  11.936  36.296  0.00  0.00    +0.000 NA
ENDROOT
BRANCH   1  17
ATOM     13  C   UNL     1      18.737   9.063  38.887  0.00  0.00    +0.000 A 
ATOM     14  C   UNL     1      19.668  10.008  39.233  0.00  0.00    +0.000 A 
ATOM     15  C   UNL     1      19.589  11.287  38.721  0.00  0.00    +0.000 A 
ATOM     16  C   UNL     1      18.561  11.601  37.858  0.00  0.00    +0.000 A 
ATOM     17  C   UNL     1      17.615  10.665  37.496  0.00  0.00    +0.000 A 
ATOM     18  C   UNL     1      17.724   9.416  38.020  0.00  0.00    +0.000 A 
BRANCH  13  20
ATOM     19  C   UNL     1      18.033   7.391  40.512  0.00  0.00    +0.000 C 
ATOM     20  O   UNL     1      18.829   7.765  39.416  0.00  0.00    +0.000 OA
ENDBRANCH  13  20
ENDBRANCH   1  17
TORSDOF 2
ENDMDL
MODEL 2
REMARK VINA RESULT:      -6.3     21.362     22.303
REMARK  Name = 
REMARK  2 active torsions:
REMARK  status: ('A' for Active; 'I' for Inactive)
REMARK    1  A    between atoms: O_2  and  C_3
REMARK    2  A    between atoms: C_7  and  C_8
REMARK                            x       y       z     vdW  Elec       q    Type
REMARK                         _______ _______ _______ _____ _____    ______ ____
ROOT
ATOM      1  C   UNL     1      17.672  -8.615  27.503  0.00  0.00    +0.000 A 
ATOM      2  N   UNL     1      18.056  -9.171  28.664  0.00  0.00    +0.000 NA
ATOM      3  C   UNL     1      17.434 -10.231  29.209  0.00  0.00    +0.000 A 
ATOM      4  S   UNL     1      17.946 -10.880  30.640  0.00  0.00    +0.000 S 
ATOM      5  N   UNL     1      16.395 -10.763  28.587  0.00  0.00    +0.000 NA
ATOM      6  C   UNL     1      15.966 -10.234  27.407  0.00  0.00    +0.000 A 
ATOM      7  C   UNL     1      16.592  -9.150  26.836  0.00  0.00    +0.000 A 
ATOM      8  C   UNL     1      16.325  -8.423  25.608  0.00  0.00    +0.000 C 
ATOM      9  C   UNL     1      15.039  -8.683  24.924  0.00  0.00    +0.000 C 
ATOM     10  C   UNL     1      13.907  -9.091  25.795  0.00  0.00    +0.000 C 
ATOM     11  C   UNL     1      13.820 -10.588  25.995  0.00  0.00    +0.000 C 
ATOM     12  N   UNL     1      14.849 -10.965  26.936  0.00  0.00    +0.000 NA
ENDROOT
BRANCH   1  17
ATOM     13  C   UNL     1      20.204  -6.473  25.728  0.00  0.00    +0.000 A 
ATOM     14  C   UNL     1      19.706  -5.221  25.985  0.00  0.00    +0.000 A 
ATOM     15  C   UNL     1      18.556  -5.067  26.730  0.00  0.00    +0.000 A 
ATOM     16  C   UNL     1      17.913  -6.188  27.213  0.00  0.00    +0.000 A 
ATOM     17  C   UNL     1      18.396  -7.455  26.964  0.00  0.00    +0.000 A 
ATOM     18  C   UNL     1      19.532  -7.569  26.226  0.00  0.00    +0.000 A 
BRANCH  13  20
ATOM     19  C   UNL     1      22.002  -7.869  24.865  0.00  0.00    +0.000 C 
ATOM     20  O   UNL     1      21.376  -6.616  24.968  0.00  0.00    +0.000 OA
ENDBRANCH  13  20
ENDBRANCH   1  17
TORSDOF 2
ENDMDL
MODEL 3
REMARK VINA RESULT:      -6.3      1.226      2.135
REMARK  Name = 
REMARK  2 active torsions:
REMARK  status: ('A' for Active; 'I' for Inactive)
REMARK    1  A    between atoms: O_2  and  C_3
REMARK    2  A    between atoms: C_7  and  C_8
REMARK                            x       y       z     vdW  Elec       q    Type
REMARK                         _______ _______ _______ _____ _____    ______ ____
ROOT
ATOM      1  C   UNL     1      16.461  11.130  36.446  0.00  0.00    +0.000 A 
ATOM      2  N   UNL     1      16.665  11.288  35.127  0.00  0.00    +0.000 NA
ATOM      3  C   UNL     1      15.689  11.641  34.272  0.00  0.00    +0.000 A 
ATOM      4  S   UNL     1      15.991  11.823  32.657  0.00  0.00    +0.000 S 
ATOM      5  N   UNL     1      14.466  11.845  34.733  0.00  0.00    +0.000 NA
ATOM      6  C   UNL     1      14.209  11.696  36.063  0.00  0.00    +0.000 A 
ATOM      7  C   UNL     1      15.196  11.337  36.950  0.00  0.00    +0.000 A 
ATOM      8  C   UNL     1      15.166  11.121  38.386  0.00  0.00    +0.000 C 
ATOM      9  C   UNL     1      13.840  11.022  39.036  0.00  0.00    +0.000 C 
ATOM     10  C   UNL     1      12.737  10.494  38.193  0.00  0.00    +0.000 C 
ATOM     11  C   UNL     1      12.005  11.573  37.426  0.00  0.00    +0.000 C 
ATOM     12  N   UNL     1      12.842  11.965  36.315  0.00  0.00    +0.000 NA
ENDROOT
BRANCH   1  17
ATOM     13  C   UNL     1      19.526  11.252  38.623  0.00  0.00    +0.000 A 
ATOM     14  C   UNL     1      19.644   9.931  38.974  0.00  0.00    +0.000 A 
ATOM     15  C   UNL     1      18.736   9.002  38.509  0.00  0.00    +0.000 A 
ATOM     16  C   UNL     1      17.710   9.419  37.688  0.00  0.00    +0.000 A 
ATOM     17  C   UNL     1      17.573  10.742  37.324  0.00  0.00    +0.000 A 
ATOM     18  C   UNL     1      18.486  11.629  37.800  0.00  0.00    +0.000 A 
BRANCH  13  20
ATOM     19  C   UNL     1      20.291  13.555  38.824  0.00  0.00    +0.000 C 
ATOM     20  O   UNL     1      20.457  12.188  39.102  0.00  0.00    +0.000 OA
ENDBRANCH  13  20
ENDBRANCH   1  17
TORSDOF 2
ENDMDL
MODEL 4
REMARK VINA RESULT:      -6.2     20.171     21.443
REMARK  Name = 
REMARK  2 active torsions:
REMARK  status: ('A' for Active; 'I' for Inactive)
REMARK    1  A    between atoms: O_2  and  C_3
REMARK    2  A    between atoms: C_7  and  C_8
REMARK                            x       y       z     vdW  Elec       q    Type
REMARK                         _______ _______ _______ _____ _____    ______ ____
ROOT
ATOM      1  C   UNL     1      10.961  22.644  21.653  0.00  0.00    +0.000 A 
ATOM      2  N   UNL     1      10.167  23.241  22.558  0.00  0.00    +0.000 NA
ATOM      3  C   UNL     1      10.557  24.299  23.290  0.00  0.00    +0.000 A 
ATOM      4  S   UNL     1       9.543  24.999  24.392  0.00  0.00    +0.000 S 
ATOM      5  N   UNL     1      11.776  24.787  23.125  0.00  0.00    +0.000 NA
ATOM      6  C   UNL     1      12.618  24.215  22.220  0.00  0.00    +0.000 A 
ATOM      7  C   UNL     1      12.234  23.134  21.463  0.00  0.00    +0.000 A 
ATOM      8  C   UNL     1      12.941  22.367  20.452  0.00  0.00    +0.000 C 
ATOM      9  C   UNL     1      14.401  22.576  20.332  0.00  0.00    +0.000 C 
ATOM     10  C   UNL     1      15.108  22.977  21.574  0.00  0.00    +0.000 C 
ATOM     11  C   UNL     1      15.160  24.476  21.772  0.00  0.00    +0.000 C 
ATOM     12  N   UNL     1      13.855  24.904  22.221  0.00  0.00    +0.000 NA
ENDROOT
BRANCH   1  17
ATOM     13  C   UNL     1       9.019  20.489  19.258  0.00  0.00    +0.000 A 
ATOM     14  C   UNL     1       9.598  19.267  19.485  0.00  0.00    +0.000 A 
ATOM     15  C   UNL     1      10.614  19.137  20.410  0.00  0.00    +0.000 A 
ATOM     16  C   UNL     1      11.038  20.252  21.102  0.00  0.00    +0.000 A 
ATOM     17  C   UNL     1      10.470  21.490  20.888  0.00  0.00    +0.000 A 
ATOM     18  C   UNL     1       9.472  21.580  19.969  0.00  0.00    +0.000 A 
BRANCH  13  20
ATOM     19  C   UNL     1       7.866  21.776  17.542  0.00  0.00    +0.000 C 
ATOM     20  O   UNL     1       7.986  20.608  18.314  0.00  0.00    +0.000 OA
ENDBRANCH  13  20
ENDBRANCH   1  17
TORSDOF 2
ENDMDL
MODEL 5
REMARK VINA RESULT:      -6.2      3.637      6.425
REMARK  Name = 
REMARK  2 active torsions:
REMARK  status: ('A' for Active; 'I' for Inactive)
REMARK    1  A    between atoms: O_2  and  C_3
REMARK    2  A    between atoms: C_7  and  C_8
REMARK                            x       y       z     vdW  Elec       q    Type
REMARK                         _______ _______ _______ _____ _____    ______ ____
ROOT
ATOM      1  C   UNL     1      18.152  10.326  38.020  0.00  0.00    +0.000 A 
ATOM      2  N   UNL     1      18.083   9.075  38.507  0.00  0.00    +0.000 NA
ATOM      3  C   UNL     1      18.863   8.636  39.509  0.00  0.00    +0.000 A 
ATOM      4  S   UNL     1      18.741   7.087  40.074  0.00  0.00    +0.000 S 
ATOM      5  N   UNL     1      19.745   9.459  40.052  0.00  0.00    +0.000 NA
ATOM      6  C   UNL     1      19.853  10.737  39.593  0.00  0.00    +0.000 A 
ATOM      7  C   UNL     1      19.062  11.202  38.569  0.00  0.00    +0.000 A 
ATOM      8  C   UNL     1      18.993  12.499  37.919  0.00  0.00    +0.000 C 
ATOM      9  C   UNL     1      20.087  13.458  38.188  0.00  0.00    +0.000 C 
ATOM     10  C   UNL     1      21.412  12.866  38.504  0.00  0.00    +0.000 C 
ATOM     11  C   UNL     1      21.611  12.605  39.981  0.00  0.00    +0.000 C 
ATOM     12  N   UNL     1      20.855  11.422  40.322  0.00  0.00    +0.000 NA
ENDROOT
BRANCH   1  17
ATOM     13  C   UNL     1      16.710  10.890  34.592  0.00  0.00    +0.000 A 
ATOM     14  C   UNL     1      15.552  11.553  34.907  0.00  0.00    +0.000 A 
ATOM     15  C   UNL     1      15.235  11.819  36.223  0.00  0.00    +0.000 A 
ATOM     16  C   UNL     1      16.099  11.408  37.217  0.00  0.00    +0.000 A 
ATOM     17  C   UNL     1      17.268  10.739  36.921  0.00  0.00    +0.000 A 
ATOM     18  C   UNL     1      17.547  10.496  35.613  0.00  0.00    +0.000 A 
BRANCH  13  20
ATOM     19  C   UNL     1      16.049  10.813  32.249  0.00  0.00    +0.000 C 
ATOM     20  O   UNL     1      17.020  10.627  33.247  0.00  0.00    +0.000 OA
ENDBRANCH  13  20
ENDBRANCH   1  17
TORSDOF 2
ENDMDL
MODEL 6
REMARK VINA RESULT:      -6.1     21.126     22.352
REMARK  Name = 
REMARK  2 active torsions:
REMARK  status: ('A' for Active; 'I' for Inactive)
REMARK    1  A    between atoms: O_2  and  C_3
REMARK    2  A    between atoms: C_7  and  C_8
REMARK                            x       y       z     vdW  Elec       q    Type
REMARK                         _______ _______ _______ _____ _____    ______ ____
ROOT
ATOM      1  C   UNL     1      17.388  -8.640  27.093  0.00  0.00    +0.000 A 
ATOM      2  N   UNL     1      16.327  -8.971  26.338  0.00  0.00    +0.000 NA
ATOM      3  C   UNL     1      15.513 -10.000  26.630  0.00  0.00    +0.000 A 
ATOM      4  S   UNL     1      14.218 -10.367  25.670  0.00  0.00    +0.000 S 
ATOM      5  N   UNL     1      15.755 -10.732  27.706  0.00  0.00    +0.000 NA
ATOM      6  C   UNL     1      16.820 -10.437  28.502  0.00  0.00    +0.000 A 
ATOM      7  C   UNL     1      17.661  -9.387  28.217  0.00  0.00    +0.000 A 
ATOM      8  C   UNL     1      18.838  -8.885  28.903  0.00  0.00    +0.000 C 
ATOM      9  C   UNL     1      19.431  -9.736  29.958  0.00  0.00    +0.000 C 
ATOM     10  C   UNL     1      19.247 -11.201  29.795  0.00  0.00    +0.000 C 
ATOM     11  C   UNL     1      17.979 -11.716  30.439  0.00  0.00    +0.000 C 
ATOM     12  N   UNL     1      16.874 -11.350  29.582  0.00  0.00    +0.000 NA
ENDROOT
BRANCH   1  17
ATOM     13  C   UNL     1      20.177  -6.562  25.660  0.00  0.00    +0.000 A 
ATOM     14  C   UNL     1      19.782  -5.305  26.041  0.00  0.00    +0.000 A 
ATOM     15  C   UNL     1      18.618  -5.127  26.760  0.00  0.00    +0.000 A 
ATOM     16  C   UNL     1      17.858  -6.229  27.089  0.00  0.00    +0.000 A 
ATOM     17  C   UNL     1      18.237  -7.502  26.714  0.00  0.00    +0.000 A 
ATOM     18  C   UNL     1      19.390  -7.638  26.007  0.00  0.00    +0.000 A 
BRANCH  13  20
ATOM     19  C   UNL     1      22.067  -7.945  24.990  0.00  0.00    +0.000 C 
ATOM     20  O   UNL     1      21.365  -6.729  24.929  0.00  0.00    +0.000 OA
ENDBRANCH  13  20
ENDBRANCH   1  17
TORSDOF 2
ENDMDL
MODEL 7
REMARK VINA RESULT:      -6.0      3.970      5.854
REMARK  Name = 
REMARK  2 active torsions:
REMARK  status: ('A' for Active; 'I' for Inactive)
REMARK    1  A    between atoms: O_2  and  C_3
REMARK    2  A    between atoms: C_7  and  C_8
REMARK                            x       y       z     vdW  Elec       q    Type
REMARK                         _______ _______ _______ _____ _____    ______ ____
ROOT
ATOM      1  C   UNL     1      18.950  10.305  37.797  0.00  0.00    +0.000 A 
ATOM      2  N   UNL     1      20.251  10.351  37.465  0.00  0.00    +0.000 NA
ATOM      3  C   UNL     1      21.220   9.819  38.229  0.00  0.00    +0.000 A 
ATOM      4  S   UNL     1      22.808   9.900  37.778  0.00  0.00    +0.000 S 
ATOM      5  N   UNL     1      20.896   9.220  39.364  0.00  0.00    +0.000 NA
ATOM      6  C   UNL     1      19.589   9.149  39.744  0.00  0.00    +0.000 A 
ATOM      7  C   UNL     1      18.587   9.688  38.973  0.00  0.00    +0.000 A 
ATOM      8  C   UNL     1      17.148   9.736  39.163  0.00  0.00    +0.000 C 
ATOM      9  C   UNL     1      16.622   9.377  40.499  0.00  0.00    +0.000 C 
ATOM     10  C   UNL     1      17.522   9.644  41.649  0.00  0.00    +0.000 C 
ATOM     11  C   UNL     1      18.437   8.483  41.971  0.00  0.00    +0.000 C 
ATOM     12  N   UNL     1      19.491   8.469  40.981  0.00  0.00    +0.000 NA
ENDROOT
BRANCH   1  17
ATOM     13  C   UNL     1      16.564  10.894  34.948  0.00  0.00    +0.000 A 
ATOM     14  C   UNL     1      16.038  12.110  35.301  0.00  0.00    +0.000 A 
ATOM     15  C   UNL     1      16.453  12.741  36.456  0.00  0.00    +0.000 A 
ATOM     16  C   UNL     1      17.402  12.132  37.250  0.00  0.00    +0.000 A 
ATOM     17  C   UNL     1      17.942  10.908  36.914  0.00  0.00    +0.000 A 
ATOM     18  C   UNL     1      17.510  10.317  35.769  0.00  0.00    +0.000 A 
BRANCH  13  20
ATOM     19  C   UNL     1      16.070  10.983  32.565  0.00  0.00    +0.000 C 
ATOM     20  O   UNL     1      16.134  10.262  33.770  0.00  0.00    +0.000 OA
ENDBRANCH  13  20
ENDBRANCH   1  17
TORSDOF 2
ENDMDL
MODEL 8
REMARK VINA RESULT:      -5.9      4.563      7.494
REMARK  Name = 
REMARK  2 active torsions:
REMARK  status: ('A' for Active; 'I' for Inactive)
REMARK    1  A    between atoms: O_2  and  C_3
REMARK    2  A    between atoms: C_7  and  C_8
REMARK                            x       y       z     vdW  Elec       q    Type
REMARK                         _______ _______ _______ _____ _____    ______ ____
ROOT
ATOM      1  C   UNL     1      21.127  11.830  38.526  0.00  0.00    +0.000 A 
ATOM      2  N   UNL     1      21.363  12.976  39.186  0.00  0.00    +0.000 NA
ATOM      3  C   UNL     1      22.532  13.634  39.114  0.00  0.00    +0.000 A 
ATOM      4  S   UNL     1      22.774  15.043  39.946  0.00  0.00    +0.000 S 
ATOM      5  N   UNL     1      23.507  13.146  38.365  0.00  0.00    +0.000 NA
ATOM      6  C   UNL     1      23.316  11.986  37.676  0.00  0.00    +0.000 A 
ATOM      7  C   UNL     1      22.126  11.301  37.738  0.00  0.00    +0.000 A 
ATOM      8  C   UNL     1      21.692  10.067  37.106  0.00  0.00    +0.000 C 
ATOM      9  C   UNL     1      22.726   9.227  36.462  0.00  0.00    +0.000 C 
ATOM     10  C   UNL     1      24.091   9.312  37.043  0.00  0.00    +0.000 C 
ATOM     11  C   UNL     1      24.937  10.399  36.417  0.00  0.00    +0.000 C 
ATOM     12  N   UNL     1      24.489  11.665  36.951  0.00  0.00    +0.000 NA
ENDROOT
BRANCH   1  17
ATOM     13  C   UNL     1      17.578  10.742  37.915  0.00  0.00    +0.000 A 
ATOM     14  C   UNL     1      17.397   9.863  38.951  0.00  0.00    +0.000 A 
ATOM     15  C   UNL     1      18.418   9.620  39.847  0.00  0.00    +0.000 A 
ATOM     16  C   UNL     1      19.622  10.274  39.685  0.00  0.00    +0.000 A 
ATOM     17  C   UNL     1      19.824  11.161  38.649  0.00  0.00    +0.000 A 
ATOM     18  C   UNL     1      18.796  11.375  37.787  0.00  0.00    +0.000 A 
BRANCH  13  20
ATOM     19  C   UNL     1      15.283  11.429  37.477  0.00  0.00    +0.000 C 
ATOM     20  O   UNL     1      16.530  10.981  37.010  0.00  0.00    +0.000 OA
ENDBRANCH  13  20
ENDBRANCH   1  17
TORSDOF 2
ENDMDL
MODEL 9
REMARK VINA RESULT:      -5.9      3.416      5.548
REMARK  Name = 
REMARK  2 active torsions:
REMARK  status: ('A' for Active; 'I' for Inactive)
REMARK    1  A    between atoms: O_2  and  C_3
REMARK    2  A    between atoms: C_7  and  C_8
REMARK                            x       y       z     vdW  Elec       q    Type
REMARK                         _______ _______ _______ _____ _____    ______ ____
ROOT
ATOM      1  C   UNL     1      19.574  10.483  37.950  0.00  0.00    +0.000 A 
ATOM      2  N   UNL     1      18.631  11.194  37.311  0.00  0.00    +0.000 NA
ATOM      3  C   UNL     1      17.322  11.103  37.604  0.00  0.00    +0.000 A 
ATOM      4  S   UNL     1      16.198  12.000  36.788  0.00  0.00    +0.000 S 
ATOM      5  N   UNL     1      16.927  10.280  38.562  0.00  0.00    +0.000 NA
ATOM      6  C   UNL     1      17.847   9.537  39.239  0.00  0.00    +0.000 A 
ATOM      7  C   UNL     1      19.189   9.619  38.952  0.00  0.00    +0.000 A 
ATOM      8  C   UNL     1      20.338   8.941  39.525  0.00  0.00    +0.000 C 
ATOM      9  C   UNL     1      20.079   7.781  40.406  0.00  0.00    +0.000 C 
ATOM     10  C   UNL     1      18.839   7.012  40.126  0.00  0.00    +0.000 C 
ATOM     11  C   UNL     1      17.633   7.535  40.874  0.00  0.00    +0.000 C 
ATOM     12  N   UNL     1      17.192   8.740  40.208  0.00  0.00    +0.000 NA
ENDROOT
BRANCH   1  17
ATOM     13  C   UNL     1      23.137  11.680  37.789  0.00  0.00    +0.000 A 
ATOM     14  C   UNL     1      23.643  10.848  36.823  0.00  0.00    +0.000 A 
ATOM     15  C   UNL     1      22.837   9.903  36.224  0.00  0.00    +0.000 A 
ATOM     16  C   UNL     1      21.517   9.805  36.609  0.00  0.00    +0.000 A 
ATOM     17  C   UNL     1      20.988  10.631  37.579  0.00  0.00    +0.000 A 
ATOM     18  C   UNL     1      21.812  11.550  38.147  0.00  0.00    +0.000 A 
BRANCH  13  20
ATOM     19  C   UNL     1      24.871  13.380  37.610  0.00  0.00    +0.000 C 
ATOM     20  O   UNL     1      23.968  12.638  38.391  0.00  0.00    +0.000 OA
ENDBRANCH  13  20
ENDBRANCH   1  17
TORSDOF 2
ENDMDL
MODEL 10
REMARK VINA RESULT:      -5.8     22.035     23.780
REMARK  Name = 
REMARK  2 active torsions:
REMARK  status: ('A' for Active; 'I' for Inactive)
REMARK    1  A    between atoms: O_2  and  C_3
REMARK    2  A    between atoms: C_7  and  C_8
REMARK                            x       y       z     vdW  Elec       q    Type
REMARK                         _______ _______ _______ _____ _____    ______ ____
ROOT
ATOM      1  C   UNL     1      30.140  24.063  25.105  0.00  0.00    +0.000 A 
ATOM      2  N   UNL     1      29.685  23.551  26.260  0.00  0.00    +0.000 NA
ATOM      3  C   UNL     1      28.477  22.974  26.379  0.00  0.00    +0.000 A 
ATOM      4  S   UNL     1      27.961  22.357  27.823  0.00  0.00    +0.000 S 
ATOM      5  N   UNL     1      27.687  22.900  25.320  0.00  0.00    +0.000 NA
ATOM      6  C   UNL     1      28.104  23.406  24.126  0.00  0.00    +0.000 A 
ATOM      7  C   UNL     1      29.337  23.998  23.988  0.00  0.00    +0.000 A 
ATOM      8  C   UNL     1      29.992  24.599  22.839  0.00  0.00    +0.000 C 
ATOM      9  C   UNL     1      29.164  24.868  21.642  0.00  0.00    +0.000 C 
ATOM     10  C   UNL     1      27.725  25.141  21.891  0.00  0.00    +0.000 C 
ATOM     11  C   UNL     1      26.874  23.890  21.894  0.00  0.00    +0.000 C 
ATOM     12  N   UNL     1      27.097  23.212  23.150  0.00  0.00    +0.000 NA
ENDROOT
BRANCH   1  17
ATOM     13  C   UNL     1      33.838  24.586  24.648  0.00  0.00    +0.000 A 
ATOM     14  C   UNL     1      33.949  25.917  24.959  0.00  0.00    +0.000 A 
ATOM     15  C   UNL     1      32.833  26.646  25.316  0.00  0.00    +0.000 A 
ATOM     16  C   UNL     1      31.606  26.018  25.355  0.00  0.00    +0.000 A 
ATOM     17  C   UNL     1      31.472  24.681  25.046  0.00  0.00    +0.000 A 
ATOM     18  C   UNL     1      32.593  23.995  24.699  0.00  0.00    +0.000 A 
BRANCH  13  20
ATOM     19  C   UNL     1      36.218  24.133  24.894  0.00  0.00    +0.000 C 
ATOM     20  O   UNL     1      34.981  23.855  24.287  0.00  0.00    +0.000 OA
ENDBRANCH  13  20
ENDBRANCH   1  17
TORSDOF 2
ENDMDL
