MODEL 1
REMARK VINA RESULT:      -6.9      0.000      0.000
REMARK  Name = 
REMARK  1 active torsions:
REMARK  status: ('A' for Active; 'I' for Inactive)
REMARK    1  A    between atoms: C_8  and  C_9
REMARK                            x       y       z     vdW  Elec       q    Type
REMARK                         _______ _______ _______ _____ _____    ______ ____
ROOT
ATOM      1  C   UNL     1      32.682  21.557  30.193  0.00  0.00    +0.000 C 
ATOM      2  C   UNL     1      31.577  22.069  29.342  0.00  0.00    +0.000 A 
ATOM      3  C   UNL     1      30.462  22.617  29.944  0.00  0.00    +0.000 A 
ATOM      4  C   UNL     1      29.422  23.100  29.162  0.00  0.00    +0.000 A 
ATOM      5  C   UNL     1      28.242  23.680  29.843  0.00  0.00    +0.000 C 
ATOM      6  C   UNL     1      29.485  23.040  27.781  0.00  0.00    +0.000 A 
ATOM      7  O   UNL     1      28.668  23.412  26.829  0.00  0.00    +0.000 OA
ATOM      8  C   UNL     1      29.155  23.154  25.640  0.00  0.00    +0.000 A 
ATOM      9  N   UNL     1      30.356  22.582  25.842  0.00  0.00    +0.000 NA
ATOM     10  C   UNL     1      30.589  22.498  27.166  0.00  0.00    +0.000 A 
ATOM     11  C   UNL     1      31.612  22.023  27.963  0.00  0.00    +0.000 A 
ENDROOT
BRANCH   8  12
ATOM     12  C   UNL     1      28.509  23.436  24.341  0.00  0.00    +0.000 A 
ATOM     13  C   UNL     1      29.302  23.788  23.269  0.00  0.00    +0.000 A 
ATOM     14  C   UNL     1      28.758  24.059  22.047  0.00  0.00    +0.000 A 
ATOM     15  N   UNL     1      29.629  24.416  20.979  0.00  0.00    +0.000 NA
ATOM     16  C   UNL     1      27.399  23.982  21.878  0.00  0.00    +0.000 A 
ATOM     17  C   UNL     1      26.607  23.626  22.971  0.00  0.00    +0.000 A 
ATOM     18  C   UNL     1      27.161  23.353  24.203  0.00  0.00    +0.000 A 
ATOM     19 CL   UNL     1      26.141  22.907  25.558  0.00  0.00    +0.000 Cl
ENDBRANCH   8  12
TORSDOF 1
ENDMDL
MODEL 2
REMARK VINA RESULT:      -6.7     33.561     34.093
REMARK  Name = 
REMARK  1 active torsions:
REMARK  status: ('A' for Active; 'I' for Inactive)
REMARK    1  A    between atoms: C_8  and  C_9
REMARK                            x       y       z     vdW  Elec       q    Type
REMARK                         _______ _______ _______ _____ _____    ______ ____
ROOT
ATOM      1  C   UNL     1      22.583  -6.650  24.400  0.00  0.00    +0.000 C 
ATOM      2  C   UNL     1      21.374  -6.891  25.231  0.00  0.00    +0.000 A 
ATOM      3  C   UNL     1      20.543  -5.830  25.533  0.00  0.00    +0.000 A 
ATOM      4  C   UNL     1      19.410  -6.040  26.308  0.00  0.00    +0.000 A 
ATOM      5  C   UNL     1      18.543  -4.879  26.612  0.00  0.00    +0.000 C 
ATOM      6  C   UNL     1      19.099  -7.301  26.784  0.00  0.00    +0.000 A 
ATOM      7  O   UNL     1      18.120  -7.766  27.517  0.00  0.00    +0.000 OA
ATOM      8  C   UNL     1      18.237  -9.056  27.724  0.00  0.00    +0.000 A 
ATOM      9  N   UNL     1      19.358  -9.439  27.086  0.00  0.00    +0.000 NA
ATOM     10  C   UNL     1      19.917  -8.367  26.492  0.00  0.00    +0.000 A 
ATOM     11  C   UNL     1      21.039  -8.136  25.720  0.00  0.00    +0.000 A 
ENDROOT
BRANCH   8  12
ATOM     12  C   UNL     1      17.317  -9.912  28.503  0.00  0.00    +0.000 A 
ATOM     13  C   UNL     1      16.253 -10.503  27.856  0.00  0.00    +0.000 A 
ATOM     14  C   UNL     1      15.374 -11.302  28.527  0.00  0.00    +0.000 A 
ATOM     15  N   UNL     1      14.295 -11.884  27.802  0.00  0.00    +0.000 NA
ATOM     16  C   UNL     1      15.548 -11.523  29.869  0.00  0.00    +0.000 A 
ATOM     17  C   UNL     1      16.628 -10.919  30.513  0.00  0.00    +0.000 A 
ATOM     18  C   UNL     1      17.513 -10.113  29.831  0.00  0.00    +0.000 A 
ATOM     19 CL   UNL     1      18.863  -9.367  30.667  0.00  0.00    +0.000 Cl
ENDBRANCH   8  12
TORSDOF 1
ENDMDL
MODEL 3
REMARK VINA RESULT:      -6.6     20.897     21.994
REMARK  Name = 
REMARK  1 active torsions:
REMARK  status: ('A' for Active; 'I' for Inactive)
REMARK    1  A    between atoms: C_8  and  C_9
REMARK                            x       y       z     vdW  Elec       q    Type
REMARK                         _______ _______ _______ _____ _____    ______ ____
ROOT
ATOM      1  C   UNL     1      28.403   8.044  14.849  0.00  0.00    +0.000 C 
ATOM      2  C   UNL     1      27.698   7.067  15.721  0.00  0.00    +0.000 A 
ATOM      3  C   UNL     1      28.043   6.985  17.055  0.00  0.00    +0.000 A 
ATOM      4  C   UNL     1      27.393   6.077  17.881  0.00  0.00    +0.000 A 
ATOM      5  C   UNL     1      27.790   6.017  19.307  0.00  0.00    +0.000 C 
ATOM      6  C   UNL     1      26.401   5.250  17.386  0.00  0.00    +0.000 A 
ATOM      7  O   UNL     1      25.649   4.328  17.929  0.00  0.00    +0.000 OA
ATOM      8  C   UNL     1      24.829   3.792  17.058  0.00  0.00    +0.000 A 
ATOM      9  N   UNL     1      25.072   4.406  15.886  0.00  0.00    +0.000 NA
ATOM     10  C   UNL     1      26.047   5.320  16.059  0.00  0.00    +0.000 A 
ATOM     11  C   UNL     1      26.706   6.229  15.255  0.00  0.00    +0.000 A 
ENDROOT
BRANCH   8  12
ATOM     12  C   UNL     1      23.838   2.726  17.317  0.00  0.00    +0.000 A 
ATOM     13  C   UNL     1      22.520   3.079  17.513  0.00  0.00    +0.000 A 
ATOM     14  C   UNL     1      21.564   2.136  17.756  0.00  0.00    +0.000 A 
ATOM     15  N   UNL     1      20.220   2.563  17.949  0.00  0.00    +0.000 NA
ATOM     16  C   UNL     1      21.918   0.812  17.807  0.00  0.00    +0.000 A 
ATOM     17  C   UNL     1      23.255   0.466  17.608  0.00  0.00    +0.000 A 
ATOM     18  C   UNL     1      24.216   1.423  17.363  0.00  0.00    +0.000 A 
ATOM     19 CL   UNL     1      25.890   0.960  17.116  0.00  0.00    +0.000 Cl
ENDBRANCH   8  12
TORSDOF 1
ENDMDL
MODEL 4
REMARK VINA RESULT:      -6.5     33.364     33.845
REMARK  Name = 
REMARK  1 active torsions:
REMARK  status: ('A' for Active; 'I' for Inactive)
REMARK    1  A    between atoms: C_8  and  C_9
REMARK                            x       y       z     vdW  Elec       q    Type
REMARK                         _______ _______ _______ _____ _____    ______ ____
ROOT
ATOM      1  C   UNL     1      22.635  -7.434  24.807  0.00  0.00    +0.000 C 
ATOM      2  C   UNL     1      21.203  -7.332  25.193  0.00  0.00    +0.000 A 
ATOM      3  C   UNL     1      20.726  -6.138  25.697  0.00  0.00    +0.000 A 
ATOM      4  C   UNL     1      19.391  -6.028  26.062  0.00  0.00    +0.000 A 
ATOM      5  C   UNL     1      18.915  -4.732  26.599  0.00  0.00    +0.000 C 
ATOM      6  C   UNL     1      18.527  -7.100  25.928  0.00  0.00    +0.000 A 
ATOM      7  O   UNL     1      17.256  -7.265  26.189  0.00  0.00    +0.000 OA
ATOM      8  C   UNL     1      16.851  -8.477  25.895  0.00  0.00    +0.000 A 
ATOM      9  N   UNL     1      17.928  -9.127  25.419  0.00  0.00    +0.000 NA
ATOM     10  C   UNL     1      18.987  -8.295  25.427  0.00  0.00    +0.000 A 
ATOM     11  C   UNL     1      20.319  -8.383  25.071  0.00  0.00    +0.000 A 
ENDROOT
BRANCH   8  12
ATOM     12  C   UNL     1      15.484  -9.016  26.058  0.00  0.00    +0.000 A 
ATOM     13  C   UNL     1      14.446  -8.403  25.389  0.00  0.00    +0.000 A 
ATOM     14  C   UNL     1      13.165  -8.859  25.504  0.00  0.00    +0.000 A 
ATOM     15  N   UNL     1      12.136  -8.184  24.786  0.00  0.00    +0.000 NA
ATOM     16  C   UNL     1      12.901  -9.944  26.298  0.00  0.00    +0.000 A 
ATOM     17  C   UNL     1      13.960 -10.556  26.972  0.00  0.00    +0.000 A 
ATOM     18  C   UNL     1      15.252 -10.091  26.852  0.00  0.00    +0.000 A 
ATOM     19 CL   UNL     1      16.563 -10.880  27.710  0.00  0.00    +0.000 Cl
ENDBRANCH   8  12
TORSDOF 1
ENDMDL
MODEL 5
REMARK VINA RESULT:      -6.3      3.342      4.175
REMARK  Name = 
REMARK  1 active torsions:
REMARK  status: ('A' for Active; 'I' for Inactive)
REMARK    1  A    between atoms: C_8  and  C_9
REMARK                            x       y       z     vdW  Elec       q    Type
REMARK                         _______ _______ _______ _____ _____    ______ ____
ROOT
ATOM      1  C   UNL     1      35.577  24.234  24.550  0.00  0.00    +0.000 C 
ATOM      2  C   UNL     1      34.133  24.558  24.696  0.00  0.00    +0.000 A 
ATOM      3  C   UNL     1      33.763  25.848  25.021  0.00  0.00    +0.000 A 
ATOM      4  C   UNL     1      32.419  26.166  25.161  0.00  0.00    +0.000 A 
ATOM      5  C   UNL     1      32.059  27.559  25.511  0.00  0.00    +0.000 C 
ATOM      6  C   UNL     1      31.439  25.206  24.978  0.00  0.00    +0.000 A 
ATOM      7  O   UNL     1      30.133  25.233  25.047  0.00  0.00    +0.000 OA
ATOM      8  C   UNL     1      29.607  24.060  24.791  0.00  0.00    +0.000 A 
ATOM      9  N   UNL     1      30.638  23.232  24.544  0.00  0.00    +0.000 NA
ATOM     10  C   UNL     1      31.792  23.917  24.653  0.00  0.00    +0.000 A 
ATOM     11  C   UNL     1      33.135  23.623  24.520  0.00  0.00    +0.000 A 
ENDROOT
BRANCH   8  12
ATOM     12  C   UNL     1      28.168  23.721  24.778  0.00  0.00    +0.000 A 
ATOM     13  C   UNL     1      27.552  23.491  23.566  0.00  0.00    +0.000 A 
ATOM     14  C   UNL     1      26.227  23.175  23.497  0.00  0.00    +0.000 A 
ATOM     15  N   UNL     1      25.648  22.947  22.216  0.00  0.00    +0.000 NA
ATOM     16  C   UNL     1      25.490  23.084  24.650  0.00  0.00    +0.000 A 
ATOM     17  C   UNL     1      26.125  23.321  25.871  0.00  0.00    +0.000 A 
ATOM     18  C   UNL     1      27.464  23.640  25.935  0.00  0.00    +0.000 A 
ATOM     19 CL   UNL     1      28.235  23.931  27.484  0.00  0.00    +0.000 Cl
ENDBRANCH   8  12
TORSDOF 1
ENDMDL
MODEL 6
REMARK VINA RESULT:      -6.2      3.081      4.257
REMARK  Name = 
REMARK  1 active torsions:
REMARK  status: ('A' for Active; 'I' for Inactive)
REMARK    1  A    between atoms: C_8  and  C_9
REMARK                            x       y       z     vdW  Elec       q    Type
REMARK                         _______ _______ _______ _____ _____    ______ ____
ROOT
ATOM      1  C   UNL     1      24.729  26.058  31.256  0.00  0.00    +0.000 C 
ATOM      2  C   UNL     1      25.408  25.308  30.166  0.00  0.00    +0.000 A 
ATOM      3  C   UNL     1      25.956  24.072  30.441  0.00  0.00    +0.000 A 
ATOM      4  C   UNL     1      26.593  23.360  29.433  0.00  0.00    +0.000 A 
ATOM      5  C   UNL     1      27.171  22.037  29.765  0.00  0.00    +0.000 C 
ATOM      6  C   UNL     1      26.686  23.872  28.151  0.00  0.00    +0.000 A 
ATOM      7  O   UNL     1      27.218  23.424  27.043  0.00  0.00    +0.000 OA
ATOM      8  C   UNL     1      27.063  24.268  26.052  0.00  0.00    +0.000 A 
ATOM      9  N   UNL     1      26.393  25.320  26.556  0.00  0.00    +0.000 NA
ATOM     10  C   UNL     1      26.144  25.102  27.862  0.00  0.00    +0.000 A 
ATOM     11  C   UNL     1      25.516  25.793  28.879  0.00  0.00    +0.000 A 
ENDROOT
BRANCH   8  12
ATOM     12  C   UNL     1      27.533  24.093  24.661  0.00  0.00    +0.000 A 
ATOM     13  C   UNL     1      26.605  23.834  23.675  0.00  0.00    +0.000 A 
ATOM     14  C   UNL     1      26.984  23.665  22.375  0.00  0.00    +0.000 A 
ATOM     15  N   UNL     1      25.978  23.401  21.403  0.00  0.00    +0.000 NA
ATOM     16  C   UNL     1      28.311  23.751  22.040  0.00  0.00    +0.000 A 
ATOM     17  C   UNL     1      29.241  24.013  23.047  0.00  0.00    +0.000 A 
ATOM     18  C   UNL     1      28.853  24.184  24.358  0.00  0.00    +0.000 A 
ATOM     19 CL   UNL     1      30.044  24.512  25.603  0.00  0.00    +0.000 Cl
ENDBRANCH   8  12
TORSDOF 1
ENDMDL
MODEL 7
REMARK VINA RESULT:      -6.0      1.829      2.725
REMARK  Name = 
REMARK  1 active torsions:
REMARK  status: ('A' for Active; 'I' for Inactive)
REMARK    1  A    between atoms: C_8  and  C_9
REMARK                            x       y       z     vdW  Elec       q    Type
REMARK                         _______ _______ _______ _____ _____    ______ ____
ROOT
ATOM      1  C   UNL     1      33.998  21.121  31.353  0.00  0.00    +0.000 C 
ATOM      2  C   UNL     1      33.447  21.817  30.161  0.00  0.00    +0.000 A 
ATOM      3  C   UNL     1      34.123  22.904  29.644  0.00  0.00    +0.000 A 
ATOM      4  C   UNL     1      33.620  23.564  28.531  0.00  0.00    +0.000 A 
ATOM      5  C   UNL     1      34.372  24.727  28.005  0.00  0.00    +0.000 C 
ATOM      6  C   UNL     1      32.446  23.147  27.928  0.00  0.00    +0.000 A 
ATOM      7  O   UNL     1      31.767  23.577  26.896  0.00  0.00    +0.000 OA
ATOM      8  C   UNL     1      30.692  22.857  26.687  0.00  0.00    +0.000 A 
ATOM      9  N   UNL     1      30.681  21.911  27.643  0.00  0.00    +0.000 NA
ATOM     10  C   UNL     1      31.762  22.066  28.431  0.00  0.00    +0.000 A 
ATOM     11  C   UNL     1      32.280  21.424  29.539  0.00  0.00    +0.000 A 
ENDROOT
BRANCH   8  12
ATOM     12  C   UNL     1      29.694  23.053  25.614  0.00  0.00    +0.000 A 
ATOM     13  C   UNL     1      30.125  23.485  24.378  0.00  0.00    +0.000 A 
ATOM     14  C   UNL     1      29.247  23.682  23.352  0.00  0.00    +0.000 A 
ATOM     15  N   UNL     1      29.754  24.129  22.099  0.00  0.00    +0.000 NA
ATOM     16  C   UNL     1      27.910  23.447  23.550  0.00  0.00    +0.000 A 
ATOM     17  C   UNL     1      27.485  23.010  24.806  0.00  0.00    +0.000 A 
ATOM     18  C   UNL     1      28.377  22.813  25.838  0.00  0.00    +0.000 A 
ATOM     19 CL   UNL     1      27.814  22.262  27.406  0.00  0.00    +0.000 Cl
ENDBRANCH   8  12
TORSDOF 1
ENDMDL
MODEL 8
REMARK VINA RESULT:      -6.0      1.798      2.105
REMARK  Name = 
REMARK  1 active torsions:
REMARK  status: ('A' for Active; 'I' for Inactive)
REMARK    1  A    between atoms: C_8  and  C_9
REMARK                            x       y       z     vdW  Elec       q    Type
REMARK                         _______ _______ _______ _____ _____    ______ ____
ROOT
ATOM      1  C   UNL     1      32.304  21.242  31.103  0.00  0.00    +0.000 C 
ATOM      2  C   UNL     1      31.407  21.903  30.119  0.00  0.00    +0.000 A 
ATOM      3  C   UNL     1      30.354  22.669  30.578  0.00  0.00    +0.000 A 
ATOM      4  C   UNL     1      29.507  23.293  29.671  0.00  0.00    +0.000 A 
ATOM      5  C   UNL     1      28.388  24.105  30.200  0.00  0.00    +0.000 C 
ATOM      6  C   UNL     1      29.704  23.159  28.308  0.00  0.00    +0.000 A 
ATOM      7  O   UNL     1      29.073  23.626  27.262  0.00  0.00    +0.000 OA
ATOM      8  C   UNL     1      29.628  23.230  26.142  0.00  0.00    +0.000 A 
ATOM      9  N   UNL     1      30.675  22.462  26.492  0.00  0.00    +0.000 NA
ATOM     10  C   UNL     1      30.748  22.400  27.836  0.00  0.00    +0.000 A 
ATOM     11  C   UNL     1      31.578  21.788  28.755  0.00  0.00    +0.000 A 
ENDROOT
BRANCH   8  12
ATOM     12  C   UNL     1      29.185  23.562  24.771  0.00  0.00    +0.000 A 
ATOM     13  C   UNL     1      27.918  23.189  24.374  0.00  0.00    +0.000 A 
ATOM     14  C   UNL     1      27.459  23.471  23.121  0.00  0.00    +0.000 A 
ATOM     15  N   UNL     1      26.141  23.059  22.771  0.00  0.00    +0.000 NA
ATOM     16  C   UNL     1      28.268  24.137  22.237  0.00  0.00    +0.000 A 
ATOM     17  C   UNL     1      29.548  24.509  22.649  0.00  0.00    +0.000 A 
ATOM     18  C   UNL     1      30.007  24.222  23.916  0.00  0.00    +0.000 A 
ATOM     19 CL   UNL     1      31.621  24.703  24.408  0.00  0.00    +0.000 Cl
ENDBRANCH   8  12
TORSDOF 1
ENDMDL
MODEL 9
REMARK VINA RESULT:      -5.9     32.432     32.999
REMARK  Name = 
REMARK  1 active torsions:
REMARK  status: ('A' for Active; 'I' for Inactive)
REMARK    1  A    between atoms: C_8  and  C_9
REMARK                            x       y       z     vdW  Elec       q    Type
REMARK                         _______ _______ _______ _____ _____    ______ ____
ROOT
ATOM      1  C   UNL     1      24.396  -9.496  20.727  0.00  0.00    +0.000 C 
ATOM      2  C   UNL     1      23.779  -8.967  21.972  0.00  0.00    +0.000 A 
ATOM      3  C   UNL     1      24.359  -7.884  22.602  0.00  0.00    +0.000 A 
ATOM      4  C   UNL     1      23.794  -7.379  23.766  0.00  0.00    +0.000 A 
ATOM      5  C   UNL     1      24.443  -6.216  24.414  0.00  0.00    +0.000 C 
ATOM      6  C   UNL     1      22.654  -7.947  24.307  0.00  0.00    +0.000 A 
ATOM      7  O   UNL     1      21.934  -7.677  25.365  0.00  0.00    +0.000 OA
ATOM      8  C   UNL     1      20.919  -8.498  25.485  0.00  0.00    +0.000 A 
ATOM      9  N   UNL     1      20.994  -9.345  24.443  0.00  0.00    +0.000 NA
ATOM     10  C   UNL     1      22.065  -9.026  23.690  0.00  0.00    +0.000 A 
ATOM     11  C   UNL     1      22.644  -9.512  22.534  0.00  0.00    +0.000 A 
ENDROOT
BRANCH   8  12
ATOM     12  C   UNL     1      19.899  -8.491  26.556  0.00  0.00    +0.000 A 
ATOM     13  C   UNL     1      18.838  -7.616  26.455  0.00  0.00    +0.000 A 
ATOM     14  C   UNL     1      17.869  -7.568  27.414  0.00  0.00    +0.000 A 
ATOM     15  N   UNL     1      16.798  -6.643  27.253  0.00  0.00    +0.000 NA
ATOM     16  C   UNL     1      17.948  -8.401  28.500  0.00  0.00    +0.000 A 
ATOM     17  C   UNL     1      19.027  -9.282  28.592  0.00  0.00    +0.000 A 
ATOM     18  C   UNL     1      20.003  -9.327  27.620  0.00  0.00    +0.000 A 
ATOM     19 CL   UNL     1      21.348 -10.445  27.761  0.00  0.00    +0.000 Cl
ENDBRANCH   8  12
TORSDOF 1
ENDMDL
MODEL 10
REMARK VINA RESULT:      -5.8      3.413      7.339
REMARK  Name = 
REMARK  1 active torsions:
REMARK  status: ('A' for Active; 'I' for Inactive)
REMARK    1  A    between atoms: C_8  and  C_9
REMARK                            x       y       z     vdW  Elec       q    Type
REMARK                         _______ _______ _______ _____ _____    ______ ____
ROOT
ATOM      1  C   UNL     1      23.758  26.038  27.559  0.00  0.00    +0.000 C 
ATOM      2  C   UNL     1      24.959  25.169  27.677  0.00  0.00    +0.000 A 
ATOM      3  C   UNL     1      25.342  24.401  26.596  0.00  0.00    +0.000 A 
ATOM      4  C   UNL     1      26.461  23.584  26.692  0.00  0.00    +0.000 A 
ATOM      5  C   UNL     1      26.842  22.774  25.512  0.00  0.00    +0.000 C 
ATOM      6  C   UNL     1      27.201  23.528  27.859  0.00  0.00    +0.000 A 
ATOM      7  O   UNL     1      28.270  22.861  28.211  0.00  0.00    +0.000 OA
ATOM      8  C   UNL     1      28.627  23.128  29.444  0.00  0.00    +0.000 A 
ATOM      9  N   UNL     1      27.733  24.019  29.910  0.00  0.00    +0.000 NA
ATOM     10  C   UNL     1      26.832  24.287  28.945  0.00  0.00    +0.000 A 
ATOM     11  C   UNL     1      25.716  25.092  28.828  0.00  0.00    +0.000 A 
ENDROOT
BRANCH   8  12
ATOM     12  C   UNL     1      29.782  22.561  30.172  0.00  0.00    +0.000 A 
ATOM     13  C   UNL     1      29.626  22.216  31.497  0.00  0.00    +0.000 A 
ATOM     14  C   UNL     1      30.659  21.688  32.216  0.00  0.00    +0.000 A 
ATOM     15  N   UNL     1      30.435  21.351  33.581  0.00  0.00    +0.000 NA
ATOM     16  C   UNL     1      31.875  21.497  31.614  0.00  0.00    +0.000 A 
ATOM     17  C   UNL     1      32.022  21.851  30.271  0.00  0.00    +0.000 A 
ATOM     18  C   UNL     1      30.975  22.383  29.550  0.00  0.00    +0.000 A 
ATOM     19 CL   UNL     1      31.188  22.819  27.864  0.00  0.00    +0.000 Cl
ENDBRANCH   8  12
TORSDOF 1
ENDMDL
