MODEL 1
REMARK VINA RESULT:      -7.9      0.000      0.000
REMARK  Name = 
REMARK  8 active torsions:
REMARK  status: ('A' for Active; 'I' for Inactive)
REMARK    1  A    between atoms: C_2  and  C_3
REMARK    2  A    between atoms: C_3  and  C_4
REMARK    3  A    between atoms: C_4  and  C_5
REMARK    4  A    between atoms: C_5  and  N_6
REMARK    5  A    between atoms: C_7  and  C_9
REMARK    6  A    between atoms: N_12  and  C_13
REMARK    7  A    between atoms: C_13  and  C_14
REMARK    8  A    between atoms: C_14  and  C_15
REMARK                            x       y       z     vdW  Elec       q    Type
REMARK                         _______ _______ _______ _____ _____    ______ ____
ROOT
ATOM      1  C   UNL     1      37.072   2.022  15.691  0.00  0.00    +0.000 A 
ATOM      2  C   UNL     1      35.935   1.341  16.060  0.00  0.00    +0.000 A 
ATOM      3  N   UNL     1      34.713   1.936  16.523  0.00  0.00    +0.000 NA
ATOM      4  N   UNL     1      36.170   0.027  15.910  0.00  0.00    +0.000 N 
ATOM      5  C   UNL     1      37.441  -0.141  15.451  0.00  0.00    +0.000 A 
ATOM      6  N   UNL     1      38.164  -1.219  15.141  0.00  0.00    +0.000 NA
ATOM      7  C   UNL     1      39.448  -1.117  14.690  0.00  0.00    +0.000 A 
ATOM      8  C   UNL     1      40.150  -2.262  14.384  0.00  0.00    +0.000 A 
ATOM      9  C   UNL     1      41.444  -2.162  13.929  0.00  0.00    +0.000 A 
ATOM     10  C   UNL     1      42.011  -0.927  13.790  0.00  0.00    +0.000 A 
ATOM     11  C   UNL     1      41.301   0.207  14.099  0.00  0.00    +0.000 A 
ATOM     12  C   UNL     1      40.004   0.138  14.557  0.00  0.00    +0.000 A 
ATOM     13  N   UNL     1      39.302   1.235  14.860  0.00  0.00    +0.000 NA
ATOM     14  C   UNL     1      38.033   1.100  15.304  0.00  0.00    +0.000 A 
ENDROOT
BRANCH   1  16
ATOM     15  N   UNL     1      38.130   4.121  16.608  0.00  0.00    +0.000 NA
ATOM     16  C   UNL     1      37.257   3.447  15.697  0.00  0.00    +0.000 C 
ATOM     17  O   UNL     1      36.633   4.153  14.874  0.00  0.00    +0.000 OA
BRANCH  15  18
ATOM     18  C   UNL     1      38.252   5.563  16.539  0.00  0.00    +0.000 C 
BRANCH  18  19
ATOM     19  C   UNL     1      38.323   6.115  17.949  0.00  0.00    +0.000 C 
BRANCH  19  20
ATOM     20  C   UNL     1      39.294   5.377  18.809  0.00  0.00    +0.000 C 
BRANCH  20  22
ATOM     21  C   UNL     1      39.368   7.351  20.278  0.00  0.00    +0.000 C 
ATOM     22  C   UNL     1      40.189   6.312  19.561  0.00  0.00    +0.000 C 
ENDBRANCH  20  22
ENDBRANCH  19  20
ENDBRANCH  18  19
ENDBRANCH  15  18
ENDBRANCH   1  16
BRANCH   4  23
ATOM     23  C   UNL     1      35.215  -1.042  16.196  0.00  0.00    +0.000 C 
BRANCH  23  24
ATOM     24  C   UNL     1      35.527  -1.524  17.611  0.00  0.00    +0.000 C 
BRANCH  24  25
ATOM     25  C   UNL     1      36.551  -2.573  17.632  0.00  0.00    +0.000 A 
ATOM     26  C   UNL     1      36.426  -3.673  16.822  0.00  0.00    +0.000 A 
ATOM     27  C   UNL     1      37.378  -4.667  16.830  0.00  0.00    +0.000 A 
ATOM     28  C   UNL     1      38.462  -4.543  17.664  0.00  0.00    +0.000 A 
ATOM     29  C   UNL     1      38.565  -3.436  18.463  0.00  0.00    +0.000 A 
ATOM     30  C   UNL     1      37.630  -2.440  18.469  0.00  0.00    +0.000 A 
ENDBRANCH  24  25
ENDBRANCH  23  24
ENDBRANCH   4  23
TORSDOF 8
ENDMDL
MODEL 2
REMARK VINA RESULT:      -7.7      2.737      7.102
REMARK  Name = 
REMARK  8 active torsions:
REMARK  status: ('A' for Active; 'I' for Inactive)
REMARK    1  A    between atoms: C_2  and  C_3
REMARK    2  A    between atoms: C_3  and  C_4
REMARK    3  A    between atoms: C_4  and  C_5
REMARK    4  A    between atoms: C_5  and  N_6
REMARK    5  A    between atoms: C_7  and  C_9
REMARK    6  A    between atoms: N_12  and  C_13
REMARK    7  A    between atoms: C_13  and  C_14
REMARK    8  A    between atoms: C_14  and  C_15
REMARK                            x       y       z     vdW  Elec       q    Type
REMARK                         _______ _______ _______ _____ _____    ______ ____
ROOT
ATOM      1  C   UNL     1      35.987  -0.364  16.498  0.00  0.00    +0.000 A 
ATOM      2  C   UNL     1      35.710   0.982  16.442  0.00  0.00    +0.000 A 
ATOM      3  N   UNL     1      34.500   1.610  16.894  0.00  0.00    +0.000 NA
ATOM      4  N   UNL     1      36.767   1.603  15.893  0.00  0.00    +0.000 N 
ATOM      5  C   UNL     1      37.716   0.671  15.597  0.00  0.00    +0.000 A 
ATOM      6  N   UNL     1      38.930   0.748  15.050  0.00  0.00    +0.000 NA
ATOM      7  C   UNL     1      39.702  -0.360  14.856  0.00  0.00    +0.000 A 
ATOM      8  C   UNL     1      40.949  -0.225  14.287  0.00  0.00    +0.000 A 
ATOM      9  C   UNL     1      41.729  -1.340  14.091  0.00  0.00    +0.000 A 
ATOM     10  C   UNL     1      41.252  -2.565  14.464  0.00  0.00    +0.000 A 
ATOM     11  C   UNL     1      40.007  -2.686  15.030  0.00  0.00    +0.000 A 
ATOM     12  C   UNL     1      39.204  -1.587  15.239  0.00  0.00    +0.000 A 
ATOM     13  N   UNL     1      37.990  -1.694  15.790  0.00  0.00    +0.000 NA
ATOM     14  C   UNL     1      37.251  -0.577  15.968  0.00  0.00    +0.000 A 
ENDROOT
BRANCH   1  16
ATOM     15  N   UNL     1      33.702  -1.349  16.916  0.00  0.00    +0.000 NA
ATOM     16  C   UNL     1      35.129  -1.394  17.015  0.00  0.00    +0.000 C 
ATOM     17  O   UNL     1      35.632  -2.389  17.583  0.00  0.00    +0.000 OA
BRANCH  15  18
ATOM     18  C   UNL     1      32.918  -2.436  17.467  0.00  0.00    +0.000 C 
BRANCH  18  19
ATOM     19  C   UNL     1      31.475  -1.987  17.582  0.00  0.00    +0.000 C 
BRANCH  19  20
ATOM     20  C   UNL     1      30.532  -3.124  17.797  0.00  0.00    +0.000 C 
BRANCH  20  22
ATOM     21  C   UNL     1      28.720  -2.872  19.443  0.00  0.00    +0.000 C 
ATOM     22  C   UNL     1      30.158  -3.269  19.238  0.00  0.00    +0.000 C 
ENDBRANCH  20  22
ENDBRANCH  19  20
ENDBRANCH  18  19
ENDBRANCH  15  18
ENDBRANCH   1  16
BRANCH   4  23
ATOM     23  C   UNL     1      36.875   3.040  15.653  0.00  0.00    +0.000 C 
BRANCH  23  24
ATOM     24  C   UNL     1      37.166   3.677  17.011  0.00  0.00    +0.000 C 
BRANCH  24  25
ATOM     25  C   UNL     1      38.369   4.515  16.990  0.00  0.00    +0.000 A 
ATOM     26  C   UNL     1      38.999   4.785  15.801  0.00  0.00    +0.000 A 
ATOM     27  C   UNL     1      40.129   5.570  15.765  0.00  0.00    +0.000 A 
ATOM     28  C   UNL     1      40.621   6.083  16.939  0.00  0.00    +0.000 A 
ATOM     29  C   UNL     1      39.975   5.800  18.113  0.00  0.00    +0.000 A 
ATOM     30  C   UNL     1      38.853   5.022  18.169  0.00  0.00    +0.000 A 
ENDBRANCH  24  25
ENDBRANCH  23  24
ENDBRANCH   4  23
TORSDOF 8
ENDMDL
MODEL 3
REMARK VINA RESULT:      -7.6      1.692      6.806
REMARK  Name = 
REMARK  8 active torsions:
REMARK  status: ('A' for Active; 'I' for Inactive)
REMARK    1  A    between atoms: C_2  and  C_3
REMARK    2  A    between atoms: C_3  and  C_4
REMARK    3  A    between atoms: C_4  and  C_5
REMARK    4  A    between atoms: C_5  and  N_6
REMARK    5  A    between atoms: C_7  and  C_9
REMARK    6  A    between atoms: N_12  and  C_13
REMARK    7  A    between atoms: C_13  and  C_14
REMARK    8  A    between atoms: C_14  and  C_15
REMARK                            x       y       z     vdW  Elec       q    Type
REMARK                         _______ _______ _______ _____ _____    ______ ____
ROOT
ATOM      1  C   UNL     1      36.253  -0.281  15.910  0.00  0.00    +0.000 A 
ATOM      2  C   UNL     1      35.864   1.031  16.047  0.00  0.00    +0.000 A 
ATOM      3  N   UNL     1      34.583   1.484  16.513  0.00  0.00    +0.000 NA
ATOM      4  N   UNL     1      36.891   1.811  15.669  0.00  0.00    +0.000 N 
ATOM      5  C   UNL     1      37.930   1.015  15.293  0.00  0.00    +0.000 A 
ATOM      6  N   UNL     1      39.159   1.272  14.843  0.00  0.00    +0.000 NA
ATOM      7  C   UNL     1      40.032   0.272  14.528  0.00  0.00    +0.000 A 
ATOM      8  C   UNL     1      41.290   0.593  14.067  0.00  0.00    +0.000 A 
ATOM      9  C   UNL     1      42.172  -0.413  13.750  0.00  0.00    +0.000 A 
ATOM     10  C   UNL     1      41.784  -1.715  13.897  0.00  0.00    +0.000 A 
ATOM     11  C   UNL     1      40.527  -2.021  14.357  0.00  0.00    +0.000 A 
ATOM     12  C   UNL     1      39.623  -1.035  14.682  0.00  0.00    +0.000 A 
ATOM     13  N   UNL     1      38.396  -1.322  15.132  0.00  0.00    +0.000 NA
ATOM     14  C   UNL     1      37.556  -0.308  15.435  0.00  0.00    +0.000 A 
ENDROOT
BRANCH   1  16
ATOM     15  N   UNL     1      35.260  -2.511  15.273  0.00  0.00    +0.000 NA
ATOM     16  C   UNL     1      35.462  -1.444  16.204  0.00  0.00    +0.000 C 
ATOM     17  O   UNL     1      34.913  -1.550  17.323  0.00  0.00    +0.000 OA
BRANCH  15  18
ATOM     18  C   UNL     1      34.444  -3.645  15.659  0.00  0.00    +0.000 C 
BRANCH  18  19
ATOM     19  C   UNL     1      35.307  -4.892  15.652  0.00  0.00    +0.000 C 
BRANCH  19  20
ATOM     20  C   UNL     1      36.766  -4.584  15.598  0.00  0.00    +0.000 C 
BRANCH  20  22
ATOM     21  C   UNL     1      38.520  -4.188  17.279  0.00  0.00    +0.000 C 
ATOM     22  C   UNL     1      37.498  -5.168  16.765  0.00  0.00    +0.000 C 
ENDBRANCH  20  22
ENDBRANCH  19  20
ENDBRANCH  18  19
ENDBRANCH  15  18
ENDBRANCH   1  16
BRANCH   4  23
ATOM     23  C   UNL     1      36.886   3.273  15.664  0.00  0.00    +0.000 C 
BRANCH  23  24
ATOM     24  C   UNL     1      37.316   3.704  17.065  0.00  0.00    +0.000 C 
BRANCH  24  25
ATOM     25  C   UNL     1      38.499   4.571  17.045  0.00  0.00    +0.000 A 
ATOM     26  C   UNL     1      39.105   4.881  15.854  0.00  0.00    +0.000 A 
ATOM     27  C   UNL     1      40.216   5.693  15.819  0.00  0.00    +0.000 A 
ATOM     28  C   UNL     1      40.712   6.193  16.998  0.00  0.00    +0.000 A 
ATOM     29  C   UNL     1      40.090   5.870  18.173  0.00  0.00    +0.000 A 
ATOM     30  C   UNL     1      38.987   5.065  18.228  0.00  0.00    +0.000 A 
ENDBRANCH  24  25
ENDBRANCH  23  24
ENDBRANCH   4  23
TORSDOF 8
ENDMDL
MODEL 4
REMARK VINA RESULT:      -7.3      2.111      7.408
REMARK  Name = 
REMARK  8 active torsions:
REMARK  status: ('A' for Active; 'I' for Inactive)
REMARK    1  A    between atoms: C_2  and  C_3
REMARK    2  A    between atoms: C_3  and  C_4
REMARK    3  A    between atoms: C_4  and  C_5
REMARK    4  A    between atoms: C_5  and  N_6
REMARK    5  A    between atoms: C_7  and  C_9
REMARK    6  A    between atoms: N_12  and  C_13
REMARK    7  A    between atoms: C_13  and  C_14
REMARK    8  A    between atoms: C_14  and  C_15
REMARK                            x       y       z     vdW  Elec       q    Type
REMARK                         _______ _______ _______ _____ _____    ______ ____
ROOT
ATOM      1  C   UNL     1      39.393   1.877  14.149  0.00  0.00    +0.000 A 
ATOM      2  C   UNL     1      39.445   3.220  14.446  0.00  0.00    +0.000 A 
ATOM      3  N   UNL     1      40.411   4.154  13.941  0.00  0.00    +0.000 NA
ATOM      4  N   UNL     1      38.436   3.499  15.287  0.00  0.00    +0.000 N 
ATOM      5  C   UNL     1      37.740   2.354  15.532  0.00  0.00    +0.000 A 
ATOM      6  N   UNL     1      36.671   2.080  16.282  0.00  0.00    +0.000 NA
ATOM      7  C   UNL     1      36.154   0.819  16.360  0.00  0.00    +0.000 A 
ATOM      8  C   UNL     1      35.048   0.590  17.149  0.00  0.00    +0.000 A 
ATOM      9  C   UNL     1      34.525  -0.679  17.230  0.00  0.00    +0.000 A 
ATOM     10  C   UNL     1      35.113  -1.692  16.526  0.00  0.00    +0.000 A 
ATOM     11  C   UNL     1      36.216  -1.450  15.744  0.00  0.00    +0.000 A 
ATOM     12  C   UNL     1      36.761  -0.190  15.644  0.00  0.00    +0.000 A 
ATOM     13  N   UNL     1      37.835   0.058  14.884  0.00  0.00    +0.000 NA
ATOM     14  C   UNL     1      38.321   1.316  14.828  0.00  0.00    +0.000 A 
ENDROOT
BRANCH   1  16
ATOM     15  N   UNL     1      41.545   0.633  13.719  0.00  0.00    +0.000 NA
ATOM     16  C   UNL     1      40.286   1.156  13.285  0.00  0.00    +0.000 C 
ATOM     17  O   UNL     1      39.968   0.964  12.091  0.00  0.00    +0.000 OA
BRANCH  15  18
ATOM     18  C   UNL     1      42.380  -0.082  12.774  0.00  0.00    +0.000 C 
BRANCH  18  19
ATOM     19  C   UNL     1      42.267  -1.569  13.050  0.00  0.00    +0.000 C 
BRANCH  19  20
ATOM     20  C   UNL     1      41.945  -1.868  14.476  0.00  0.00    +0.000 C 
BRANCH  20  22
ATOM     21  C   UNL     1      39.938  -2.634  13.273  0.00  0.00    +0.000 C 
ATOM     22  C   UNL     1      40.620  -2.550  14.613  0.00  0.00    +0.000 C 
ENDBRANCH  20  22
ENDBRANCH  19  20
ENDBRANCH  18  19
ENDBRANCH  15  18
ENDBRANCH   1  16
BRANCH   4  23
ATOM     23  C   UNL     1      38.140   4.817  15.845  0.00  0.00    +0.000 C 
BRANCH  23  24
ATOM     24  C   UNL     1      38.293   4.682  17.359  0.00  0.00    +0.000 C 
BRANCH  24  25
ATOM     25  C   UNL     1      39.418   5.466  17.880  0.00  0.00    +0.000 A 
ATOM     26  C   UNL     1      39.445   5.838  19.200  0.00  0.00    +0.000 A 
ATOM     27  C   UNL     1      40.493   6.573  19.704  0.00  0.00    +0.000 A 
ATOM     28  C   UNL     1      41.519   6.931  18.865  0.00  0.00    +0.000 A 
ATOM     29  C   UNL     1      41.471   6.547  17.551  0.00  0.00    +0.000 A 
ATOM     30  C   UNL     1      40.438   5.819  17.033  0.00  0.00    +0.000 A 
ENDBRANCH  24  25
ENDBRANCH  23  24
ENDBRANCH   4  23
TORSDOF 8
ENDMDL
MODEL 5
REMARK VINA RESULT:      -7.2      1.896      4.484
REMARK  Name = 
REMARK  8 active torsions:
REMARK  status: ('A' for Active; 'I' for Inactive)
REMARK    1  A    between atoms: C_2  and  C_3
REMARK    2  A    between atoms: C_3  and  C_4
REMARK    3  A    between atoms: C_4  and  C_5
REMARK    4  A    between atoms: C_5  and  N_6
REMARK    5  A    between atoms: C_7  and  C_9
REMARK    6  A    between atoms: N_12  and  C_13
REMARK    7  A    between atoms: C_13  and  C_14
REMARK    8  A    between atoms: C_14  and  C_15
REMARK                            x       y       z     vdW  Elec       q    Type
REMARK                         _______ _______ _______ _____ _____    ______ ____
ROOT
ATOM      1  C   UNL     1      38.025   3.321  15.362  0.00  0.00    +0.000 A 
ATOM      2  C   UNL     1      38.564   3.220  14.100  0.00  0.00    +0.000 A 
ATOM      3  N   UNL     1      39.343   4.228  13.437  0.00  0.00    +0.000 NA
ATOM      4  N   UNL     1      38.233   2.018  13.602  0.00  0.00    +0.000 N 
ATOM      5  C   UNL     1      37.491   1.349  14.527  0.00  0.00    +0.000 A 
ATOM      6  N   UNL     1      36.920   0.143  14.540  0.00  0.00    +0.000 NA
ATOM      7  C   UNL     1      36.212  -0.304  15.617  0.00  0.00    +0.000 A 
ATOM      8  C   UNL     1      35.644  -1.559  15.579  0.00  0.00    +0.000 A 
ATOM      9  C   UNL     1      34.929  -2.012  16.663  0.00  0.00    +0.000 A 
ATOM     10  C   UNL     1      34.795  -1.209  17.760  0.00  0.00    +0.000 A 
ATOM     11  C   UNL     1      35.366   0.040  17.785  0.00  0.00    +0.000 A 
ATOM     12  C   UNL     1      36.087   0.520  16.715  0.00  0.00    +0.000 A 
ATOM     13  N   UNL     1      36.649   1.735  16.729  0.00  0.00    +0.000 NA
ATOM     14  C   UNL     1      37.344   2.147  15.647  0.00  0.00    +0.000 A 
ENDROOT
BRANCH   1  16
ATOM     15  N   UNL     1      38.750   4.363  17.542  0.00  0.00    +0.000 NA
ATOM     16  C   UNL     1      38.135   4.443  16.253  0.00  0.00    +0.000 C 
ATOM     17  O   UNL     1      37.678   5.555  15.905  0.00  0.00    +0.000 OA
BRANCH  15  18
ATOM     18  C   UNL     1      38.815   5.550  18.372  0.00  0.00    +0.000 C 
BRANCH  18  19
ATOM     19  C   UNL     1      40.249   6.042  18.408  0.00  0.00    +0.000 C 
BRANCH  19  20
ATOM     20  C   UNL     1      40.756   6.240  19.797  0.00  0.00    +0.000 C 
BRANCH  20  22
ATOM     21  C   UNL     1      42.811   6.176  21.151  0.00  0.00    +0.000 C 
ATOM     22  C   UNL     1      42.221   6.540  19.814  0.00  0.00    +0.000 C 
ENDBRANCH  20  22
ENDBRANCH  19  20
ENDBRANCH  18  19
ENDBRANCH  15  18
ENDBRANCH   1  16
BRANCH   4  23
ATOM     23  C   UNL     1      38.611   1.516  12.282  0.00  0.00    +0.000 C 
BRANCH  23  24
ATOM     24  C   UNL     1      40.056   1.038  12.406  0.00  0.00    +0.000 C 
BRANCH  24  25
ATOM     25  C   UNL     1      40.157  -0.284  13.032  0.00  0.00    +0.000 A 
ATOM     26  C   UNL     1      39.504  -1.358  12.481  0.00  0.00    +0.000 A 
ATOM     27  C   UNL     1      39.588  -2.605  13.056  0.00  0.00    +0.000 A 
ATOM     28  C   UNL     1      40.339  -2.764  14.195  0.00  0.00    +0.000 A 
ATOM     29  C   UNL     1      40.981  -1.677  14.726  0.00  0.00    +0.000 A 
ATOM     30  C   UNL     1      40.908  -0.432  14.170  0.00  0.00    +0.000 A 
ENDBRANCH  24  25
ENDBRANCH  23  24
ENDBRANCH   4  23
TORSDOF 8
ENDMDL
MODEL 6
REMARK VINA RESULT:      -7.2      2.010      6.524
REMARK  Name = 
REMARK  8 active torsions:
REMARK  status: ('A' for Active; 'I' for Inactive)
REMARK    1  A    between atoms: C_2  and  C_3
REMARK    2  A    between atoms: C_3  and  C_4
REMARK    3  A    between atoms: C_4  and  C_5
REMARK    4  A    between atoms: C_5  and  N_6
REMARK    5  A    between atoms: C_7  and  C_9
REMARK    6  A    between atoms: N_12  and  C_13
REMARK    7  A    between atoms: C_13  and  C_14
REMARK    8  A    between atoms: C_14  and  C_15
REMARK                            x       y       z     vdW  Elec       q    Type
REMARK                         _______ _______ _______ _____ _____    ______ ____
ROOT
ATOM      1  C   UNL     1      36.822   2.514  15.914  0.00  0.00    +0.000 A 
ATOM      2  C   UNL     1      36.976   2.351  14.556  0.00  0.00    +0.000 A 
ATOM      3  N   UNL     1      36.230   1.446  13.728  0.00  0.00    +0.000 NA
ATOM      4  N   UNL     1      37.945   3.185  14.145  0.00  0.00    +0.000 N 
ATOM      5  C   UNL     1      38.412   3.879  15.221  0.00  0.00    +0.000 A 
ATOM      6  N   UNL     1      39.353   4.813  15.365  0.00  0.00    +0.000 NA
ATOM      7  C   UNL     1      39.637   5.364  16.581  0.00  0.00    +0.000 A 
ATOM      8  C   UNL     1      40.618   6.326  16.675  0.00  0.00    +0.000 A 
ATOM      9  C   UNL     1      40.906   6.883  17.899  0.00  0.00    +0.000 A 
ATOM     10  C   UNL     1      40.213   6.471  19.001  0.00  0.00    +0.000 A 
ATOM     11  C   UNL     1      39.237   5.511  18.894  0.00  0.00    +0.000 A 
ATOM     12  C   UNL     1      38.927   4.936  17.683  0.00  0.00    +0.000 A 
ATOM     13  N   UNL     1      37.978   4.000  17.566  0.00  0.00    +0.000 NA
ATOM     14  C   UNL     1      37.721   3.475  16.349  0.00  0.00    +0.000 A 
ENDROOT
BRANCH   1  16
ATOM     15  N   UNL     1      36.289   0.830  17.716  0.00  0.00    +0.000 NA
ATOM     16  C   UNL     1      35.892   1.816  16.759  0.00  0.00    +0.000 C 
ATOM     17  O   UNL     1      34.670   2.068  16.671  0.00  0.00    +0.000 OA
BRANCH  15  18
ATOM     18  C   UNL     1      35.279   0.179  18.525  0.00  0.00    +0.000 C 
BRANCH  18  19
ATOM     19  C   UNL     1      35.305  -1.309  18.234  0.00  0.00    +0.000 C 
BRANCH  19  20
ATOM     20  C   UNL     1      34.658  -1.655  16.935  0.00  0.00    +0.000 C 
BRANCH  20  22
ATOM     21  C   UNL     1      36.298  -1.777  15.103  0.00  0.00    +0.000 C 
ATOM     22  C   UNL     1      35.514  -2.569  16.116  0.00  0.00    +0.000 C 
ENDBRANCH  20  22
ENDBRANCH  19  20
ENDBRANCH  18  19
ENDBRANCH  15  18
ENDBRANCH   1  16
BRANCH   4  23
ATOM     23  C   UNL     1      38.418   3.322  12.769  0.00  0.00    +0.000 C 
BRANCH  23  24
ATOM     24  C   UNL     1      39.817   2.710  12.737  0.00  0.00    +0.000 C 
BRANCH  24  25
ATOM     25  C   UNL     1      39.805   1.270  13.015  0.00  0.00    +0.000 A 
ATOM     26  C   UNL     1      39.252   0.399  12.110  0.00  0.00    +0.000 A 
ATOM     27  C   UNL     1      39.233  -0.955  12.357  0.00  0.00    +0.000 A 
ATOM     28  C   UNL     1      39.779  -1.426  13.525  0.00  0.00    +0.000 A 
ATOM     29  C   UNL     1      40.325  -0.538  14.412  0.00  0.00    +0.000 A 
ATOM     30  C   UNL     1      40.352   0.809  14.186  0.00  0.00    +0.000 A 
ENDBRANCH  24  25
ENDBRANCH  23  24
ENDBRANCH   4  23
TORSDOF 8
ENDMDL
MODEL 7
REMARK VINA RESULT:      -7.2      1.451      2.190
REMARK  Name = 
REMARK  8 active torsions:
REMARK  status: ('A' for Active; 'I' for Inactive)
REMARK    1  A    between atoms: C_2  and  C_3
REMARK    2  A    between atoms: C_3  and  C_4
REMARK    3  A    between atoms: C_4  and  C_5
REMARK    4  A    between atoms: C_5  and  N_6
REMARK    5  A    between atoms: C_7  and  C_9
REMARK    6  A    between atoms: N_12  and  C_13
REMARK    7  A    between atoms: C_13  and  C_14
REMARK    8  A    between atoms: C_14  and  C_15
REMARK                            x       y       z     vdW  Elec       q    Type
REMARK                         _______ _______ _______ _____ _____    ______ ____
ROOT
ATOM      1  C   UNL     1      38.455   1.452  14.718  0.00  0.00    +0.000 A 
ATOM      2  C   UNL     1      37.304   0.699  14.714  0.00  0.00    +0.000 A 
ATOM      3  N   UNL     1      35.979   1.187  14.973  0.00  0.00    +0.000 NA
ATOM      4  N   UNL     1      37.638  -0.570  14.428  0.00  0.00    +0.000 N 
ATOM      5  C   UNL     1      38.987  -0.637  14.247  0.00  0.00    +0.000 A 
ATOM      6  N   UNL     1      39.819  -1.638  13.951  0.00  0.00    +0.000 NA
ATOM      7  C   UNL     1      41.163  -1.439  13.823  0.00  0.00    +0.000 A 
ATOM      8  C   UNL     1      41.977  -2.507  13.515  0.00  0.00    +0.000 A 
ATOM      9  C   UNL     1      43.332  -2.310  13.386  0.00  0.00    +0.000 A 
ATOM     10  C   UNL     1      43.847  -1.057  13.564  0.00  0.00    +0.000 A 
ATOM     11  C   UNL     1      43.024  -0.002  13.871  0.00  0.00    +0.000 A 
ATOM     12  C   UNL     1      41.664  -0.169  14.007  0.00  0.00    +0.000 A 
ATOM     13  N   UNL     1      40.852   0.853  14.305  0.00  0.00    +0.000 NA
ATOM     14  C   UNL     1      39.527   0.623  14.425  0.00  0.00    +0.000 A 
ENDROOT
BRANCH   1  16
ATOM     15  N   UNL     1      38.521   3.421  16.295  0.00  0.00    +0.000 NA
ATOM     16  C   UNL     1      38.554   2.862  14.978  0.00  0.00    +0.000 C 
ATOM     17  O   UNL     1      38.676   3.659  14.022  0.00  0.00    +0.000 OA
BRANCH  15  18
ATOM     18  C   UNL     1      38.628   4.856  16.459  0.00  0.00    +0.000 C 
BRANCH  18  19
ATOM     19  C   UNL     1      38.654   5.178  17.941  0.00  0.00    +0.000 C 
BRANCH  19  20
ATOM     20  C   UNL     1      39.227   6.525  18.229  0.00  0.00    +0.000 C 
BRANCH  20  22
ATOM     21  C   UNL     1      40.891   6.341  20.033  0.00  0.00    +0.000 C 
ATOM     22  C   UNL     1      39.474   6.720  19.692  0.00  0.00    +0.000 C 
ENDBRANCH  20  22
ENDBRANCH  19  20
ENDBRANCH  18  19
ENDBRANCH  15  18
ENDBRANCH   1  16
BRANCH   4  23
ATOM     23  C   UNL     1      36.705  -1.690  14.327  0.00  0.00    +0.000 C 
BRANCH  23  24
ATOM     24  C   UNL     1      36.963  -2.570  15.548  0.00  0.00    +0.000 C 
BRANCH  24  25
ATOM     25  C   UNL     1      36.568  -1.920  16.801  0.00  0.00    +0.000 A 
ATOM     26  C   UNL     1      35.271  -1.510  16.985  0.00  0.00    +0.000 A 
ATOM     27  C   UNL     1      34.885  -0.898  18.155  0.00  0.00    +0.000 A 
ATOM     28  C   UNL     1      35.818  -0.701  19.143  0.00  0.00    +0.000 A 
ATOM     29  C   UNL     1      37.105  -1.119  18.937  0.00  0.00    +0.000 A 
ATOM     30  C   UNL     1      37.508  -1.727  17.782  0.00  0.00    +0.000 A 
ENDBRANCH  24  25
ENDBRANCH  23  24
ENDBRANCH   4  23
TORSDOF 8
ENDMDL
MODEL 8
REMARK VINA RESULT:      -6.9      3.500      7.965
REMARK  Name = 
REMARK  8 active torsions:
REMARK  status: ('A' for Active; 'I' for Inactive)
REMARK    1  A    between atoms: C_2  and  C_3
REMARK    2  A    between atoms: C_3  and  C_4
REMARK    3  A    between atoms: C_4  and  C_5
REMARK    4  A    between atoms: C_5  and  N_6
REMARK    5  A    between atoms: C_7  and  C_9
REMARK    6  A    between atoms: N_12  and  C_13
REMARK    7  A    between atoms: C_13  and  C_14
REMARK    8  A    between atoms: C_14  and  C_15
REMARK                            x       y       z     vdW  Elec       q    Type
REMARK                         _______ _______ _______ _____ _____    ______ ____
ROOT
ATOM      1  C   UNL     1      37.931   2.631  13.694  0.00  0.00    +0.000 A 
ATOM      2  C   UNL     1      38.171   3.893  14.187  0.00  0.00    +0.000 A 
ATOM      3  N   UNL     1      38.806   4.967  13.475  0.00  0.00    +0.000 NA
ATOM      4  N   UNL     1      37.710   3.942  15.447  0.00  0.00    +0.000 N 
ATOM      5  C   UNL     1      37.178   2.730  15.766  0.00  0.00    +0.000 A 
ATOM      6  N   UNL     1      36.597   2.249  16.868  0.00  0.00    +0.000 NA
ATOM      7  C   UNL     1      36.137   0.967  16.935  0.00  0.00    +0.000 A 
ATOM      8  C   UNL     1      35.544   0.522  18.097  0.00  0.00    +0.000 A 
ATOM      9  C   UNL     1      35.079  -0.771  18.167  0.00  0.00    +0.000 A 
ATOM     10  C   UNL     1      35.212  -1.591  17.083  0.00  0.00    +0.000 A 
ATOM     11  C   UNL     1      35.805  -1.135  15.931  0.00  0.00    +0.000 A 
ATOM     12  C   UNL     1      36.280   0.154  15.831  0.00  0.00    +0.000 A 
ATOM     13  N   UNL     1      36.858   0.610  14.714  0.00  0.00    +0.000 NA
ATOM     14  C   UNL     1      37.304   1.884  14.679  0.00  0.00    +0.000 A 
ENDROOT
BRANCH   1  16
ATOM     15  N   UNL     1      37.288   1.897  11.368  0.00  0.00    +0.000 NA
ATOM     16  C   UNL     1      38.264   2.147  12.383  0.00  0.00    +0.000 C 
ATOM     17  O   UNL     1      39.461   1.926  12.093  0.00  0.00    +0.000 OA
BRANCH  15  18
ATOM     18  C   UNL     1      37.720   1.408  10.073  0.00  0.00    +0.000 C 
BRANCH  18  19
ATOM     19  C   UNL     1      36.629   1.686   9.058  0.00  0.00    +0.000 C 
BRANCH  19  20
ATOM     20  C   UNL     1      37.059   1.406   7.657  0.00  0.00    +0.000 C 
BRANCH  20  22
ATOM     21  C   UNL     1      35.741   3.446   7.262  0.00  0.00    +0.000 C 
ATOM     22  C   UNL     1      36.889   2.603   6.776  0.00  0.00    +0.000 C 
ENDBRANCH  20  22
ENDBRANCH  19  20
ENDBRANCH  18  19
ENDBRANCH  15  18
ENDBRANCH   1  16
BRANCH   4  23
ATOM     23  C   UNL     1      37.772   5.108  16.327  0.00  0.00    +0.000 C 
BRANCH  23  24
ATOM     24  C   UNL     1      38.934   4.856  17.285  0.00  0.00    +0.000 C 
BRANCH  24  25
ATOM     25  C   UNL     1      39.052   5.900  18.309  0.00  0.00    +0.000 A 
ATOM     26  C   UNL     1      38.149   6.933  18.345  0.00  0.00    +0.000 A 
ATOM     27  C   UNL     1      38.246   7.920  19.300  0.00  0.00    +0.000 A 
ATOM     28  C   UNL     1      39.263   7.858  20.221  0.00  0.00    +0.000 A 
ATOM     29  C   UNL     1      40.151   6.817  20.164  0.00  0.00    +0.000 A 
ATOM     30  C   UNL     1      40.072   5.829  19.224  0.00  0.00    +0.000 A 
ENDBRANCH  24  25
ENDBRANCH  23  24
ENDBRANCH   4  23
TORSDOF 8
ENDMDL
MODEL 9
REMARK VINA RESULT:      -6.9      3.116      8.433
REMARK  Name = 
REMARK  8 active torsions:
REMARK  status: ('A' for Active; 'I' for Inactive)
REMARK    1  A    between atoms: C_2  and  C_3
REMARK    2  A    between atoms: C_3  and  C_4
REMARK    3  A    between atoms: C_4  and  C_5
REMARK    4  A    between atoms: C_5  and  N_6
REMARK    5  A    between atoms: C_7  and  C_9
REMARK    6  A    between atoms: N_12  and  C_13
REMARK    7  A    between atoms: C_13  and  C_14
REMARK    8  A    between atoms: C_14  and  C_15
REMARK                            x       y       z     vdW  Elec       q    Type
REMARK                         _______ _______ _______ _____ _____    ______ ____
ROOT
ATOM      1  C   UNL     1      38.102   3.019  14.720  0.00  0.00    +0.000 A 
ATOM      2  C   UNL     1      37.575   3.511  13.548  0.00  0.00    +0.000 A 
ATOM      3  N   UNL     1      37.276   2.741  12.373  0.00  0.00    +0.000 NA
ATOM      4  N   UNL     1      37.390   4.833  13.697  0.00  0.00    +0.000 N 
ATOM      5  C   UNL     1      37.792   5.192  14.948  0.00  0.00    +0.000 A 
ATOM      6  N   UNL     1      37.822   6.359  15.596  0.00  0.00    +0.000 NA
ATOM      7  C   UNL     1      38.283   6.456  16.877  0.00  0.00    +0.000 A 
ATOM      8  C   UNL     1      38.292   7.685  17.500  0.00  0.00    +0.000 A 
ATOM      9  C   UNL     1      38.755   7.785  18.791  0.00  0.00    +0.000 A 
ATOM     10  C   UNL     1      39.199   6.664  19.433  0.00  0.00    +0.000 A 
ATOM     11  C   UNL     1      39.185   5.446  18.800  0.00  0.00    +0.000 A 
ATOM     12  C   UNL     1      38.727   5.314  17.509  0.00  0.00    +0.000 A 
ATOM     13  N   UNL     1      38.707   4.132  16.882  0.00  0.00    +0.000 NA
ATOM     14  C   UNL     1      38.246   4.069  15.614  0.00  0.00    +0.000 A 
ENDROOT
BRANCH   1  16
ATOM     15  N   UNL     1      37.513   0.679  15.456  0.00  0.00    +0.000 NA
ATOM     16  C   UNL     1      38.453   1.653  14.994  0.00  0.00    +0.000 C 
ATOM     17  O   UNL     1      39.634   1.274  14.827  0.00  0.00    +0.000 OA
BRANCH  15  18
ATOM     18  C   UNL     1      37.960  -0.676  15.706  0.00  0.00    +0.000 C 
BRANCH  18  19
ATOM     19  C   UNL     1      36.998  -1.338  16.673  0.00  0.00    +0.000 C 
BRANCH  19  20
ATOM     20  C   UNL     1      37.577  -1.509  18.037  0.00  0.00    +0.000 C 
BRANCH  20  22
ATOM     21  C   UNL     1      36.039   0.231  18.852  0.00  0.00    +0.000 C 
ATOM     22  C   UNL     1      36.595  -1.145  19.106  0.00  0.00    +0.000 C 
ENDBRANCH  20  22
ENDBRANCH  19  20
ENDBRANCH  18  19
ENDBRANCH  15  18
ENDBRANCH   1  16
BRANCH   4  23
ATOM     23  C   UNL     1      36.848   5.732  12.681  0.00  0.00    +0.000 C 
BRANCH  23  24
ATOM     24  C   UNL     1      35.341   5.787  12.922  0.00  0.00    +0.000 C 
BRANCH  24  25
ATOM     25  C   UNL     1      34.907   7.078  13.465  0.00  0.00    +0.000 A 
ATOM     26  C   UNL     1      33.983   7.123  14.479  0.00  0.00    +0.000 A 
ATOM     27  C   UNL     1      33.566   8.327  14.999  0.00  0.00    +0.000 A 
ATOM     28  C   UNL     1      34.090   9.490  14.490  0.00  0.00    +0.000 A 
ATOM     29  C   UNL     1      35.010   9.419  13.479  0.00  0.00    +0.000 A 
ATOM     30  C   UNL     1      35.436   8.234  12.949  0.00  0.00    +0.000 A 
ENDBRANCH  24  25
ENDBRANCH  23  24
ENDBRANCH   4  23
TORSDOF 8
ENDMDL
MODEL 10
REMARK VINA RESULT:      -6.9      2.605      3.671
REMARK  Name = 
REMARK  8 active torsions:
REMARK  status: ('A' for Active; 'I' for Inactive)
REMARK    1  A    between atoms: C_2  and  C_3
REMARK    2  A    between atoms: C_3  and  C_4
REMARK    3  A    between atoms: C_4  and  C_5
REMARK    4  A    between atoms: C_5  and  N_6
REMARK    5  A    between atoms: C_7  and  C_9
REMARK    6  A    between atoms: N_12  and  C_13
REMARK    7  A    between atoms: C_13  and  C_14
REMARK    8  A    between atoms: C_14  and  C_15
REMARK                            x       y       z     vdW  Elec       q    Type
REMARK                         _______ _______ _______ _____ _____    ______ ____
ROOT
ATOM      1  C   UNL     1      36.626   1.666  15.733  0.00  0.00    +0.000 A 
ATOM      2  C   UNL     1      35.705   0.984  16.495  0.00  0.00    +0.000 A 
ATOM      3  N   UNL     1      34.463   1.514  16.984  0.00  0.00    +0.000 NA
ATOM      4  N   UNL     1      36.172  -0.258  16.699  0.00  0.00    +0.000 N 
ATOM      5  C   UNL     1      37.378  -0.380  16.078  0.00  0.00    +0.000 A 
ATOM      6  N   UNL     1      38.251  -1.384  15.969  0.00  0.00    +0.000 NA
ATOM      7  C   UNL     1      39.417  -1.249  15.274  0.00  0.00    +0.000 A 
ATOM      8  C   UNL     1      40.283  -2.317  15.192  0.00  0.00    +0.000 A 
ATOM      9  C   UNL     1      41.459  -2.183  14.493  0.00  0.00    +0.000 A 
ATOM     10  C   UNL     1      41.748  -0.992  13.890  0.00  0.00    +0.000 A 
ATOM     11  C   UNL     1      40.877   0.065  13.979  0.00  0.00    +0.000 A 
ATOM     12  C   UNL     1      39.692  -0.039  14.673  0.00  0.00    +0.000 A 
ATOM     13  N   UNL     1      38.835   0.984  14.766  0.00  0.00    +0.000 NA
ATOM     14  C   UNL     1      37.689   0.818  15.461  0.00  0.00    +0.000 A 
ENDROOT
BRANCH   1  16
ATOM     15  N   UNL     1      35.576   3.461  14.305  0.00  0.00    +0.000 NA
ATOM     16  C   UNL     1      36.525   3.027  15.283  0.00  0.00    +0.000 C 
ATOM     17  O   UNL     1      37.295   3.892  15.756  0.00  0.00    +0.000 OA
BRANCH  15  18
ATOM     18  C   UNL     1      35.549   4.856  13.913  0.00  0.00    +0.000 C 
BRANCH  18  19
ATOM     19  C   UNL     1      36.336   5.017  12.627  0.00  0.00    +0.000 C 
BRANCH  19  20
ATOM     20  C   UNL     1      35.662   5.917  11.647  0.00  0.00    +0.000 C 
BRANCH  20  22
ATOM     21  C   UNL     1      34.672   8.169  11.745  0.00  0.00    +0.000 C 
ATOM     22  C   UNL     1      34.623   6.771  12.302  0.00  0.00    +0.000 C 
ENDBRANCH  20  22
ENDBRANCH  19  20
ENDBRANCH  18  19
ENDBRANCH  15  18
ENDBRANCH   1  16
BRANCH   4  23
ATOM     23  C   UNL     1      35.493  -1.303  17.463  0.00  0.00    +0.000 C 
BRANCH  23  24
ATOM     24  C   UNL     1      34.416  -1.872  16.542  0.00  0.00    +0.000 C 
BRANCH  24  25
ATOM     25  C   UNL     1      34.691  -3.258  16.148  0.00  0.00    +0.000 A 
ATOM     26  C   UNL     1      35.861  -3.863  16.532  0.00  0.00    +0.000 A 
ATOM     27  C   UNL     1      36.133  -5.163  16.170  0.00  0.00    +0.000 A 
ATOM     28  C   UNL     1      35.215  -5.851  15.416  0.00  0.00    +0.000 A 
ATOM     29  C   UNL     1      34.055  -5.225  15.045  0.00  0.00    +0.000 A 
ATOM     30  C   UNL     1      33.767  -3.936  15.394  0.00  0.00    +0.000 A 
ENDBRANCH  24  25
ENDBRANCH  23  24
ENDBRANCH   4  23
TORSDOF 8
ENDMDL
