MODEL 1
REMARK VINA RESULT:      -9.7      0.000      0.000
REMARK  Name = 
REMARK  5 active torsions:
REMARK  status: ('A' for Active; 'I' for Inactive)
REMARK    1  A    between atoms: C_2  and  C_5
REMARK    2  A    between atoms: C_8  and  C_9
REMARK    3  A    between atoms: C_11  and  C_12
REMARK    4  A    between atoms: N_14  and  C_15
REMARK    5  A    between atoms: C_15  and  C_16
REMARK                            x       y       z     vdW  Elec       q    Type
REMARK                         _______ _______ _______ _____ _____    ______ ____
ROOT
ATOM      1  C   UNL     1      38.905   5.326  16.948  0.00  0.00    +0.000 A 
ATOM      2  C   UNL     1      38.220   4.164  17.098  0.00  0.00    +0.000 A 
ATOM      3  C   UNL     1      37.174   3.829  16.264  0.00  0.00    +0.000 A 
ATOM      4  C   UNL     1      36.808   4.741  15.218  0.00  0.00    +0.000 A 
ATOM      5  C   UNL     1      35.736   4.412  14.426  0.00  0.00    +0.000 A 
ATOM      6  C   UNL     1      35.346   5.293  13.442  0.00  0.00    +0.000 A 
ATOM      7  C   UNL     1      36.030   6.487  13.279  0.00  0.00    +0.000 A 
ATOM      8  C   UNL     1      37.104   6.780  14.096  0.00  0.00    +0.000 A 
ATOM      9  C   UNL     1      37.511   5.897  15.090  0.00  0.00    +0.000 A 
ATOM     10  N   UNL     1      38.493   6.143  15.917  0.00  0.00    +0.000 NA
ENDROOT
BRANCH   1  14
ATOM     11  C   UNL     1      42.085   6.711  19.466  0.00  0.00    +0.000 A 
ATOM     12  C   UNL     1      42.313   6.655  18.084  0.00  0.00    +0.000 A 
ATOM     13  C   UNL     1      41.257   6.215  17.249  0.00  0.00    +0.000 A 
ATOM     14  C   UNL     1      40.019   5.833  17.749  0.00  0.00    +0.000 A 
ATOM     15  C   UNL     1      39.826   5.897  19.129  0.00  0.00    +0.000 A 
ATOM     16  C   UNL     1      40.859   6.330  19.932  0.00  0.00    +0.000 A 
BRANCH  11  18
ATOM     17  C   UNL     1      43.324   6.030  21.546  0.00  0.00    +0.000 C 
ATOM     18  C   UNL     1      43.211   7.049  20.424  0.00  0.00    +0.000 C 
ATOM     19  C   UNL     1      44.532   7.027  19.592  0.00  0.00    +0.000 C 
ATOM     20  C   UNL     1      43.057   8.415  20.960  0.00  0.00    +0.000 C 
ENDBRANCH  11  18
ENDBRANCH   1  14
BRANCH   3  21
ATOM     21  C   UNL     1      36.400   2.589  16.262  0.00  0.00    +0.000 C 
ATOM     22  O   UNL     1      35.171   2.560  16.570  0.00  0.00    +0.000 OA
ATOM     23  N   UNL     1      36.991   1.406  15.923  0.00  0.00    +0.000 NA
BRANCH  23  24
ATOM     24  C   UNL     1      36.559   0.058  15.790  0.00  0.00    +0.000 C 
BRANCH  24  25
ATOM     25  C   UNL     1      37.001  -0.741  16.963  0.00  0.00    +0.000 A 
ATOM     26  C   UNL     1      36.468  -0.491  18.186  0.00  0.00    +0.000 A 
ATOM     27  C   UNL     1      36.769  -1.216  19.347  0.00  0.00    +0.000 A 
ATOM     28  C   UNL     1      37.696  -2.251  19.212  0.00  0.00    +0.000 A 
ATOM     29  C   UNL     1      38.261  -2.522  17.980  0.00  0.00    +0.000 A 
ATOM     30  C   UNL     1      37.919  -1.774  16.845  0.00  0.00    +0.000 A 
ATOM     31  O   UNL     1      39.123  -3.575  18.174  0.00  0.00    +0.000 OA
ATOM     32  C   UNL     1      38.901  -4.171  19.441  0.00  0.00    +0.000 C 
ATOM     33  O   UNL     1      38.214  -3.151  20.160  0.00  0.00    +0.000 OA
ENDBRANCH  24  25
ENDBRANCH  23  24
ENDBRANCH   3  21
TORSDOF 5
ENDMDL
MODEL 2
REMARK VINA RESULT:      -9.2      1.395      1.944
REMARK  Name = 
REMARK  5 active torsions:
REMARK  status: ('A' for Active; 'I' for Inactive)
REMARK    1  A    between atoms: C_2  and  C_5
REMARK    2  A    between atoms: C_8  and  C_9
REMARK    3  A    between atoms: C_11  and  C_12
REMARK    4  A    between atoms: N_14  and  C_15
REMARK    5  A    between atoms: C_15  and  C_16
REMARK                            x       y       z     vdW  Elec       q    Type
REMARK                         _______ _______ _______ _____ _____    ______ ____
ROOT
ATOM      1  C   UNL     1      38.931   5.412  16.948  0.00  0.00    +0.000 A 
ATOM      2  C   UNL     1      38.172   4.304  17.139  0.00  0.00    +0.000 A 
ATOM      3  C   UNL     1      37.138   3.980  16.285  0.00  0.00    +0.000 A 
ATOM      4  C   UNL     1      36.867   4.845  15.173  0.00  0.00    +0.000 A 
ATOM      5  C   UNL     1      35.807   4.531  14.359  0.00  0.00    +0.000 A 
ATOM      6  C   UNL     1      35.508   5.370  13.310  0.00  0.00    +0.000 A 
ATOM      7  C   UNL     1      36.268   6.510  13.103  0.00  0.00    +0.000 A 
ATOM      8  C   UNL     1      37.329   6.790  13.944  0.00  0.00    +0.000 A 
ATOM      9  C   UNL     1      37.644   5.948  15.005  0.00  0.00    +0.000 A 
ATOM     10  N   UNL     1      38.608   6.186  15.854  0.00  0.00    +0.000 NA
ENDROOT
BRANCH   1  14
ATOM     11  C   UNL     1      42.105   6.746  19.502  0.00  0.00    +0.000 A 
ATOM     12  C   UNL     1      42.344   6.695  18.122  0.00  0.00    +0.000 A 
ATOM     13  C   UNL     1      41.290   6.272  17.275  0.00  0.00    +0.000 A 
ATOM     14  C   UNL     1      40.044   5.902  17.762  0.00  0.00    +0.000 A 
ATOM     15  C   UNL     1      39.840   5.961  19.140  0.00  0.00    +0.000 A 
ATOM     16  C   UNL     1      40.870   6.377  19.955  0.00  0.00    +0.000 A 
BRANCH  11  18
ATOM     17  C   UNL     1      43.360   6.004  21.551  0.00  0.00    +0.000 C 
ATOM     18  C   UNL     1      43.226   7.065  20.471  0.00  0.00    +0.000 C 
ATOM     19  C   UNL     1      44.546   7.102  19.637  0.00  0.00    +0.000 C 
ATOM     20  C   UNL     1      43.047   8.405  21.063  0.00  0.00    +0.000 C 
ENDBRANCH  11  18
ENDBRANCH   1  14
BRANCH   3  21
ATOM     21  C   UNL     1      36.291   2.789  16.326  0.00  0.00    +0.000 C 
ATOM     22  O   UNL     1      35.034   2.861  16.468  0.00  0.00    +0.000 OA
ATOM     23  N   UNL     1      36.841   1.545  16.211  0.00  0.00    +0.000 NA
BRANCH  23  24
ATOM     24  C   UNL     1      36.342   0.215  16.182  0.00  0.00    +0.000 C 
BRANCH  24  25
ATOM     25  C   UNL     1      37.465  -0.755  16.099  0.00  0.00    +0.000 A 
ATOM     26  C   UNL     1      37.468  -1.851  16.900  0.00  0.00    +0.000 A 
ATOM     27  C   UNL     1      38.445  -2.855  16.869  0.00  0.00    +0.000 A 
ATOM     28  C   UNL     1      39.485  -2.685  15.952  0.00  0.00    +0.000 A 
ATOM     29  C   UNL     1      39.512  -1.573  15.131  0.00  0.00    +0.000 A 
ATOM     30  C   UNL     1      38.505  -0.600  15.193  0.00  0.00    +0.000 A 
ATOM     31  O   UNL     1      40.645  -1.690  14.361  0.00  0.00    +0.000 OA
ATOM     32  C   UNL     1      41.184  -2.997  14.468  0.00  0.00    +0.000 C 
ATOM     33  O   UNL     1      40.606  -3.486  15.674  0.00  0.00    +0.000 OA
ENDBRANCH  24  25
ENDBRANCH  23  24
ENDBRANCH   3  21
TORSDOF 5
ENDMDL
MODEL 3
REMARK VINA RESULT:      -9.1      3.583      7.977
REMARK  Name = 
REMARK  5 active torsions:
REMARK  status: ('A' for Active; 'I' for Inactive)
REMARK    1  A    between atoms: C_2  and  C_5
REMARK    2  A    between atoms: C_8  and  C_9
REMARK    3  A    between atoms: C_11  and  C_12
REMARK    4  A    between atoms: N_14  and  C_15
REMARK    5  A    between atoms: C_15  and  C_16
REMARK                            x       y       z     vdW  Elec       q    Type
REMARK                         _______ _______ _______ _____ _____    ______ ____
ROOT
ATOM      1  C   UNL     1      38.432   5.002  16.750  0.00  0.00    +0.000 A 
ATOM      2  C   UNL     1      37.886   5.444  15.589  0.00  0.00    +0.000 A 
ATOM      3  C   UNL     1      36.836   4.783  14.986  0.00  0.00    +0.000 A 
ATOM      4  C   UNL     1      36.318   3.599  15.610  0.00  0.00    +0.000 A 
ATOM      5  C   UNL     1      35.303   2.930  14.974  0.00  0.00    +0.000 A 
ATOM      6  C   UNL     1      34.821   1.770  15.538  0.00  0.00    +0.000 A 
ATOM      7  C   UNL     1      35.371   1.300  16.719  0.00  0.00    +0.000 A 
ATOM      8  C   UNL     1      36.391   2.004  17.330  0.00  0.00    +0.000 A 
ATOM      9  C   UNL     1      36.884   3.179  16.773  0.00  0.00    +0.000 A 
ATOM     10  N   UNL     1      37.874   3.861  17.286  0.00  0.00    +0.000 NA
ENDROOT
BRANCH   1  14
ATOM     11  C   UNL     1      41.631   6.570  19.134  0.00  0.00    +0.000 A 
ATOM     12  C   UNL     1      41.809   6.514  17.745  0.00  0.00    +0.000 A 
ATOM     13  C   UNL     1      40.745   6.013  16.954  0.00  0.00    +0.000 A 
ATOM     14  C   UNL     1      39.549   5.573  17.504  0.00  0.00    +0.000 A 
ATOM     15  C   UNL     1      39.406   5.639  18.889  0.00  0.00    +0.000 A 
ATOM     16  C   UNL     1      40.444   6.131  19.649  0.00  0.00    +0.000 A 
BRANCH  11  18
ATOM     17  C   UNL     1      42.928   6.015  21.216  0.00  0.00    +0.000 C 
ATOM     18  C   UNL     1      42.773   6.973  20.045  0.00  0.00    +0.000 C 
ATOM     19  C   UNL     1      44.075   6.926  19.184  0.00  0.00    +0.000 C 
ATOM     20  C   UNL     1      42.611   8.363  20.514  0.00  0.00    +0.000 C 
ENDBRANCH  11  18
ENDBRANCH   1  14
BRANCH   3  21
ATOM     21  C   UNL     1      36.106   5.182  13.783  0.00  0.00    +0.000 C 
ATOM     22  O   UNL     1      36.349   4.673  12.649  0.00  0.00    +0.000 OA
ATOM     23  N   UNL     1      35.128   6.132  13.851  0.00  0.00    +0.000 NA
BRANCH  23  24
ATOM     24  C   UNL     1      34.228   6.727  12.927  0.00  0.00    +0.000 C 
BRANCH  24  25
ATOM     25  C   UNL     1      34.234   8.206  13.083  0.00  0.00    +0.000 A 
ATOM     26  C   UNL     1      34.414   8.996  11.994  0.00  0.00    +0.000 A 
ATOM     27  C   UNL     1      34.384  10.397  12.014  0.00  0.00    +0.000 A 
ATOM     28  C   UNL     1      34.167  10.996  13.256  0.00  0.00    +0.000 A 
ATOM     29  C   UNL     1      33.990  10.216  14.384  0.00  0.00    +0.000 A 
ATOM     30  C   UNL     1      34.019   8.817  14.309  0.00  0.00    +0.000 A 
ATOM     31  O   UNL     1      33.809  11.088  15.432  0.00  0.00    +0.000 OA
ATOM     32  C   UNL     1      33.575  12.400  14.950  0.00  0.00    +0.000 C 
ATOM     33  O   UNL     1      34.086  12.352  13.622  0.00  0.00    +0.000 OA
ENDBRANCH  24  25
ENDBRANCH  23  24
ENDBRANCH   3  21
TORSDOF 5
ENDMDL
MODEL 4
REMARK VINA RESULT:      -8.9     24.563     28.022
REMARK  Name = 
REMARK  5 active torsions:
REMARK  status: ('A' for Active; 'I' for Inactive)
REMARK    1  A    between atoms: C_2  and  C_5
REMARK    2  A    between atoms: C_8  and  C_9
REMARK    3  A    between atoms: C_11  and  C_12
REMARK    4  A    between atoms: N_14  and  C_15
REMARK    5  A    between atoms: C_15  and  C_16
REMARK                            x       y       z     vdW  Elec       q    Type
REMARK                         _______ _______ _______ _____ _____    ______ ____
ROOT
ATOM      1  C   UNL     1      11.373  -1.061  25.467  0.00  0.00    +0.000 A 
ATOM      2  C   UNL     1      12.555  -1.049  26.133  0.00  0.00    +0.000 A 
ATOM      3  C   UNL     1      12.981   0.063  26.829  0.00  0.00    +0.000 A 
ATOM      4  C   UNL     1      12.147   1.231  26.840  0.00  0.00    +0.000 A 
ATOM      5  C   UNL     1      12.608   2.342  27.500  0.00  0.00    +0.000 A 
ATOM      6  C   UNL     1      11.838   3.485  27.487  0.00  0.00    +0.000 A 
ATOM      7  C   UNL     1      10.632   3.493  26.807  0.00  0.00    +0.000 A 
ATOM      8  C   UNL     1      10.202   2.353  26.156  0.00  0.00    +0.000 A 
ATOM      9  C   UNL     1      10.967   1.191  26.164  0.00  0.00    +0.000 A 
ATOM     10  N   UNL     1      10.630   0.099  25.531  0.00  0.00    +0.000 NA
ENDROOT
BRANCH   1  14
ATOM     11  C   UNL     1       9.571  -4.081  23.016  0.00  0.00    +0.000 A 
ATOM     12  C   UNL     1      10.673  -4.440  23.804  0.00  0.00    +0.000 A 
ATOM     13  C   UNL     1      11.258  -3.447  24.629  0.00  0.00    +0.000 A 
ATOM     14  C   UNL     1      10.786  -2.143  24.675  0.00  0.00    +0.000 A 
ATOM     15  C   UNL     1       9.690  -1.817  23.876  0.00  0.00    +0.000 A 
ATOM     16  C   UNL     1       9.126  -2.791  23.081  0.00  0.00    +0.000 A 
BRANCH  11  18
ATOM     17  C   UNL     1       7.467  -5.141  22.135  0.00  0.00    +0.000 C 
ATOM     18  C   UNL     1       8.981  -5.058  22.018  0.00  0.00    +0.000 C 
ATOM     19  C   UNL     1       9.346  -4.526  20.596  0.00  0.00    +0.000 C 
ATOM     20  C   UNL     1       9.598  -6.391  22.157  0.00  0.00    +0.000 C 
ENDBRANCH  11  18
ENDBRANCH   1  14
BRANCH   3  21
ATOM     21  C   UNL     1      14.187   0.193  27.646  0.00  0.00    +0.000 C 
ATOM     22  O   UNL     1      14.153   0.137  28.911  0.00  0.00    +0.000 OA
ATOM     23  N   UNL     1      15.403   0.384  27.056  0.00  0.00    +0.000 NA
BRANCH  23  24
ATOM     24  C   UNL     1      16.741   0.522  27.516  0.00  0.00    +0.000 C 
BRANCH  24  25
ATOM     25  C   UNL     1      17.695   0.122  26.448  0.00  0.00    +0.000 A 
ATOM     26  C   UNL     1      18.022  -1.186  26.293  0.00  0.00    +0.000 A 
ATOM     27  C   UNL     1      18.864  -1.682  25.290  0.00  0.00    +0.000 A 
ATOM     28  C   UNL     1      19.406  -0.742  24.410  0.00  0.00    +0.000 A 
ATOM     29  C   UNL     1      19.097   0.599  24.550  0.00  0.00    +0.000 A 
ATOM     30  C   UNL     1      18.240   1.044  25.566  0.00  0.00    +0.000 A 
ATOM     31  O   UNL     1      19.779   1.257  23.554  0.00  0.00    +0.000 OA
ATOM     32  C   UNL     1      20.282   0.334  22.604  0.00  0.00    +0.000 C 
ATOM     33  O   UNL     1      20.275  -0.899  23.317  0.00  0.00    +0.000 OA
ENDBRANCH  24  25
ENDBRANCH  23  24
ENDBRANCH   3  21
TORSDOF 5
ENDMDL
MODEL 5
REMARK VINA RESULT:      -8.8      5.787     10.529
REMARK  Name = 
REMARK  5 active torsions:
REMARK  status: ('A' for Active; 'I' for Inactive)
REMARK    1  A    between atoms: C_2  and  C_5
REMARK    2  A    between atoms: C_8  and  C_9
REMARK    3  A    between atoms: C_11  and  C_12
REMARK    4  A    between atoms: N_14  and  C_15
REMARK    5  A    between atoms: C_15  and  C_16
REMARK                            x       y       z     vdW  Elec       q    Type
REMARK                         _______ _______ _______ _____ _____    ______ ____
ROOT
ATOM      1  C   UNL     1      42.651   6.912  20.820  0.00  0.00    +0.000 A 
ATOM      2  C   UNL     1      43.266   6.082  21.700  0.00  0.00    +0.000 A 
ATOM      3  C   UNL     1      44.024   6.570  22.745  0.00  0.00    +0.000 A 
ATOM      4  C   UNL     1      44.160   7.991  22.893  0.00  0.00    +0.000 A 
ATOM      5  C   UNL     1      44.954   8.457  23.910  0.00  0.00    +0.000 A 
ATOM      6  C   UNL     1      45.128   9.816  24.044  0.00  0.00    +0.000 A 
ATOM      7  C   UNL     1      44.512  10.678  23.150  0.00  0.00    +0.000 A 
ATOM      8  C   UNL     1      43.720  10.169  22.140  0.00  0.00    +0.000 A 
ATOM      9  C   UNL     1      43.533   8.799  21.997  0.00  0.00    +0.000 A 
ATOM     10  N   UNL     1      42.828   8.262  21.036  0.00  0.00    +0.000 NA
ENDROOT
BRANCH   1  14
ATOM     11  C   UNL     1      40.075   5.931  17.538  0.00  0.00    +0.000 A 
ATOM     12  C   UNL     1      41.408   6.258  17.256  0.00  0.00    +0.000 A 
ATOM     13  C   UNL     1      42.266   6.565  18.342  0.00  0.00    +0.000 A 
ATOM     14  C   UNL     1      41.832   6.560  19.660  0.00  0.00    +0.000 A 
ATOM     15  C   UNL     1      40.498   6.233  19.906  0.00  0.00    +0.000 A 
ATOM     16  C   UNL     1      39.674   5.933  18.844  0.00  0.00    +0.000 A 
BRANCH  11  18
ATOM     17  C   UNL     1      38.142   4.555  16.704  0.00  0.00    +0.000 C 
ATOM     18  C   UNL     1      39.076   5.720  16.417  0.00  0.00    +0.000 C 
ATOM     19  C   UNL     1      38.229   7.028  16.315  0.00  0.00    +0.000 C 
ATOM     20  C   UNL     1      39.763   5.544  15.123  0.00  0.00    +0.000 C 
ENDBRANCH  11  18
ENDBRANCH   1  14
BRANCH   3  21
ATOM     21  C   UNL     1      44.678   5.802  23.803  0.00  0.00    +0.000 C 
ATOM     22  O   UNL     1      45.852   5.342  23.675  0.00  0.00    +0.000 OA
ATOM     23  N   UNL     1      44.030   5.554  24.979  0.00  0.00    +0.000 NA
BRANCH  23  24
ATOM     24  C   UNL     1      44.353   4.891  26.194  0.00  0.00    +0.000 C 
BRANCH  24  25
ATOM     25  C   UNL     1      43.204   4.955  27.135  0.00  0.00    +0.000 A 
ATOM     26  C   UNL     1      42.979   3.927  27.993  0.00  0.00    +0.000 A 
ATOM     27  C   UNL     1      41.963   3.905  28.957  0.00  0.00    +0.000 A 
ATOM     28  C   UNL     1      41.128   5.023  29.008  0.00  0.00    +0.000 A 
ATOM     29  C   UNL     1      41.329   6.081  28.141  0.00  0.00    +0.000 A 
ATOM     30  C   UNL     1      42.367   6.060  27.200  0.00  0.00    +0.000 A 
ATOM     31  O   UNL     1      40.357   7.008  28.433  0.00  0.00    +0.000 OA
ATOM     32  C   UNL     1      39.724   6.693  29.661  0.00  0.00    +0.000 C 
ATOM     33  O   UNL     1      40.031   5.314  29.837  0.00  0.00    +0.000 OA
ENDBRANCH  24  25
ENDBRANCH  23  24
ENDBRANCH   3  21
TORSDOF 5
ENDMDL
MODEL 6
REMARK VINA RESULT:      -8.6      2.576      5.165
REMARK  Name = 
REMARK  5 active torsions:
REMARK  status: ('A' for Active; 'I' for Inactive)
REMARK    1  A    between atoms: C_2  and  C_5
REMARK    2  A    between atoms: C_8  and  C_9
REMARK    3  A    between atoms: C_11  and  C_12
REMARK    4  A    between atoms: N_14  and  C_15
REMARK    5  A    between atoms: C_15  and  C_16
REMARK                            x       y       z     vdW  Elec       q    Type
REMARK                         _______ _______ _______ _____ _____    ______ ____
ROOT
ATOM      1  C   UNL     1      41.618   6.889  19.310  0.00  0.00    +0.000 A 
ATOM      2  C   UNL     1      41.135   6.585  18.079  0.00  0.00    +0.000 A 
ATOM      3  C   UNL     1      39.867   6.960  17.687  0.00  0.00    +0.000 A 
ATOM      4  C   UNL     1      39.046   7.687  18.613  0.00  0.00    +0.000 A 
ATOM      5  C   UNL     1      37.771   8.012  18.223  0.00  0.00    +0.000 A 
ATOM      6  C   UNL     1      36.956   8.675  19.113  0.00  0.00    +0.000 A 
ATOM      7  C   UNL     1      37.430   8.987  20.377  0.00  0.00    +0.000 A 
ATOM      8  C   UNL     1      38.720   8.643  20.732  0.00  0.00    +0.000 A 
ATOM      9  C   UNL     1      39.555   7.978  19.840  0.00  0.00    +0.000 A 
ATOM     10  N   UNL     1      40.768   7.592  20.137  0.00  0.00    +0.000 NA
ENDROOT
BRANCH   1  14
ATOM     11  C   UNL     1      45.341   5.767  21.111  0.00  0.00    +0.000 A 
ATOM     12  C   UNL     1      45.375   6.369  19.846  0.00  0.00    +0.000 A 
ATOM     13  C   UNL     1      44.146   6.757  19.257  0.00  0.00    +0.000 A 
ATOM     14  C   UNL     1      42.923   6.555  19.882  0.00  0.00    +0.000 A 
ATOM     15  C   UNL     1      42.924   5.950  21.138  0.00  0.00    +0.000 A 
ATOM     16  C   UNL     1      44.125   5.580  21.704  0.00  0.00    +0.000 A 
BRANCH  11  18
ATOM     17  C   UNL     1      46.646   5.453  23.239  0.00  0.00    +0.000 C 
ATOM     18  C   UNL     1      46.606   5.212  21.738  0.00  0.00    +0.000 C 
ATOM     19  C   UNL     1      46.601   3.673  21.477  0.00  0.00    +0.000 C 
ATOM     20  C   UNL     1      47.807   5.762  21.080  0.00  0.00    +0.000 C 
ENDBRANCH  11  18
ENDBRANCH   1  14
BRANCH   3  21
ATOM     21  C   UNL     1      39.246   6.767  16.377  0.00  0.00    +0.000 C 
ATOM     22  O   UNL     1      39.518   7.508  15.386  0.00  0.00    +0.000 OA
ATOM     23  N   UNL     1      38.339   5.765  16.183  0.00  0.00    +0.000 NA
BRANCH  23  24
ATOM     24  C   UNL     1      37.583   5.282  15.081  0.00  0.00    +0.000 C 
BRANCH  24  25
ATOM     25  C   UNL     1      36.786   4.095  15.485  0.00  0.00    +0.000 A 
ATOM     26  C   UNL     1      35.746   3.688  14.712  0.00  0.00    +0.000 A 
ATOM     27  C   UNL     1      34.963   2.554  14.967  0.00  0.00    +0.000 A 
ATOM     28  C   UNL     1      35.285   1.818  16.109  0.00  0.00    +0.000 A 
ATOM     29  C   UNL     1      36.333   2.215  16.919  0.00  0.00    +0.000 A 
ATOM     30  C   UNL     1      37.094   3.352  16.616  0.00  0.00    +0.000 A 
ATOM     31  O   UNL     1      36.391   1.305  17.948  0.00  0.00    +0.000 OA
ATOM     32  C   UNL     1      35.592   0.172  17.653  0.00  0.00    +0.000 C 
ATOM     33  O   UNL     1      34.708   0.655  16.647  0.00  0.00    +0.000 OA
ENDBRANCH  24  25
ENDBRANCH  23  24
ENDBRANCH   3  21
TORSDOF 5
ENDMDL
MODEL 7
REMARK VINA RESULT:      -8.5      4.371      8.747
REMARK  Name = 
REMARK  5 active torsions:
REMARK  status: ('A' for Active; 'I' for Inactive)
REMARK    1  A    between atoms: C_2  and  C_5
REMARK    2  A    between atoms: C_8  and  C_9
REMARK    3  A    between atoms: C_11  and  C_12
REMARK    4  A    between atoms: N_14  and  C_15
REMARK    5  A    between atoms: C_15  and  C_16
REMARK                            x       y       z     vdW  Elec       q    Type
REMARK                         _______ _______ _______ _____ _____    ______ ____
ROOT
ATOM      1  C   UNL     1      39.149   0.126  14.563  0.00  0.00    +0.000 A 
ATOM      2  C   UNL     1      39.025   1.472  14.674  0.00  0.00    +0.000 A 
ATOM      3  C   UNL     1      37.938   2.049  15.296  0.00  0.00    +0.000 A 
ATOM      4  C   UNL     1      36.919   1.194  15.835  0.00  0.00    +0.000 A 
ATOM      5  C   UNL     1      35.823   1.786  16.411  0.00  0.00    +0.000 A 
ATOM      6  C   UNL     1      34.816   0.982  16.898  0.00  0.00    +0.000 A 
ATOM      7  C   UNL     1      34.923  -0.395  16.788  0.00  0.00    +0.000 A 
ATOM      8  C   UNL     1      36.043  -0.952  16.202  0.00  0.00    +0.000 A 
ATOM      9  C   UNL     1      37.069  -0.151  15.711  0.00  0.00    +0.000 A 
ATOM     10  N   UNL     1      38.129  -0.624  15.110  0.00  0.00    +0.000 NA
ENDROOT
BRANCH   1  14
ATOM     11  C   UNL     1      42.149  -2.175  12.544  0.00  0.00    +0.000 A 
ATOM     12  C   UNL     1      42.569  -1.131  13.380  0.00  0.00    +0.000 A 
ATOM     13  C   UNL     1      41.579  -0.381  14.062  0.00  0.00    +0.000 A 
ATOM     14  C   UNL     1      40.222  -0.638  13.926  0.00  0.00    +0.000 A 
ATOM     15  C   UNL     1      39.838  -1.682  13.084  0.00  0.00    +0.000 A 
ATOM     16  C   UNL     1      40.808  -2.407  12.428  0.00  0.00    +0.000 A 
BRANCH  11  18
ATOM     17  C   UNL     1      42.461  -3.910  10.750  0.00  0.00    +0.000 C 
ATOM     18  C   UNL     1      43.147  -2.930  11.687  0.00  0.00    +0.000 C 
ATOM     19  C   UNL     1      43.904  -1.865  10.833  0.00  0.00    +0.000 C 
ATOM     20  C   UNL     1      44.153  -3.611  12.525  0.00  0.00    +0.000 C 
ENDBRANCH  11  18
ENDBRANCH   1  14
BRANCH   3  21
ATOM     21  C   UNL     1      37.709   3.471  15.551  0.00  0.00    +0.000 C 
ATOM     22  O   UNL     1      37.008   4.190  14.777  0.00  0.00    +0.000 OA
ATOM     23  N   UNL     1      38.255   4.073  16.647  0.00  0.00    +0.000 NA
BRANCH  23  24
ATOM     24  C   UNL     1      38.225   5.380  17.206  0.00  0.00    +0.000 C 
BRANCH  24  25
ATOM     25  C   UNL     1      39.574   5.757  17.704  0.00  0.00    +0.000 A 
ATOM     26  C   UNL     1      40.569   6.020  16.819  0.00  0.00    +0.000 A 
ATOM     27  C   UNL     1      41.859   6.436  17.174  0.00  0.00    +0.000 A 
ATOM     28  C   UNL     1      42.118   6.565  18.540  0.00  0.00    +0.000 A 
ATOM     29  C   UNL     1      41.126   6.294  19.464  0.00  0.00    +0.000 A 
ATOM     30  C   UNL     1      39.847   5.891  19.058  0.00  0.00    +0.000 A 
ATOM     31  O   UNL     1      41.685   6.504  20.703  0.00  0.00    +0.000 OA
ATOM     32  C   UNL     1      42.922   7.184  20.579  0.00  0.00    +0.000 C 
ATOM     33  O   UNL     1      43.286   6.949  19.223  0.00  0.00    +0.000 OA
ENDBRANCH  24  25
ENDBRANCH  23  24
ENDBRANCH   3  21
TORSDOF 5
ENDMDL
MODEL 8
REMARK VINA RESULT:      -8.5      4.576      8.764
REMARK  Name = 
REMARK  5 active torsions:
REMARK  status: ('A' for Active; 'I' for Inactive)
REMARK    1  A    between atoms: C_2  and  C_5
REMARK    2  A    between atoms: C_8  and  C_9
REMARK    3  A    between atoms: C_11  and  C_12
REMARK    4  A    between atoms: N_14  and  C_15
REMARK    5  A    between atoms: C_15  and  C_16
REMARK                            x       y       z     vdW  Elec       q    Type
REMARK                         _______ _______ _______ _____ _____    ______ ____
ROOT
ATOM      1  C   UNL     1      39.859  -1.116  14.525  0.00  0.00    +0.000 A 
ATOM      2  C   UNL     1      39.367   0.147  14.492  0.00  0.00    +0.000 A 
ATOM      3  C   UNL     1      38.120   0.451  14.996  0.00  0.00    +0.000 A 
ATOM      4  C   UNL     1      37.332  -0.604  15.566  0.00  0.00    +0.000 A 
ATOM      5  C   UNL     1      36.075  -0.292  16.023  0.00  0.00    +0.000 A 
ATOM      6  C   UNL     1      35.290  -1.300  16.536  0.00  0.00    +0.000 A 
ATOM      7  C   UNL     1      35.773  -2.597  16.573  0.00  0.00    +0.000 A 
ATOM      8  C   UNL     1      37.044  -2.870  16.105  0.00  0.00    +0.000 A 
ATOM      9  C   UNL     1      37.849  -1.861  15.587  0.00  0.00    +0.000 A 
ATOM     10  N   UNL     1      39.041  -2.070  15.093  0.00  0.00    +0.000 NA
ENDROOT
BRANCH   1  14
ATOM     11  C   UNL     1      43.720  -2.449  13.226  0.00  0.00    +0.000 A 
ATOM     12  C   UNL     1      42.594  -3.162  12.790  0.00  0.00    +0.000 A 
ATOM     13  C   UNL     1      41.316  -2.711  13.204  0.00  0.00    +0.000 A 
ATOM     14  C   UNL     1      41.144  -1.605  14.025  0.00  0.00    +0.000 A 
ATOM     15  C   UNL     1      42.285  -0.920  14.442  0.00  0.00    +0.000 A 
ATOM     16  C   UNL     1      43.523  -1.364  14.031  0.00  0.00    +0.000 A 
BRANCH  11  18
ATOM     17  C   UNL     1      45.969  -1.890  12.248  0.00  0.00    +0.000 C 
ATOM     18  C   UNL     1      45.118  -2.952  12.926  0.00  0.00    +0.000 C 
ATOM     19  C   UNL     1      45.770  -3.317  14.297  0.00  0.00    +0.000 C 
ATOM     20  C   UNL     1      45.074  -4.189  12.122  0.00  0.00    +0.000 C 
ENDBRANCH  11  18
ENDBRANCH   1  14
BRANCH   3  21
ATOM     21  C   UNL     1      37.496   1.770  15.093  0.00  0.00    +0.000 C 
ATOM     22  O   UNL     1      36.669   2.189  14.229  0.00  0.00    +0.000 OA
ATOM     23  N   UNL     1      37.795   2.601  16.134  0.00  0.00    +0.000 NA
BRANCH  23  24
ATOM     24  C   UNL     1      37.377   3.894  16.550  0.00  0.00    +0.000 C 
BRANCH  24  25
ATOM     25  C   UNL     1      38.543   4.683  17.028  0.00  0.00    +0.000 A 
ATOM     26  C   UNL     1      39.419   5.200  16.129  0.00  0.00    +0.000 A 
ATOM     27  C   UNL     1      40.519   6.001  16.461  0.00  0.00    +0.000 A 
ATOM     28  C   UNL     1      40.714   6.258  17.820  0.00  0.00    +0.000 A 
ATOM     29  C   UNL     1      39.842   5.737  18.758  0.00  0.00    +0.000 A 
ATOM     30  C   UNL     1      38.750   4.948  18.373  0.00  0.00    +0.000 A 
ATOM     31  O   UNL     1      40.301   6.157  19.985  0.00  0.00    +0.000 OA
ATOM     32  C   UNL     1      41.274   7.175  19.829  0.00  0.00    +0.000 C 
ATOM     33  O   UNL     1      41.704   7.005  18.481  0.00  0.00    +0.000 OA
ENDBRANCH  24  25
ENDBRANCH  23  24
ENDBRANCH   3  21
TORSDOF 5
ENDMDL
MODEL 9
REMARK VINA RESULT:      -8.4      4.043      9.986
REMARK  Name = 
REMARK  5 active torsions:
REMARK  status: ('A' for Active; 'I' for Inactive)
REMARK    1  A    between atoms: C_2  and  C_5
REMARK    2  A    between atoms: C_8  and  C_9
REMARK    3  A    between atoms: C_11  and  C_12
REMARK    4  A    between atoms: N_14  and  C_15
REMARK    5  A    between atoms: C_15  and  C_16
REMARK                            x       y       z     vdW  Elec       q    Type
REMARK                         _______ _______ _______ _____ _____    ______ ____
ROOT
ATOM      1  C   UNL     1      36.755   2.584  15.515  0.00  0.00    +0.000 A 
ATOM      2  C   UNL     1      36.415   3.519  14.593  0.00  0.00    +0.000 A 
ATOM      3  C   UNL     1      36.801   4.837  14.722  0.00  0.00    +0.000 A 
ATOM      4  C   UNL     1      37.580   5.217  15.866  0.00  0.00    +0.000 A 
ATOM      5  C   UNL     1      37.918   6.541  16.002  0.00  0.00    +0.000 A 
ATOM      6  C   UNL     1      38.631   6.930  17.113  0.00  0.00    +0.000 A 
ATOM      7  C   UNL     1      38.981   5.991  18.069  0.00  0.00    +0.000 A 
ATOM      8  C   UNL     1      38.623   4.668  17.895  0.00  0.00    +0.000 A 
ATOM      9  C   UNL     1      37.907   4.260  16.775  0.00  0.00    +0.000 A 
ATOM     10  N   UNL     1      37.507   3.031  16.581  0.00  0.00    +0.000 NA
ENDROOT
BRANCH   1  14
ATOM     11  C   UNL     1      35.942  -1.624  15.461  0.00  0.00    +0.000 A 
ATOM     12  C   UNL     1      35.344  -0.849  16.464  0.00  0.00    +0.000 A 
ATOM     13  C   UNL     1      35.597   0.546  16.472  0.00  0.00    +0.000 A 
ATOM     14  C   UNL     1      36.416   1.161  15.535  0.00  0.00    +0.000 A 
ATOM     15  C   UNL     1      36.998   0.361  14.552  0.00  0.00    +0.000 A 
ATOM     16  C   UNL     1      36.742  -0.993  14.551  0.00  0.00    +0.000 A 
BRANCH  11  18
ATOM     17  C   UNL     1      36.543  -3.771  14.297  0.00  0.00    +0.000 C 
ATOM     18  C   UNL     1      35.817  -3.135  15.472  0.00  0.00    +0.000 C 
ATOM     19  C   UNL     1      36.475  -3.632  16.797  0.00  0.00    +0.000 C 
ATOM     20  C   UNL     1      34.401  -3.547  15.507  0.00  0.00    +0.000 C 
ENDBRANCH  11  18
ENDBRANCH   1  14
BRANCH   3  21
ATOM     21  C   UNL     1      36.572   5.929  13.777  0.00  0.00    +0.000 C 
ATOM     22  O   UNL     1      37.458   6.304  12.953  0.00  0.00    +0.000 OA
ATOM     23  N   UNL     1      35.375   6.586  13.758  0.00  0.00    +0.000 NA
BRANCH  23  24
ATOM     24  C   UNL     1      34.809   7.638  12.989  0.00  0.00    +0.000 C 
BRANCH  24  25
ATOM     25  C   UNL     1      34.543   8.820  13.850  0.00  0.00    +0.000 A 
ATOM     26  C   UNL     1      34.333  10.034  13.281  0.00  0.00    +0.000 A 
ATOM     27  C   UNL     1      34.020  11.201  13.990  0.00  0.00    +0.000 A 
ATOM     28  C   UNL     1      33.941  11.083  15.380  0.00  0.00    +0.000 A 
ATOM     29  C   UNL     1      34.160   9.860  15.987  0.00  0.00    +0.000 A 
ATOM     30  C   UNL     1      34.460   8.719  15.231  0.00  0.00    +0.000 A 
ATOM     31  O   UNL     1      34.020  10.071  17.338  0.00  0.00    +0.000 OA
ATOM     32  C   UNL     1      33.429  11.335  17.585  0.00  0.00    +0.000 C 
ATOM     33  O   UNL     1      33.660  12.041  16.369  0.00  0.00    +0.000 OA
ENDBRANCH  24  25
ENDBRANCH  23  24
ENDBRANCH   3  21
TORSDOF 5
ENDMDL
MODEL 10
REMARK VINA RESULT:      -8.3      4.026      5.298
REMARK  Name = 
REMARK  5 active torsions:
REMARK  status: ('A' for Active; 'I' for Inactive)
REMARK    1  A    between atoms: C_2  and  C_5
REMARK    2  A    between atoms: C_8  and  C_9
REMARK    3  A    between atoms: C_11  and  C_12
REMARK    4  A    between atoms: N_14  and  C_15
REMARK    5  A    between atoms: C_15  and  C_16
REMARK                            x       y       z     vdW  Elec       q    Type
REMARK                         _______ _______ _______ _____ _____    ______ ____
ROOT
ATOM      1  C   UNL     1      37.962   3.889  16.483  0.00  0.00    +0.000 A 
ATOM      2  C   UNL     1      38.424   3.471  15.278  0.00  0.00    +0.000 A 
ATOM      3  C   UNL     1      37.989   2.294  14.705  0.00  0.00    +0.000 A 
ATOM      4  C   UNL     1      37.027   1.499  15.412  0.00  0.00    +0.000 A 
ATOM      5  C   UNL     1      36.639   0.309  14.848  0.00  0.00    +0.000 A 
ATOM      6  C   UNL     1      35.746  -0.487  15.530  0.00  0.00    +0.000 A 
ATOM      7  C   UNL     1      35.269  -0.079  16.766  0.00  0.00    +0.000 A 
ATOM      8  C   UNL     1      35.683   1.126  17.299  0.00  0.00    +0.000 A 
ATOM      9  C   UNL     1      36.581   1.940  16.618  0.00  0.00    +0.000 A 
ATOM     10  N   UNL     1      37.037   3.069  17.094  0.00  0.00    +0.000 NA
ENDROOT
BRANCH   1  14
ATOM     11  C   UNL     1      39.180   7.297  18.779  0.00  0.00    +0.000 A 
ATOM     12  C   UNL     1      38.572   7.521  17.536  0.00  0.00    +0.000 A 
ATOM     13  C   UNL     1      38.153   6.396  16.784  0.00  0.00    +0.000 A 
ATOM     14  C   UNL     1      38.329   5.093  17.229  0.00  0.00    +0.000 A 
ATOM     15  C   UNL     1      38.939   4.905  18.469  0.00  0.00    +0.000 A 
ATOM     16  C   UNL     1      39.340   6.005  19.194  0.00  0.00    +0.000 A 
BRANCH  11  18
ATOM     17  C   UNL     1      41.163   8.131  20.082  0.00  0.00    +0.000 C 
ATOM     18  C   UNL     1      39.766   8.448  19.573  0.00  0.00    +0.000 C 
ATOM     19  C   UNL     1      39.851   9.668  18.602  0.00  0.00    +0.000 C 
ATOM     20  C   UNL     1      38.872   8.836  20.681  0.00  0.00    +0.000 C 
ENDBRANCH  11  18
ENDBRANCH   1  14
BRANCH   3  21
ATOM     21  C   UNL     1      38.342   1.761  13.390  0.00  0.00    +0.000 C 
ATOM     22  O   UNL     1      37.766   2.147  12.329  0.00  0.00    +0.000 OA
ATOM     23  N   UNL     1      39.318   0.814  13.267  0.00  0.00    +0.000 NA
BRANCH  23  24
ATOM     24  C   UNL     1      39.920   0.114  12.187  0.00  0.00    +0.000 C 
BRANCH  24  25
ATOM     25  C   UNL     1      41.167  -0.556  12.640  0.00  0.00    +0.000 A 
ATOM     26  C   UNL     1      41.633  -0.332  13.896  0.00  0.00    +0.000 A 
ATOM     27  C   UNL     1      42.764  -0.950  14.446  0.00  0.00    +0.000 A 
ATOM     28  C   UNL     1      43.451  -1.841  13.619  0.00  0.00    +0.000 A 
ATOM     29  C   UNL     1      43.004  -2.082  12.333  0.00  0.00    +0.000 A 
ATOM     30  C   UNL     1      41.860  -1.446  11.832  0.00  0.00    +0.000 A 
ATOM     31  O   UNL     1      43.882  -2.985  11.782  0.00  0.00    +0.000 OA
ATOM     32  C   UNL     1      44.709  -3.548  12.786  0.00  0.00    +0.000 C 
ATOM     33  O   UNL     1      44.604  -2.610  13.853  0.00  0.00    +0.000 OA
ENDBRANCH  24  25
ENDBRANCH  23  24
ENDBRANCH   3  21
TORSDOF 5
ENDMDL
