MODEL 1
REMARK VINA RESULT:      -6.7      0.000      0.000
REMARK  Name = 
REMARK  9 active torsions:
REMARK  status: ('A' for Active; 'I' for Inactive)
REMARK    1  A    between atoms: C_2  and  O_4
REMARK    2  A    between atoms: O_4  and  C_5
REMARK    3  A    between atoms: C_8  and  C_9
REMARK    4  A    between atoms: C_9  and  C_10
REMARK    5  A    between atoms: C_9  and  C_21
REMARK    6  A    between atoms: C_10  and  C_11
REMARK    7  A    between atoms: C_11  and  N_12
REMARK    8  A    between atoms: N_12  and  C_13
REMARK    9  A    between atoms: C_13  and  C_14
REMARK                            x       y       z     vdW  Elec       q    Type
REMARK                         _______ _______ _______ _____ _____    ______ ____
ROOT
ATOM      1  C   UNL     1      35.759   1.247  14.722  0.00  0.00    +0.000 C 
ENDROOT
BRANCH   1   5
ATOM      2  C   UNL     1      35.946   5.272  13.253  0.00  0.00    +0.000 A 
ATOM      3  C   UNL     1      35.042   5.011  14.192  0.00  0.00    +0.000 A 
ATOM      4  C   UNL     1      35.070   3.688  14.738  0.00  0.00    +0.000 A 
ATOM      5  C   UNL     1      35.935   2.811  14.387  0.00  0.00    +0.000 A 
ATOM      6  C   UNL     1      36.896   3.103  13.439  0.00  0.00    +0.000 A 
ATOM      7  C   UNL     1      36.901   4.325  12.856  0.00  0.00    +0.000 A 
BRANCH   2   8
ATOM      8  O   UNL     1      36.040   6.517  12.513  0.00  0.00    +0.000 OA
BRANCH   8  10
ATOM      9  C   UNL     1      33.823   7.279  11.709  0.00  0.00    +0.000 C 
ATOM     10  C   UNL     1      35.039   6.439  11.513  0.00  0.00    +0.000 C 
ATOM     11  C   UNL     1      35.634   6.443  10.178  0.00  0.00    +0.000 C 
ENDBRANCH   8  10
ENDBRANCH   2   8
ENDBRANCH   1   5
BRANCH   1  12
ATOM     12  C   UNL     1      37.099   0.591  14.440  0.00  0.00    +0.000 A 
ATOM     13  C   UNL     1      38.253   0.721  15.003  0.00  0.00    +0.000 A 
ATOM     14  C   UNL     1      39.361   0.092  14.602  0.00  0.00    +0.000 A 
ATOM     15  C   UNL     1      39.308  -0.737  13.523  0.00  0.00    +0.000 A 
ATOM     16  C   UNL     1      38.128  -0.936  12.856  0.00  0.00    +0.000 A 
ATOM     17  C   UNL     1      37.026  -0.291  13.296  0.00  0.00    +0.000 A 
ENDBRANCH   1  12
BRANCH   1  18
ATOM     18  C   UNL     1      35.990   1.486  16.387  0.00  0.00    +0.000 C 
BRANCH  18  19
ATOM     19  C   UNL     1      34.945   0.630  16.934  0.00  0.00    +0.000 C 
BRANCH  19  20
ATOM     20  N   UNL     1      35.097  -0.385  17.739  0.00  0.00    +0.000 NA
BRANCH  20  21
ATOM     21  C   UNL     1      34.831  -1.662  17.109  0.00  0.00    +0.000 C 
BRANCH  21  22
ATOM     22  C   UNL     1      36.182  -2.196  16.740  0.00  0.00    +0.000 A 
ATOM     23  C   UNL     1      37.235  -1.847  17.624  0.00  0.00    +0.000 A 
ATOM     24  C   UNL     1      38.478  -2.314  17.389  0.00  0.00    +0.000 A 
ATOM     25  C   UNL     1      38.735  -3.140  16.290  0.00  0.00    +0.000 A 
ATOM     26  O   UNL     1      40.081  -3.540  16.160  0.00  0.00    +0.000 OA
ATOM     27  C   UNL     1      37.717  -3.518  15.460  0.00  0.00    +0.000 A 
ATOM     28  C   UNL     1      36.475  -3.003  15.750  0.00  0.00    +0.000 A 
ENDBRANCH  21  22
ENDBRANCH  20  21
ENDBRANCH  19  20
ENDBRANCH  18  19
ENDBRANCH   1  18
TORSDOF 9
ENDMDL
MODEL 2
REMARK VINA RESULT:      -6.6      2.876      6.574
REMARK  Name = 
REMARK  9 active torsions:
REMARK  status: ('A' for Active; 'I' for Inactive)
REMARK    1  A    between atoms: C_2  and  O_4
REMARK    2  A    between atoms: O_4  and  C_5
REMARK    3  A    between atoms: C_8  and  C_9
REMARK    4  A    between atoms: C_9  and  C_10
REMARK    5  A    between atoms: C_9  and  C_21
REMARK    6  A    between atoms: C_10  and  C_11
REMARK    7  A    between atoms: C_11  and  N_12
REMARK    8  A    between atoms: N_12  and  C_13
REMARK    9  A    between atoms: C_13  and  C_14
REMARK                            x       y       z     vdW  Elec       q    Type
REMARK                         _______ _______ _______ _____ _____    ______ ____
ROOT
ATOM      1  C   UNL     1      35.718  -2.118  15.417  0.00  0.00    +0.000 C 
ENDROOT
BRANCH   1   5
ATOM      2  C   UNL     1      39.697  -1.251  14.073  0.00  0.00    +0.000 A 
ATOM      3  C   UNL     1      39.433  -1.042  15.359  0.00  0.00    +0.000 A 
ATOM      4  C   UNL     1      38.131  -1.436  15.803  0.00  0.00    +0.000 A 
ATOM      5  C   UNL     1      37.276  -1.999  15.032  0.00  0.00    +0.000 A 
ATOM      6  C   UNL     1      37.573  -2.249  13.707  0.00  0.00    +0.000 A 
ATOM      7  C   UNL     1      38.775  -1.866  13.215  0.00  0.00    +0.000 A 
BRANCH   2   8
ATOM      8  O   UNL     1      40.920  -0.853  13.401  0.00  0.00    +0.000 OA
BRANCH   8  10
ATOM      9  C   UNL     1      42.275  -2.888  12.996  0.00  0.00    +0.000 C 
ATOM     10  C   UNL     1      41.919  -1.739  13.876  0.00  0.00    +0.000 C 
ATOM     11  C   UNL     1      43.027  -1.002  14.478  0.00  0.00    +0.000 C 
ENDBRANCH   8  10
ENDBRANCH   2   8
ENDBRANCH   1   5
BRANCH   1  12
ATOM     12  C   UNL     1      35.426  -3.599  15.581  0.00  0.00    +0.000 A 
ATOM     13  C   UNL     1      36.098  -4.549  16.138  0.00  0.00    +0.000 A 
ATOM     14  C   UNL     1      35.715  -5.829  16.162  0.00  0.00    +0.000 A 
ATOM     15  C   UNL     1      34.551  -6.191  15.556  0.00  0.00    +0.000 A 
ATOM     16  C   UNL     1      33.769  -5.253  14.933  0.00  0.00    +0.000 A 
ATOM     17  C   UNL     1      34.183  -3.968  14.938  0.00  0.00    +0.000 A 
ENDBRANCH   1  12
BRANCH   1  18
ATOM     18  C   UNL     1      36.005  -1.779  17.056  0.00  0.00    +0.000 C 
BRANCH  18  19
ATOM     19  C   UNL     1      35.106  -0.652  17.264  0.00  0.00    +0.000 C 
BRANCH  19  20
ATOM     20  N   UNL     1      35.436   0.592  17.483  0.00  0.00    +0.000 NA
BRANCH  20  21
ATOM     21  C   UNL     1      34.843   1.518  16.541  0.00  0.00    +0.000 C 
BRANCH  21  22
ATOM     22  C   UNL     1      35.862   1.662  15.451  0.00  0.00    +0.000 A 
ATOM     23  C   UNL     1      37.115   2.187  15.858  0.00  0.00    +0.000 A 
ATOM     24  C   UNL     1      38.103   2.317  14.950  0.00  0.00    +0.000 A 
ATOM     25  C   UNL     1      37.906   1.936  13.619  0.00  0.00    +0.000 A 
ATOM     26  O   UNL     1      39.019   2.143  12.779  0.00  0.00    +0.000 OA
ATOM     27  C   UNL     1      36.716   1.388  13.230  0.00  0.00    +0.000 A 
ATOM     28  C   UNL     1      35.747   1.288  14.200  0.00  0.00    +0.000 A 
ENDBRANCH  21  22
ENDBRANCH  20  21
ENDBRANCH  19  20
ENDBRANCH  18  19
ENDBRANCH   1  18
TORSDOF 9
ENDMDL
MODEL 3
REMARK VINA RESULT:      -6.5      4.052      4.972
REMARK  Name = 
REMARK  9 active torsions:
REMARK  status: ('A' for Active; 'I' for Inactive)
REMARK    1  A    between atoms: C_2  and  O_4
REMARK    2  A    between atoms: O_4  and  C_5
REMARK    3  A    between atoms: C_8  and  C_9
REMARK    4  A    between atoms: C_9  and  C_10
REMARK    5  A    between atoms: C_9  and  C_21
REMARK    6  A    between atoms: C_10  and  C_11
REMARK    7  A    between atoms: C_11  and  N_12
REMARK    8  A    between atoms: N_12  and  C_13
REMARK    9  A    between atoms: C_13  and  C_14
REMARK                            x       y       z     vdW  Elec       q    Type
REMARK                         _______ _______ _______ _____ _____    ______ ____
ROOT
ATOM      1  C   UNL     1      37.232   3.780  15.508  0.00  0.00    +0.000 C 
ENDROOT
BRANCH   1   5
ATOM      2  C   UNL     1      40.005   6.209  17.700  0.00  0.00    +0.000 A 
ATOM      3  C   UNL     1      39.153   5.474  18.408  0.00  0.00    +0.000 A 
ATOM      4  C   UNL     1      38.310   4.596  17.655  0.00  0.00    +0.000 A 
ATOM      5  C   UNL     1      38.389   4.480  16.382  0.00  0.00    +0.000 A 
ATOM      6  C   UNL     1      39.304   5.218  15.658  0.00  0.00    +0.000 A 
ATOM      7  C   UNL     1      40.106   6.096  16.306  0.00  0.00    +0.000 A 
BRANCH   2   8
ATOM      8  O   UNL     1      40.890   7.218  18.253  0.00  0.00    +0.000 OA
BRANCH   8  10
ATOM      9  C   UNL     1      43.316   6.848  17.905  0.00  0.00    +0.000 C 
ATOM     10  C   UNL     1      42.062   6.522  18.642  0.00  0.00    +0.000 C 
ATOM     11  C   UNL     1      42.156   6.432  20.097  0.00  0.00    +0.000 C 
ENDBRANCH   8  10
ENDBRANCH   2   8
ENDBRANCH   1   5
BRANCH   1  12
ATOM     12  C   UNL     1      37.893   2.644  14.747  0.00  0.00    +0.000 A 
ATOM     13  C   UNL     1      38.941   1.937  15.003  0.00  0.00    +0.000 A 
ATOM     14  C   UNL     1      39.422   0.986  14.198  0.00  0.00    +0.000 A 
ATOM     15  C   UNL     1      38.798   0.731  13.015  0.00  0.00    +0.000 A 
ATOM     16  C   UNL     1      37.678   1.433  12.654  0.00  0.00    +0.000 A 
ATOM     17  C   UNL     1      37.215   2.380  13.497  0.00  0.00    +0.000 A 
ENDBRANCH   1  12
BRANCH   1  18
ATOM     18  C   UNL     1      36.675   2.857  16.820  0.00  0.00    +0.000 C 
BRANCH  18  19
ATOM     19  C   UNL     1      35.274   2.687  16.460  0.00  0.00    +0.000 C 
BRANCH  19  20
ATOM     20  N   UNL     1      34.544   1.616  16.614  0.00  0.00    +0.000 NA
BRANCH  20  21
ATOM     21  C   UNL     1      35.138   0.639  17.503  0.00  0.00    +0.000 C 
BRANCH  21  22
ATOM     22  C   UNL     1      35.413  -0.552  16.635  0.00  0.00    +0.000 A 
ATOM     23  C   UNL     1      34.666  -1.717  16.950  0.00  0.00    +0.000 A 
ATOM     24  C   UNL     1      34.823  -2.825  16.198  0.00  0.00    +0.000 A 
ATOM     25  C   UNL     1      35.706  -2.834  15.114  0.00  0.00    +0.000 A 
ATOM     26  O   UNL     1      35.779  -4.064  14.429  0.00  0.00    +0.000 OA
ATOM     27  C   UNL     1      36.394  -1.702  14.777  0.00  0.00    +0.000 A 
ATOM     28  C   UNL     1      36.196  -0.609  15.587  0.00  0.00    +0.000 A 
ENDBRANCH  21  22
ENDBRANCH  20  21
ENDBRANCH  19  20
ENDBRANCH  18  19
ENDBRANCH   1  18
TORSDOF 9
ENDMDL
MODEL 4
REMARK VINA RESULT:      -6.2     24.267     27.099
REMARK  Name = 
REMARK  9 active torsions:
REMARK  status: ('A' for Active; 'I' for Inactive)
REMARK    1  A    between atoms: C_2  and  O_4
REMARK    2  A    between atoms: O_4  and  C_5
REMARK    3  A    between atoms: C_8  and  C_9
REMARK    4  A    between atoms: C_9  and  C_10
REMARK    5  A    between atoms: C_9  and  C_21
REMARK    6  A    between atoms: C_10  and  C_11
REMARK    7  A    between atoms: C_11  and  N_12
REMARK    8  A    between atoms: N_12  and  C_13
REMARK    9  A    between atoms: C_13  and  C_14
REMARK                            x       y       z     vdW  Elec       q    Type
REMARK                         _______ _______ _______ _____ _____    ______ ____
ROOT
ATOM      1  C   UNL     1      13.852  -0.259  27.852  0.00  0.00    +0.000 C 
ENDROOT
BRANCH   1   5
ATOM      2  C   UNL     1      17.797   0.099  26.209  0.00  0.00    +0.000 A 
ATOM      3  C   UNL     1      16.826  -0.268  25.379  0.00  0.00    +0.000 A 
ATOM      4  C   UNL     1      15.504  -0.279  25.927  0.00  0.00    +0.000 A 
ATOM      5  C   UNL     1      15.249   0.082  27.130  0.00  0.00    +0.000 A 
ATOM      6  C   UNL     1      16.259   0.500  27.974  0.00  0.00    +0.000 A 
ATOM      7  C   UNL     1      17.537   0.499  27.528  0.00  0.00    +0.000 A 
BRANCH   2   8
ATOM      8  O   UNL     1      19.212   0.102  25.884  0.00  0.00    +0.000 OA
BRANCH   8  10
ATOM      9  C   UNL     1      19.778   1.540  23.946  0.00  0.00    +0.000 C 
ATOM     10  C   UNL     1      19.276   0.239  24.475  0.00  0.00    +0.000 C 
ATOM     11  C   UNL     1      19.807  -0.973  23.857  0.00  0.00    +0.000 C 
ENDBRANCH   8  10
ENDBRANCH   2   8
ENDBRANCH   1   5
BRANCH   1  12
ATOM     12  C   UNL     1      13.028   1.016  27.823  0.00  0.00    +0.000 A 
ATOM     13  C   UNL     1      13.033   2.022  27.015  0.00  0.00    +0.000 A 
ATOM     14  C   UNL     1      12.261   3.103  27.154  0.00  0.00    +0.000 A 
ATOM     15  C   UNL     1      11.411   3.187  28.215  0.00  0.00    +0.000 A 
ATOM     16  C   UNL     1      11.338   2.170  29.130  0.00  0.00    +0.000 A 
ATOM     17  C   UNL     1      12.126   1.089  28.952  0.00  0.00    +0.000 A 
ENDBRANCH   1  12
BRANCH   1  18
ATOM     18  C   UNL     1      13.197  -0.962  26.452  0.00  0.00    +0.000 C 
BRANCH  18  19
ATOM     19  C   UNL     1      12.302  -1.953  27.036  0.00  0.00    +0.000 C 
BRANCH  19  20
ATOM     20  N   UNL     1      11.009  -2.034  26.885  0.00  0.00    +0.000 NA
BRANCH  20  21
ATOM     21  C   UNL     1      10.527  -1.373  25.690  0.00  0.00    +0.000 C 
BRANCH  21  22
ATOM     22  C   UNL     1       9.720  -0.214  26.191  0.00  0.00    +0.000 A 
ATOM     23  C   UNL     1       9.715   0.930  25.352  0.00  0.00    +0.000 A 
ATOM     24  C   UNL     1       8.985   2.007  25.707  0.00  0.00    +0.000 A 
ATOM     25  C   UNL     1       8.234   2.004  26.886  0.00  0.00    +0.000 A 
ATOM     26  O   UNL     1       7.534   3.201  27.138  0.00  0.00    +0.000 OA
ATOM     27  C   UNL     1       8.198   0.889  27.676  0.00  0.00    +0.000 A 
ATOM     28  C   UNL     1       8.968  -0.172  27.263  0.00  0.00    +0.000 A 
ENDBRANCH  21  22
ENDBRANCH  20  21
ENDBRANCH  19  20
ENDBRANCH  18  19
ENDBRANCH   1  18
TORSDOF 9
ENDMDL
MODEL 5
REMARK VINA RESULT:      -6.2      3.462      7.057
REMARK  Name = 
REMARK  9 active torsions:
REMARK  status: ('A' for Active; 'I' for Inactive)
REMARK    1  A    between atoms: C_2  and  O_4
REMARK    2  A    between atoms: O_4  and  C_5
REMARK    3  A    between atoms: C_8  and  C_9
REMARK    4  A    between atoms: C_9  and  C_10
REMARK    5  A    between atoms: C_9  and  C_21
REMARK    6  A    between atoms: C_10  and  C_11
REMARK    7  A    between atoms: C_11  and  N_12
REMARK    8  A    between atoms: N_12  and  C_13
REMARK    9  A    between atoms: C_13  and  C_14
REMARK                            x       y       z     vdW  Elec       q    Type
REMARK                         _______ _______ _______ _____ _____    ______ ____
ROOT
ATOM      1  C   UNL     1      38.837  -2.327  14.262  0.00  0.00    +0.000 C 
ENDROOT
BRANCH   1   5
ATOM      2  C   UNL     1      41.409  -3.093  10.917  0.00  0.00    +0.000 A 
ATOM      3  C   UNL     1      40.282  -2.431  10.675  0.00  0.00    +0.000 A 
ATOM      4  C   UNL     1      39.493  -2.099  11.821  0.00  0.00    +0.000 A 
ATOM      5  C   UNL     1      39.858  -2.374  13.019  0.00  0.00    +0.000 A 
ATOM      6  C   UNL     1      41.050  -3.026  13.264  0.00  0.00    +0.000 A 
ATOM      7  C   UNL     1      41.825  -3.402  12.220  0.00  0.00    +0.000 A 
BRANCH   2   8
ATOM      8  O   UNL     1      42.312  -3.597   9.898  0.00  0.00    +0.000 OA
BRANCH   8  10
ATOM      9  C   UNL     1      41.276  -4.009   7.685  0.00  0.00    +0.000 C 
ATOM     10  C   UNL     1      41.527  -4.452   9.086  0.00  0.00    +0.000 C 
ATOM     11  C   UNL     1      41.911  -5.849   9.276  0.00  0.00    +0.000 C 
ENDBRANCH   8  10
ENDBRANCH   2   8
ENDBRANCH   1   5
BRANCH   1  12
ATOM     12  C   UNL     1      38.182  -0.957  14.230  0.00  0.00    +0.000 A 
ATOM     13  C   UNL     1      37.061  -0.554  13.734  0.00  0.00    +0.000 A 
ATOM     14  C   UNL     1      36.642   0.715  13.755  0.00  0.00    +0.000 A 
ATOM     15  C   UNL     1      37.431   1.672  14.316  0.00  0.00    +0.000 A 
ATOM     16  C   UNL     1      38.642   1.341  14.865  0.00  0.00    +0.000 A 
ATOM     17  C   UNL     1      39.028   0.048  14.835  0.00  0.00    +0.000 A 
ENDBRANCH   1  12
BRANCH   1  18
ATOM     18  C   UNL     1      37.624  -3.158  13.412  0.00  0.00    +0.000 C 
BRANCH  18  19
ATOM     19  C   UNL     1      37.143  -4.069  14.442  0.00  0.00    +0.000 C 
BRANCH  19  20
ATOM     20  N   UNL     1      35.926  -4.171  14.900  0.00  0.00    +0.000 NA
BRANCH  20  21
ATOM     21  C   UNL     1      35.858  -4.213  16.346  0.00  0.00    +0.000 C 
BRANCH  21  22
ATOM     22  C   UNL     1      35.900  -2.778  16.775  0.00  0.00    +0.000 A 
ATOM     23  C   UNL     1      37.056  -2.396  17.504  0.00  0.00    +0.000 A 
ATOM     24  C   UNL     1      37.196  -1.114  17.897  0.00  0.00    +0.000 A 
ATOM     25  C   UNL     1      36.219  -0.162  17.592  0.00  0.00    +0.000 A 
ATOM     26  O   UNL     1      36.489   1.133  18.080  0.00  0.00    +0.000 OA
ATOM     27  C   UNL     1      35.125  -0.512  16.850  0.00  0.00    +0.000 A 
ATOM     28  C   UNL     1      35.038  -1.835  16.485  0.00  0.00    +0.000 A 
ENDBRANCH  21  22
ENDBRANCH  20  21
ENDBRANCH  19  20
ENDBRANCH  18  19
ENDBRANCH   1  18
TORSDOF 9
ENDMDL
MODEL 6
REMARK VINA RESULT:      -6.2      2.154      5.482
REMARK  Name = 
REMARK  9 active torsions:
REMARK  status: ('A' for Active; 'I' for Inactive)
REMARK    1  A    between atoms: C_2  and  O_4
REMARK    2  A    between atoms: O_4  and  C_5
REMARK    3  A    between atoms: C_8  and  C_9
REMARK    4  A    between atoms: C_9  and  C_10
REMARK    5  A    between atoms: C_9  and  C_21
REMARK    6  A    between atoms: C_10  and  C_11
REMARK    7  A    between atoms: C_11  and  N_12
REMARK    8  A    between atoms: N_12  and  C_13
REMARK    9  A    between atoms: C_13  and  C_14
REMARK                            x       y       z     vdW  Elec       q    Type
REMARK                         _______ _______ _______ _____ _____    ______ ____
ROOT
ATOM      1  C   UNL     1      36.704   3.071  14.707  0.00  0.00    +0.000 C 
ENDROOT
BRANCH   1   5
ATOM      2  C   UNL     1      38.312  -0.827  13.922  0.00  0.00    +0.000 A 
ATOM      3  C   UNL     1      37.163  -0.516  13.331  0.00  0.00    +0.000 A 
ATOM      4  C   UNL     1      36.701   0.825  13.527  0.00  0.00    +0.000 A 
ATOM      5  C   UNL     1      37.365   1.698  14.189  0.00  0.00    +0.000 A 
ATOM      6  C   UNL     1      38.578   1.378  14.766  0.00  0.00    +0.000 A 
ATOM      7  C   UNL     1      39.053   0.115  14.650  0.00  0.00    +0.000 A 
BRANCH   2   8
ATOM      8  O   UNL     1      38.917  -2.146  13.921  0.00  0.00    +0.000 OA
BRANCH   8  10
ATOM      9  C   UNL     1      41.365  -2.524  13.839  0.00  0.00    +0.000 C 
ATOM     10  C   UNL     1      40.125  -2.009  13.192  0.00  0.00    +0.000 C 
ATOM     11  C   UNL     1      39.926  -2.346  11.785  0.00  0.00    +0.000 C 
ENDBRANCH   8  10
ENDBRANCH   2   8
ENDBRANCH   1   5
BRANCH   1  12
ATOM     12  C   UNL     1      36.524   3.951  13.482  0.00  0.00    +0.000 A 
ATOM     13  C   UNL     1      37.062   3.910  12.311  0.00  0.00    +0.000 A 
ATOM     14  C   UNL     1      36.822   4.798  11.341  0.00  0.00    +0.000 A 
ATOM     15  C   UNL     1      35.970   5.833  11.577  0.00  0.00    +0.000 A 
ATOM     16  C   UNL     1      35.352   5.963  12.793  0.00  0.00    +0.000 A 
ATOM     17  C   UNL     1      35.610   5.042  13.745  0.00  0.00    +0.000 A 
ENDBRANCH   1  12
BRANCH   1  18
ATOM     18  C   UNL     1      35.138   2.415  14.725  0.00  0.00    +0.000 C 
BRANCH  18  19
ATOM     19  C   UNL     1      34.848   2.440  16.153  0.00  0.00    +0.000 C 
BRANCH  19  20
ATOM     20  N   UNL     1      34.606   1.418  16.927  0.00  0.00    +0.000 NA
BRANCH  20  21
ATOM     21  C   UNL     1      35.780   0.934  17.622  0.00  0.00    +0.000 C 
BRANCH  21  22
ATOM     22  C   UNL     1      35.982  -0.460  17.110  0.00  0.00    +0.000 A 
ATOM     23  C   UNL     1      37.164  -1.105  17.555  0.00  0.00    +0.000 A 
ATOM     24  C   UNL     1      37.408  -2.375  17.173  0.00  0.00    +0.000 A 
ATOM     25  C   UNL     1      36.510  -3.059  16.349  0.00  0.00    +0.000 A 
ATOM     26  O   UNL     1      36.901  -4.372  16.017  0.00  0.00    +0.000 OA
ATOM     27  C   UNL     1      35.346  -2.459  15.953  0.00  0.00    +0.000 A 
ATOM     28  C   UNL     1      35.159  -1.163  16.371  0.00  0.00    +0.000 A 
ENDBRANCH  21  22
ENDBRANCH  20  21
ENDBRANCH  19  20
ENDBRANCH  18  19
ENDBRANCH   1  18
TORSDOF 9
ENDMDL
MODEL 7
REMARK VINA RESULT:      -6.2      3.329      6.786
REMARK  Name = 
REMARK  9 active torsions:
REMARK  status: ('A' for Active; 'I' for Inactive)
REMARK    1  A    between atoms: C_2  and  O_4
REMARK    2  A    between atoms: O_4  and  C_5
REMARK    3  A    between atoms: C_8  and  C_9
REMARK    4  A    between atoms: C_9  and  C_10
REMARK    5  A    between atoms: C_9  and  C_21
REMARK    6  A    between atoms: C_10  and  C_11
REMARK    7  A    between atoms: C_11  and  N_12
REMARK    8  A    between atoms: N_12  and  C_13
REMARK    9  A    between atoms: C_13  and  C_14
REMARK                            x       y       z     vdW  Elec       q    Type
REMARK                         _______ _______ _______ _____ _____    ______ ____
ROOT
ATOM      1  C   UNL     1      38.515  -1.643  14.900  0.00  0.00    +0.000 C 
ENDROOT
BRANCH   1   5
ATOM      2  C   UNL     1      42.615  -0.885  13.896  0.00  0.00    +0.000 A 
ATOM      3  C   UNL     1      42.235  -2.156  13.973  0.00  0.00    +0.000 A 
ATOM      4  C   UNL     1      40.841  -2.381  14.208  0.00  0.00    +0.000 A 
ATOM      5  C   UNL     1      39.990  -1.427  14.294  0.00  0.00    +0.000 A 
ATOM      6  C   UNL     1      40.387  -0.110  14.173  0.00  0.00    +0.000 A 
ATOM      7  C   UNL     1      41.698   0.172  13.988  0.00  0.00    +0.000 A 
BRANCH   2   8
ATOM      8  O   UNL     1      43.986  -0.434  13.746  0.00  0.00    +0.000 OA
BRANCH   8  10
ATOM      9  C   UNL     1      45.861  -1.974  14.254  0.00  0.00    +0.000 C 
ATOM     10  C   UNL     1      44.725  -1.135  14.732  0.00  0.00    +0.000 C 
ATOM     11  C   UNL     1      44.975  -0.288  15.896  0.00  0.00    +0.000 C 
ENDBRANCH   8  10
ENDBRANCH   2   8
ENDBRANCH   1   5
BRANCH   1  12
ATOM     12  C   UNL     1      37.679  -0.464  14.433  0.00  0.00    +0.000 A 
ATOM     13  C   UNL     1      37.246  -0.130  13.264  0.00  0.00    +0.000 A 
ATOM     14  C   UNL     1      36.546   0.979  13.010  0.00  0.00    +0.000 A 
ATOM     15  C   UNL     1      36.266   1.842  14.025  0.00  0.00    +0.000 A 
ATOM     16  C   UNL     1      36.687   1.575  15.302  0.00  0.00    +0.000 A 
ATOM     17  C   UNL     1      37.383   0.440  15.523  0.00  0.00    +0.000 A 
ENDBRANCH   1  12
BRANCH   1  18
ATOM     18  C   UNL     1      38.068  -2.719  13.664  0.00  0.00    +0.000 C 
BRANCH  18  19
ATOM     19  C   UNL     1      37.332  -3.720  14.425  0.00  0.00    +0.000 C 
BRANCH  19  20
ATOM     20  N   UNL     1      36.040  -3.793  14.590  0.00  0.00    +0.000 NA
BRANCH  20  21
ATOM     21  C   UNL     1      35.656  -4.269  15.903  0.00  0.00    +0.000 C 
BRANCH  21  22
ATOM     22  C   UNL     1      35.543  -3.032  16.742  0.00  0.00    +0.000 A 
ATOM     23  C   UNL     1      36.576  -2.852  17.697  0.00  0.00    +0.000 A 
ATOM     24  C   UNL     1      36.574  -1.747  18.471  0.00  0.00    +0.000 A 
ATOM     25  C   UNL     1      35.572  -0.782  18.337  0.00  0.00    +0.000 A 
ATOM     26  O   UNL     1      35.688   0.311  19.220  0.00  0.00    +0.000 OA
ATOM     27  C   UNL     1      34.599  -0.927  17.387  0.00  0.00    +0.000 A 
ATOM     28  C   UNL     1      34.653  -2.077  16.636  0.00  0.00    +0.000 A 
ENDBRANCH  21  22
ENDBRANCH  20  21
ENDBRANCH  19  20
ENDBRANCH  18  19
ENDBRANCH   1  18
TORSDOF 9
ENDMDL
MODEL 8
REMARK VINA RESULT:      -6.1      1.362      2.124
REMARK  Name = 
REMARK  9 active torsions:
REMARK  status: ('A' for Active; 'I' for Inactive)
REMARK    1  A    between atoms: C_2  and  O_4
REMARK    2  A    between atoms: O_4  and  C_5
REMARK    3  A    between atoms: C_8  and  C_9
REMARK    4  A    between atoms: C_9  and  C_10
REMARK    5  A    between atoms: C_9  and  C_21
REMARK    6  A    between atoms: C_10  and  C_11
REMARK    7  A    between atoms: C_11  and  N_12
REMARK    8  A    between atoms: N_12  and  C_13
REMARK    9  A    between atoms: C_13  and  C_14
REMARK                            x       y       z     vdW  Elec       q    Type
REMARK                         _______ _______ _______ _____ _____    ______ ____
ROOT
ATOM      1  C   UNL     1      35.836   0.846  15.011  0.00  0.00    +0.000 C 
ENDROOT
BRANCH   1   5
ATOM      2  C   UNL     1      36.351   4.850  13.562  0.00  0.00    +0.000 A 
ATOM      3  C   UNL     1      37.229   3.940  13.152  0.00  0.00    +0.000 A 
ATOM      4  C   UNL     1      36.975   2.594  13.566  0.00  0.00    +0.000 A 
ATOM      5  C   UNL     1      35.945   2.261  14.252  0.00  0.00    +0.000 A 
ATOM      6  C   UNL     1      35.016   3.207  14.640  0.00  0.00    +0.000 A 
ATOM      7  C   UNL     1      35.218   4.505  14.312  0.00  0.00    +0.000 A 
BRANCH   2   8
ATOM      8  O   UNL     1      36.462   6.278  13.325  0.00  0.00    +0.000 OA
BRANCH   8  10
ATOM      9  C   UNL     1      38.714   7.303  13.186  0.00  0.00    +0.000 C 
ATOM     10  C   UNL     1      37.636   6.684  14.008  0.00  0.00    +0.000 C 
ATOM     11  C   UNL     1      37.304   7.347  15.267  0.00  0.00    +0.000 C 
ENDBRANCH   8  10
ENDBRANCH   2   8
ENDBRANCH   1   5
BRANCH   1  12
ATOM     12  C   UNL     1      37.147   0.122  14.763  0.00  0.00    +0.000 A 
ATOM     13  C   UNL     1      38.329   0.297  15.250  0.00  0.00    +0.000 A 
ATOM     14  C   UNL     1      39.403  -0.411  14.892  0.00  0.00    +0.000 A 
ATOM     15  C   UNL     1      39.281  -1.380  13.943  0.00  0.00    +0.000 A 
ATOM     16  C   UNL     1      38.067  -1.637  13.364  0.00  0.00    +0.000 A 
ATOM     17  C   UNL     1      37.001  -0.909  13.758  0.00  0.00    +0.000 A 
ENDBRANCH   1  12
BRANCH   1  18
ATOM     18  C   UNL     1      36.249   1.519  16.514  0.00  0.00    +0.000 C 
BRANCH  18  19
ATOM     19  C   UNL     1      35.206   0.957  17.362  0.00  0.00    +0.000 C 
BRANCH  19  20
ATOM     20  N   UNL     1      35.361   0.139  18.367  0.00  0.00    +0.000 NA
BRANCH  20  21
ATOM     21  C   UNL     1      34.984  -1.225  18.061  0.00  0.00    +0.000 C 
BRANCH  21  22
ATOM     22  C   UNL     1      36.280  -1.929  17.791  0.00  0.00    +0.000 A 
ATOM     23  C   UNL     1      36.237  -2.902  16.758  0.00  0.00    +0.000 A 
ATOM     24  C   UNL     1      37.366  -3.559  16.423  0.00  0.00    +0.000 A 
ATOM     25  C   UNL     1      38.572  -3.288  17.077  0.00  0.00    +0.000 A 
ATOM     26  O   UNL     1      39.665  -4.060  16.635  0.00  0.00    +0.000 OA
ATOM     27  C   UNL     1      38.630  -2.320  18.041  0.00  0.00    +0.000 A 
ATOM     28  C   UNL     1      37.444  -1.692  18.341  0.00  0.00    +0.000 A 
ENDBRANCH  21  22
ENDBRANCH  20  21
ENDBRANCH  19  20
ENDBRANCH  18  19
ENDBRANCH   1  18
TORSDOF 9
ENDMDL
MODEL 9
REMARK VINA RESULT:      -6.0      2.452      5.542
REMARK  Name = 
REMARK  9 active torsions:
REMARK  status: ('A' for Active; 'I' for Inactive)
REMARK    1  A    between atoms: C_2  and  O_4
REMARK    2  A    between atoms: O_4  and  C_5
REMARK    3  A    between atoms: C_8  and  C_9
REMARK    4  A    between atoms: C_9  and  C_10
REMARK    5  A    between atoms: C_9  and  C_21
REMARK    6  A    between atoms: C_10  and  C_11
REMARK    7  A    between atoms: C_11  and  N_12
REMARK    8  A    between atoms: N_12  and  C_13
REMARK    9  A    between atoms: C_13  and  C_14
REMARK                            x       y       z     vdW  Elec       q    Type
REMARK                         _______ _______ _______ _____ _____    ______ ____
ROOT
ATOM      1  C   UNL     1      37.057   1.602  15.724  0.00  0.00    +0.000 C 
ENDROOT
BRANCH   1   5
ATOM      2  C   UNL     1      38.547  -1.664  13.377  0.00  0.00    +0.000 A 
ATOM      3  C   UNL     1      37.797  -0.762  12.752  0.00  0.00    +0.000 A 
ATOM      4  C   UNL     1      37.399   0.370  13.532  0.00  0.00    +0.000 A 
ATOM      5  C   UNL     1      37.771   0.542  14.746  0.00  0.00    +0.000 A 
ATOM      6  C   UNL     1      38.584  -0.381  15.376  0.00  0.00    +0.000 A 
ATOM      7  C   UNL     1      38.965  -1.493  14.705  0.00  0.00    +0.000 A 
BRANCH   2   8
ATOM      8  O   UNL     1      38.990  -2.920  12.800  0.00  0.00    +0.000 OA
BRANCH   8  10
ATOM      9  C   UNL     1      41.438  -3.306  12.809  0.00  0.00    +0.000 C 
ATOM     10  C   UNL     1      40.247  -2.642  12.207  0.00  0.00    +0.000 C 
ATOM     11  C   UNL     1      40.150  -2.655  10.750  0.00  0.00    +0.000 C 
ENDBRANCH   8  10
ENDBRANCH   2   8
ENDBRANCH   1   5
BRANCH   1  12
ATOM     12  C   UNL     1      36.924   2.893  14.936  0.00  0.00    +0.000 A 
ATOM     13  C   UNL     1      35.906   3.456  14.378  0.00  0.00    +0.000 A 
ATOM     14  C   UNL     1      35.964   4.591  13.675  0.00  0.00    +0.000 A 
ATOM     15  C   UNL     1      37.164   5.213  13.507  0.00  0.00    +0.000 A 
ATOM     16  C   UNL     1      38.303   4.689  14.059  0.00  0.00    +0.000 A 
ATOM     17  C   UNL     1      38.204   3.547  14.771  0.00  0.00    +0.000 A 
ENDBRANCH   1  12
BRANCH   1  18
ATOM     18  C   UNL     1      35.506   0.995  15.394  0.00  0.00    +0.000 C 
BRANCH  18  19
ATOM     19  C   UNL     1      34.980   0.838  16.744  0.00  0.00    +0.000 C 
BRANCH  19  20
ATOM     20  N   UNL     1      34.729  -0.280  17.368  0.00  0.00    +0.000 NA
BRANCH  20  21
ATOM     21  C   UNL     1      35.425  -0.399  18.633  0.00  0.00    +0.000 C 
BRANCH  21  22
ATOM     22  C   UNL     1      36.448  -1.472  18.408  0.00  0.00    +0.000 A 
ATOM     23  C   UNL     1      36.121  -2.422  17.406  0.00  0.00    +0.000 A 
ATOM     24  C   UNL     1      37.000  -3.400  17.111  0.00  0.00    +0.000 A 
ATOM     25  C   UNL     1      38.226  -3.484  17.777  0.00  0.00    +0.000 A 
ATOM     26  O   UNL     1      39.037  -4.566  17.379  0.00  0.00    +0.000 OA
ATOM     27  C   UNL     1      38.568  -2.546  18.711  0.00  0.00    +0.000 A 
ATOM     28  C   UNL     1      37.626  -1.579  18.971  0.00  0.00    +0.000 A 
ENDBRANCH  21  22
ENDBRANCH  20  21
ENDBRANCH  19  20
ENDBRANCH  18  19
ENDBRANCH   1  18
TORSDOF 9
ENDMDL
MODEL 10
REMARK VINA RESULT:      -6.0      2.496      6.328
REMARK  Name = 
REMARK  9 active torsions:
REMARK  status: ('A' for Active; 'I' for Inactive)
REMARK    1  A    between atoms: C_2  and  O_4
REMARK    2  A    between atoms: O_4  and  C_5
REMARK    3  A    between atoms: C_8  and  C_9
REMARK    4  A    between atoms: C_9  and  C_10
REMARK    5  A    between atoms: C_9  and  C_21
REMARK    6  A    between atoms: C_10  and  C_11
REMARK    7  A    between atoms: C_11  and  N_12
REMARK    8  A    between atoms: N_12  and  C_13
REMARK    9  A    between atoms: C_13  and  C_14
REMARK                            x       y       z     vdW  Elec       q    Type
REMARK                         _______ _______ _______ _____ _____    ______ ____
ROOT
ATOM      1  C   UNL     1      36.378  -1.422  16.191  0.00  0.00    +0.000 C 
ENDROOT
BRANCH   1   5
ATOM      2  C   UNL     1      39.356  -0.648  13.203  0.00  0.00    +0.000 A 
ATOM      3  C   UNL     1      38.100  -0.772  12.788  0.00  0.00    +0.000 A 
ATOM      4  C   UNL     1      37.114  -0.927  13.814  0.00  0.00    +0.000 A 
ATOM      5  C   UNL     1      37.402  -0.903  15.063  0.00  0.00    +0.000 A 
ATOM      6  C   UNL     1      38.705  -0.733  15.486  0.00  0.00    +0.000 A 
ATOM      7  C   UNL     1      39.691  -0.620  14.565  0.00  0.00    +0.000 A 
BRANCH   2   8
ATOM      8  O   UNL     1      40.515  -0.563  12.333  0.00  0.00    +0.000 OA
BRANCH   8  10
ATOM      9  C   UNL     1      40.924  -2.986  12.013  0.00  0.00    +0.000 C 
ATOM     10  C   UNL     1      41.309  -1.694  12.648  0.00  0.00    +0.000 C 
ATOM     11  C   UNL     1      42.729  -1.352  12.640  0.00  0.00    +0.000 C 
ENDBRANCH   8  10
ENDBRANCH   2   8
ENDBRANCH   1   5
BRANCH   1  12
ATOM     12  C   UNL     1      37.192  -2.266  17.156  0.00  0.00    +0.000 A 
ATOM     13  C   UNL     1      37.653  -2.016  18.335  0.00  0.00    +0.000 A 
ATOM     14  C   UNL     1      38.397  -2.866  19.048  0.00  0.00    +0.000 A 
ATOM     15  C   UNL     1      38.721  -4.078  18.519  0.00  0.00    +0.000 A 
ATOM     16  C   UNL     1      38.280  -4.433  17.271  0.00  0.00    +0.000 A 
ATOM     17  C   UNL     1      37.522  -3.553  16.585  0.00  0.00    +0.000 A 
ENDBRANCH   1  12
BRANCH   1  18
ATOM     18  C   UNL     1      36.463   0.033  17.063  0.00  0.00    +0.000 C 
BRANCH  18  19
ATOM     19  C   UNL     1      35.180   0.632  16.722  0.00  0.00    +0.000 C 
BRANCH  19  20
ATOM     20  N   UNL     1      34.971   1.815  16.213  0.00  0.00    +0.000 NA
BRANCH  20  21
ATOM     21  C   UNL     1      36.031   2.759  16.500  0.00  0.00    +0.000 C 
BRANCH  21  22
ATOM     22  C   UNL     1      36.829   2.836  15.233  0.00  0.00    +0.000 A 
ATOM     23  C   UNL     1      38.232   2.957  15.407  0.00  0.00    +0.000 A 
ATOM     24  C   UNL     1      39.031   2.996  14.321  0.00  0.00    +0.000 A 
ATOM     25  C   UNL     1      38.492   2.914  13.034  0.00  0.00    +0.000 A 
ATOM     26  O   UNL     1      39.443   2.984  11.995  0.00  0.00    +0.000 OA
ATOM     27  C   UNL     1      37.146   2.752  12.860  0.00  0.00    +0.000 A 
ATOM     28  C   UNL     1      36.386   2.726  14.005  0.00  0.00    +0.000 A 
ENDBRANCH  21  22
ENDBRANCH  20  21
ENDBRANCH  19  20
ENDBRANCH  18  19
ENDBRANCH   1  18
TORSDOF 9
ENDMDL
