MODEL 1
REMARK VINA RESULT:      -6.7      0.000      0.000
REMARK  Name = 
REMARK  4 active torsions:
REMARK  status: ('A' for Active; 'I' for Inactive)
REMARK    1  A    between atoms: C_6  and  C_7
REMARK    2  A    between atoms: C_10  and  N_11
REMARK    3  A    between atoms: C_12  and  C_14
REMARK    4  A    between atoms: C_18  and  N_19
REMARK                            x       y       z     vdW  Elec       q    Type
REMARK                         _______ _______ _______ _____ _____    ______ ____
ROOT
ATOM      1  N   UNL     1      28.455  22.652  27.241  0.00  0.00    +0.000 NA
ATOM      2  C   UNL     1      28.046  23.801  26.546  0.00  0.00    +0.000 C 
ATOM      3  O   UNL     1      28.221  24.919  27.101  0.00  0.00    +0.000 OA
ENDROOT
BRANCH   1  10
ATOM      4  C   UNL     1      31.230  22.758  27.305  0.00  0.00    +0.000 C 
ATOM      5  C   UNL     1      30.446  22.696  28.566  0.00  0.00    +0.000 A 
ATOM      6  C   UNL     1      31.040  22.697  29.808  0.00  0.00    +0.000 A 
ATOM      7  C   UNL     1      30.315  22.641  30.979  0.00  0.00    +0.000 A 
ATOM      8  C   UNL     1      28.941  22.584  30.873  0.00  0.00    +0.000 A 
ATOM      9  C   UNL     1      28.289  22.580  29.645  0.00  0.00    +0.000 A 
ATOM     10  C   UNL     1      29.059  22.636  28.518  0.00  0.00    +0.000 A 
BRANCH   9  11
ATOM     11  C   UNL     1      26.813  22.522  29.524  0.00  0.00    +0.000 C 
ATOM     12  C   UNL     1      26.268  23.878  30.000  0.00  0.00    +0.000 C 
ATOM     13  C   UNL     1      26.234  21.498  30.511  0.00  0.00    +0.000 C 
ENDBRANCH   9  11
ENDBRANCH   1  10
BRANCH   2  14
ATOM     14  C   UNL     1      27.429  23.729  25.207  0.00  0.00    +0.000 A 
ATOM     15  C   UNL     1      26.203  23.156  24.981  0.00  0.00    +0.000 A 
ATOM     16  C   UNL     1      25.641  23.082  23.720  0.00  0.00    +0.000 A 
ATOM     17  C   UNL     1      26.344  23.605  22.659  0.00  0.00    +0.000 A 
ATOM     18  C   UNL     1      27.581  24.189  22.854  0.00  0.00    +0.000 A 
ATOM     19  C   UNL     1      28.116  24.246  24.139  0.00  0.00    +0.000 A 
BRANCH  18  20
ATOM     20  N   UNL     1      28.301  24.720  21.747  0.00  0.00    +0.000 N 
ATOM     21  O   UNL     1      27.916  25.746  21.194  0.00  0.00    +0.000 OA
ATOM     22  O   UNL     1      29.426  24.108  21.273  0.00  0.00    +0.000 OA
ENDBRANCH  18  20
ENDBRANCH   2  14
TORSDOF 4
ENDMDL
MODEL 2
REMARK VINA RESULT:      -6.6      2.984      5.046
REMARK  Name = 
REMARK  4 active torsions:
REMARK  status: ('A' for Active; 'I' for Inactive)
REMARK    1  A    between atoms: C_6  and  C_7
REMARK    2  A    between atoms: C_10  and  N_11
REMARK    3  A    between atoms: C_12  and  C_14
REMARK    4  A    between atoms: C_18  and  N_19
REMARK                            x       y       z     vdW  Elec       q    Type
REMARK                         _______ _______ _______ _____ _____    ______ ____
ROOT
ATOM      1  N   UNL     1      30.901  24.347  25.646  0.00  0.00    +0.000 NA
ATOM      2  C   UNL     1      30.666  23.577  24.496  0.00  0.00    +0.000 C 
ATOM      3  O   UNL     1      31.429  22.598  24.275  0.00  0.00    +0.000 OA
ENDROOT
BRANCH   1  10
ATOM      4  C   UNL     1      30.211  22.832  27.870  0.00  0.00    +0.000 C 
ATOM      5  C   UNL     1      31.593  23.354  27.708  0.00  0.00    +0.000 A 
ATOM      6  C   UNL     1      32.589  23.112  28.629  0.00  0.00    +0.000 A 
ATOM      7  C   UNL     1      33.871  23.592  28.480  0.00  0.00    +0.000 A 
ATOM      8  C   UNL     1      34.143  24.343  27.355  0.00  0.00    +0.000 A 
ATOM      9  C   UNL     1      33.177  24.618  26.394  0.00  0.00    +0.000 A 
ATOM     10  C   UNL     1      31.922  24.115  26.594  0.00  0.00    +0.000 A 
BRANCH   9  11
ATOM     11  C   UNL     1      33.462  25.420  25.181  0.00  0.00    +0.000 C 
ATOM     12  C   UNL     1      34.612  24.721  24.438  0.00  0.00    +0.000 C 
ATOM     13  C   UNL     1      34.023  26.796  25.567  0.00  0.00    +0.000 C 
ENDBRANCH   9  11
ENDBRANCH   1  10
BRANCH   2  14
ATOM     14  C   UNL     1      29.568  23.884  23.557  0.00  0.00    +0.000 A 
ATOM     15  C   UNL     1      29.737  24.662  22.441  0.00  0.00    +0.000 A 
ATOM     16  C   UNL     1      28.697  24.954  21.577  0.00  0.00    +0.000 A 
ATOM     17  C   UNL     1      27.452  24.439  21.855  0.00  0.00    +0.000 A 
ATOM     18  C   UNL     1      27.250  23.651  22.972  0.00  0.00    +0.000 A 
ATOM     19  C   UNL     1      28.321  23.378  23.820  0.00  0.00    +0.000 A 
BRANCH  18  20
ATOM     20  N   UNL     1      25.954  23.131  23.252  0.00  0.00    +0.000 N 
ATOM     21  O   UNL     1      25.252  22.702  22.343  0.00  0.00    +0.000 OA
ATOM     22  O   UNL     1      25.464  23.098  24.526  0.00  0.00    +0.000 OA
ENDBRANCH  18  20
ENDBRANCH   2  14
TORSDOF 4
ENDMDL
MODEL 3
REMARK VINA RESULT:      -6.5     18.011     19.771
REMARK  Name = 
REMARK  4 active torsions:
REMARK  status: ('A' for Active; 'I' for Inactive)
REMARK    1  A    between atoms: C_6  and  C_7
REMARK    2  A    between atoms: C_10  and  N_11
REMARK    3  A    between atoms: C_12  and  C_14
REMARK    4  A    between atoms: C_18  and  N_19
REMARK                            x       y       z     vdW  Elec       q    Type
REMARK                         _______ _______ _______ _____ _____    ______ ____
ROOT
ATOM      1  N   UNL     1      17.931  10.972  37.980  0.00  0.00    +0.000 NA
ATOM      2  C   UNL     1      17.788  10.262  36.777  0.00  0.00    +0.000 C 
ATOM      3  O   UNL     1      18.420   9.178  36.654  0.00  0.00    +0.000 OA
ENDROOT
BRANCH   1  10
ATOM      4  C   UNL     1      16.651   9.496  39.956  0.00  0.00    +0.000 C 
ATOM      5  C   UNL     1      18.096   9.827  40.073  0.00  0.00    +0.000 A 
ATOM      6  C   UNL     1      18.864   9.421  41.142  0.00  0.00    +0.000 A 
ATOM      7  C   UNL     1      20.203   9.725  41.252  0.00  0.00    +0.000 A 
ATOM      8  C   UNL     1      20.773  10.466  40.238  0.00  0.00    +0.000 A 
ATOM      9  C   UNL     1      20.045  10.903  39.137  0.00  0.00    +0.000 A 
ATOM     10  C   UNL     1      18.720  10.572  39.080  0.00  0.00    +0.000 A 
BRANCH   9  11
ATOM     11  C   UNL     1      20.651  11.696  38.042  0.00  0.00    +0.000 C 
ATOM     12  C   UNL     1      21.890  10.926  37.559  0.00  0.00    +0.000 C 
ATOM     13  C   UNL     1      21.200  13.025  38.582  0.00  0.00    +0.000 C 
ENDBRANCH   9  11
ENDBRANCH   1  10
BRANCH   2  14
ATOM     14  C   UNL     1      16.933  10.748  35.676  0.00  0.00    +0.000 A 
ATOM     15  C   UNL     1      17.125  10.383  34.368  0.00  0.00    +0.000 A 
ATOM     16  C   UNL     1      16.326  10.857  33.342  0.00  0.00    +0.000 A 
ATOM     17  C   UNL     1      15.305  11.724  33.656  0.00  0.00    +0.000 A 
ATOM     18  C   UNL     1      15.087  12.110  34.965  0.00  0.00    +0.000 A 
ATOM     19  C   UNL     1      15.912  11.613  35.972  0.00  0.00    +0.000 A 
BRANCH  18  20
ATOM     20  N   UNL     1      14.031  13.013  35.275  0.00  0.00    +0.000 N 
ATOM     21  O   UNL     1      13.787  13.957  34.530  0.00  0.00    +0.000 OA
ATOM     22  O   UNL     1      13.271  12.857  36.399  0.00  0.00    +0.000 OA
ENDBRANCH  18  20
ENDBRANCH   2  14
TORSDOF 4
ENDMDL
MODEL 4
REMARK VINA RESULT:      -6.4      2.276      6.828
REMARK  Name = 
REMARK  4 active torsions:
REMARK  status: ('A' for Active; 'I' for Inactive)
REMARK    1  A    between atoms: C_6  and  C_7
REMARK    2  A    between atoms: C_10  and  N_11
REMARK    3  A    between atoms: C_12  and  C_14
REMARK    4  A    between atoms: C_18  and  N_19
REMARK                            x       y       z     vdW  Elec       q    Type
REMARK                         _______ _______ _______ _____ _____    ______ ____
ROOT
ATOM      1  N   UNL     1      28.540  24.332  25.705  0.00  0.00    +0.000 NA
ATOM      2  C   UNL     1      28.981  23.156  26.333  0.00  0.00    +0.000 C 
ATOM      3  O   UNL     1      29.394  22.217  25.600  0.00  0.00    +0.000 OA
ENDROOT
BRANCH   1  10
ATOM      4  C   UNL     1      30.871  25.348  24.587  0.00  0.00    +0.000 C 
ATOM      5  C   UNL     1      29.684  25.064  23.738  0.00  0.00    +0.000 A 
ATOM      6  C   UNL     1      29.679  25.277  22.377  0.00  0.00    +0.000 A 
ATOM      7  C   UNL     1      28.582  25.013  21.587  0.00  0.00    +0.000 A 
ATOM      8  C   UNL     1      27.455  24.516  22.210  0.00  0.00    +0.000 A 
ATOM      9  C   UNL     1      27.404  24.282  23.579  0.00  0.00    +0.000 A 
ATOM     10  C   UNL     1      28.523  24.563  24.313  0.00  0.00    +0.000 A 
BRANCH   9  11
ATOM     11  C   UNL     1      26.200  23.745  24.254  0.00  0.00    +0.000 C 
ATOM     12  C   UNL     1      25.364  23.029  23.182  0.00  0.00    +0.000 C 
ATOM     13  C   UNL     1      25.305  24.891  24.749  0.00  0.00    +0.000 C 
ENDBRANCH   9  11
ENDBRANCH   1  10
BRANCH   2  14
ATOM     14  C   UNL     1      28.973  22.999  27.801  0.00  0.00    +0.000 A 
ATOM     15  C   UNL     1      30.119  22.860  28.541  0.00  0.00    +0.000 A 
ATOM     16  C   UNL     1      30.098  22.700  29.915  0.00  0.00    +0.000 A 
ATOM     17  C   UNL     1      28.879  22.680  30.553  0.00  0.00    +0.000 A 
ATOM     18  C   UNL     1      27.707  22.818  29.834  0.00  0.00    +0.000 A 
ATOM     19  C   UNL     1      27.767  22.978  28.451  0.00  0.00    +0.000 A 
BRANCH  18  20
ATOM     20  N   UNL     1      26.452  22.789  30.505  0.00  0.00    +0.000 N 
ATOM     21  O   UNL     1      25.936  21.716  30.802  0.00  0.00    +0.000 OA
ATOM     22  O   UNL     1      25.795  23.941  30.830  0.00  0.00    +0.000 OA
ENDBRANCH  18  20
ENDBRANCH   2  14
TORSDOF 4
ENDMDL
MODEL 5
REMARK VINA RESULT:      -6.3      1.988      2.326
REMARK  Name = 
REMARK  4 active torsions:
REMARK  status: ('A' for Active; 'I' for Inactive)
REMARK    1  A    between atoms: C_6  and  C_7
REMARK    2  A    between atoms: C_10  and  N_11
REMARK    3  A    between atoms: C_12  and  C_14
REMARK    4  A    between atoms: C_18  and  N_19
REMARK                            x       y       z     vdW  Elec       q    Type
REMARK                         _______ _______ _______ _____ _____    ______ ____
ROOT
ATOM      1  N   UNL     1      29.457  23.517  27.678  0.00  0.00    +0.000 NA
ATOM      2  C   UNL     1      29.480  22.621  26.597  0.00  0.00    +0.000 C 
ATOM      3  O   UNL     1      29.871  21.442  26.816  0.00  0.00    +0.000 OA
ENDROOT
BRANCH   1  10
ATOM      4  C   UNL     1      32.156  23.741  28.296  0.00  0.00    +0.000 C 
ATOM      5  C   UNL     1      31.173  23.325  29.332  0.00  0.00    +0.000 A 
ATOM      6  C   UNL     1      31.539  23.043  30.629  0.00  0.00    +0.000 A 
ATOM      7  C   UNL     1      30.630  22.660  31.591  0.00  0.00    +0.000 A 
ATOM      8  C   UNL     1      29.307  22.562  31.213  0.00  0.00    +0.000 A 
ATOM      9  C   UNL     1      28.882  22.835  29.917  0.00  0.00    +0.000 A 
ATOM     10  C   UNL     1      29.828  23.211  29.005  0.00  0.00    +0.000 A 
BRANCH   9  11
ATOM     11  C   UNL     1      27.462  22.737  29.505  0.00  0.00    +0.000 C 
ATOM     12  C   UNL     1      26.755  24.002  30.016  0.00  0.00    +0.000 C 
ATOM     13  C   UNL     1      26.770  21.578  30.237  0.00  0.00    +0.000 C 
ENDBRANCH   9  11
ENDBRANCH   1  10
BRANCH   2  14
ATOM     14  C   UNL     1      29.066  23.021  25.237  0.00  0.00    +0.000 A 
ATOM     15  C   UNL     1      29.957  23.420  24.275  0.00  0.00    +0.000 A 
ATOM     16  C   UNL     1      29.556  23.806  23.008  0.00  0.00    +0.000 A 
ATOM     17  C   UNL     1      28.212  23.784  22.713  0.00  0.00    +0.000 A 
ATOM     18  C   UNL     1      27.290  23.387  23.661  0.00  0.00    +0.000 A 
ATOM     19  C   UNL     1      27.731  23.005  24.927  0.00  0.00    +0.000 A 
BRANCH  18  20
ATOM     20  N   UNL     1      25.902  23.376  23.346  0.00  0.00    +0.000 N 
ATOM     21  O   UNL     1      25.089  23.871  24.120  0.00  0.00    +0.000 OA
ATOM     22  O   UNL     1      25.443  22.819  22.187  0.00  0.00    +0.000 OA
ENDBRANCH  18  20
ENDBRANCH   2  14
TORSDOF 4
ENDMDL
MODEL 6
REMARK VINA RESULT:      -6.2      2.493      7.136
REMARK  Name = 
REMARK  4 active torsions:
REMARK  status: ('A' for Active; 'I' for Inactive)
REMARK    1  A    between atoms: C_6  and  C_7
REMARK    2  A    between atoms: C_10  and  N_11
REMARK    3  A    between atoms: C_12  and  C_14
REMARK    4  A    between atoms: C_18  and  N_19
REMARK                            x       y       z     vdW  Elec       q    Type
REMARK                         _______ _______ _______ _____ _____    ______ ____
ROOT
ATOM      1  N   UNL     1      28.276  24.258  25.847  0.00  0.00    +0.000 NA
ATOM      2  C   UNL     1      29.023  23.241  26.462  0.00  0.00    +0.000 C 
ATOM      3  O   UNL     1      29.749  22.517  25.729  0.00  0.00    +0.000 OA
ENDROOT
BRANCH   1  10
ATOM      4  C   UNL     1      26.330  23.000  24.316  0.00  0.00    +0.000 C 
ATOM      5  C   UNL     1      27.299  23.935  23.688  0.00  0.00    +0.000 A 
ATOM      6  C   UNL     1      27.280  24.230  22.343  0.00  0.00    +0.000 A 
ATOM      7  C   UNL     1      28.176  25.098  21.759  0.00  0.00    +0.000 A 
ATOM      8  C   UNL     1      29.120  25.683  22.578  0.00  0.00    +0.000 A 
ATOM      9  C   UNL     1      29.186  25.422  23.942  0.00  0.00    +0.000 A 
ATOM     10  C   UNL     1      28.271  24.552  24.466  0.00  0.00    +0.000 A 
BRANCH   9  11
ATOM     11  C   UNL     1      30.195  26.049  24.827  0.00  0.00    +0.000 C 
ATOM     12  C   UNL     1      30.357  27.506  24.367  0.00  0.00    +0.000 C 
ATOM     13  C   UNL     1      31.574  25.412  24.606  0.00  0.00    +0.000 C 
ENDBRANCH   9  11
ENDBRANCH   1  10
BRANCH   2  14
ATOM     14  C   UNL     1      28.978  23.005  27.919  0.00  0.00    +0.000 A 
ATOM     15  C   UNL     1      30.104  22.821  28.679  0.00  0.00    +0.000 A 
ATOM     16  C   UNL     1      30.048  22.587  30.041  0.00  0.00    +0.000 A 
ATOM     17  C   UNL     1      28.813  22.539  30.647  0.00  0.00    +0.000 A 
ATOM     18  C   UNL     1      27.661  22.722  29.908  0.00  0.00    +0.000 A 
ATOM     19  C   UNL     1      27.755  22.955  28.537  0.00  0.00    +0.000 A 
BRANCH  18  20
ATOM     20  N   UNL     1      26.388  22.663  30.545  0.00  0.00    +0.000 N 
ATOM     21  O   UNL     1      25.770  23.695  30.785  0.00  0.00    +0.000 OA
ATOM     22  O   UNL     1      25.830  21.469  30.904  0.00  0.00    +0.000 OA
ENDBRANCH  18  20
ENDBRANCH   2  14
TORSDOF 4
ENDMDL
MODEL 7
REMARK VINA RESULT:      -6.2      1.872      3.521
REMARK  Name = 
REMARK  4 active torsions:
REMARK  status: ('A' for Active; 'I' for Inactive)
REMARK    1  A    between atoms: C_6  and  C_7
REMARK    2  A    between atoms: C_10  and  N_11
REMARK    3  A    between atoms: C_12  and  C_14
REMARK    4  A    between atoms: C_18  and  N_19
REMARK                            x       y       z     vdW  Elec       q    Type
REMARK                         _______ _______ _______ _____ _____    ______ ____
ROOT
ATOM      1  N   UNL     1      27.597  24.892  26.561  0.00  0.00    +0.000 NA
ATOM      2  C   UNL     1      27.372  24.464  25.243  0.00  0.00    +0.000 C 
ATOM      3  O   UNL     1      27.059  23.256  25.061  0.00  0.00    +0.000 OA
ENDROOT
BRANCH   1  10
ATOM      4  C   UNL     1      25.129  24.850  27.835  0.00  0.00    +0.000 C 
ATOM      5  C   UNL     1      26.266  24.048  28.359  0.00  0.00    +0.000 A 
ATOM      6  C   UNL     1      26.157  23.251  29.476  0.00  0.00    +0.000 A 
ATOM      7  C   UNL     1      27.208  22.505  29.963  0.00  0.00    +0.000 A 
ATOM      8  C   UNL     1      28.407  22.578  29.284  0.00  0.00    +0.000 A 
ATOM      9  C   UNL     1      28.574  23.367  28.151  0.00  0.00    +0.000 A 
ATOM     10  C   UNL     1      27.496  24.085  27.714  0.00  0.00    +0.000 A 
BRANCH   9  11
ATOM     11  C   UNL     1      29.857  23.447  27.415  0.00  0.00    +0.000 C 
ATOM     12  C   UNL     1      30.192  22.026  26.937  0.00  0.00    +0.000 C 
ATOM     13  C   UNL     1      31.001  23.820  28.370  0.00  0.00    +0.000 C 
ENDBRANCH   9  11
ENDBRANCH   1  10
BRANCH   2  14
ATOM     14  C   UNL     1      27.491  25.378  24.089  0.00  0.00    +0.000 A 
ATOM     15  C   UNL     1      26.768  26.538  23.981  0.00  0.00    +0.000 A 
ATOM     16  C   UNL     1      26.878  27.379  22.888  0.00  0.00    +0.000 A 
ATOM     17  C   UNL     1      27.746  27.031  21.879  0.00  0.00    +0.000 A 
ATOM     18  C   UNL     1      28.488  25.869  21.960  0.00  0.00    +0.000 A 
ATOM     19  C   UNL     1      28.352  25.045  23.076  0.00  0.00    +0.000 A 
BRANCH  18  20
ATOM     20  N   UNL     1      29.378  25.517  20.905  0.00  0.00    +0.000 N 
ATOM     21  O   UNL     1      29.692  24.344  20.729  0.00  0.00    +0.000 OA
ATOM     22  O   UNL     1      29.901  26.464  20.073  0.00  0.00    +0.000 OA
ENDBRANCH  18  20
ENDBRANCH   2  14
TORSDOF 4
ENDMDL
MODEL 8
REMARK VINA RESULT:      -6.2     21.375     24.564
REMARK  Name = 
REMARK  4 active torsions:
REMARK  status: ('A' for Active; 'I' for Inactive)
REMARK    1  A    between atoms: C_6  and  C_7
REMARK    2  A    between atoms: C_10  and  N_11
REMARK    3  A    between atoms: C_12  and  C_14
REMARK    4  A    between atoms: C_18  and  N_19
REMARK                            x       y       z     vdW  Elec       q    Type
REMARK                         _______ _______ _______ _____ _____    ______ ____
ROOT
ATOM      1  N   UNL     1      18.756   6.588  40.398  0.00  0.00    +0.000 NA
ATOM      2  C   UNL     1      19.979   6.534  41.084  0.00  0.00    +0.000 C 
ATOM      3  O   UNL     1      20.258   7.481  41.867  0.00  0.00    +0.000 OA
ENDROOT
BRANCH   1  10
ATOM      4  C   UNL     1      16.765   6.222  42.301  0.00  0.00    +0.000 C 
ATOM      5  C   UNL     1      16.797   7.451  41.465  0.00  0.00    +0.000 A 
ATOM      6  C   UNL     1      15.867   8.457  41.592  0.00  0.00    +0.000 A 
ATOM      7  C   UNL     1      15.895   9.599  40.820  0.00  0.00    +0.000 A 
ATOM      8  C   UNL     1      16.907   9.711  39.890  0.00  0.00    +0.000 A 
ATOM      9  C   UNL     1      17.873   8.726  39.719  0.00  0.00    +0.000 A 
ATOM     10  C   UNL     1      17.795   7.616  40.513  0.00  0.00    +0.000 A 
BRANCH   9  11
ATOM     11  C   UNL     1      18.966   8.842  38.725  0.00  0.00    +0.000 C 
ATOM     12  C   UNL     1      19.925   9.930  39.234  0.00  0.00    +0.000 C 
ATOM     13  C   UNL     1      18.426   9.387  37.395  0.00  0.00    +0.000 C 
ENDBRANCH   9  11
ENDBRANCH   1  10
BRANCH   2  14
ATOM     14  C   UNL     1      20.926   5.414  40.912  0.00  0.00    +0.000 A 
ATOM     15  C   UNL     1      22.287   5.584  40.903  0.00  0.00    +0.000 A 
ATOM     16  C   UNL     1      23.164   4.529  40.727  0.00  0.00    +0.000 A 
ATOM     17  C   UNL     1      22.643   3.267  40.556  0.00  0.00    +0.000 A 
ATOM     18  C   UNL     1      21.277   3.063  40.562  0.00  0.00    +0.000 A 
ATOM     19  C   UNL     1      20.423   4.150  40.741  0.00  0.00    +0.000 A 
BRANCH  18  20
ATOM     20  N   UNL     1      20.750   1.753  40.377  0.00  0.00    +0.000 N 
ATOM     21  O   UNL     1      19.571   1.599  40.077  0.00  0.00    +0.000 OA
ATOM     22  O   UNL     1      21.535   0.646  40.528  0.00  0.00    +0.000 OA
ENDBRANCH  18  20
ENDBRANCH   2  14
TORSDOF 4
ENDMDL
MODEL 9
REMARK VINA RESULT:      -6.1     31.495     32.958
REMARK  Name = 
REMARK  4 active torsions:
REMARK  status: ('A' for Active; 'I' for Inactive)
REMARK    1  A    between atoms: C_6  and  C_7
REMARK    2  A    between atoms: C_10  and  N_11
REMARK    3  A    between atoms: C_12  and  C_14
REMARK    4  A    between atoms: C_18  and  N_19
REMARK                            x       y       z     vdW  Elec       q    Type
REMARK                         _______ _______ _______ _____ _____    ______ ____
ROOT
ATOM      1  N   UNL     1      22.895  -8.428  25.393  0.00  0.00    +0.000 NA
ATOM      2  C   UNL     1      21.548  -8.654  25.069  0.00  0.00    +0.000 C 
ATOM      3  O   UNL     1      21.269  -8.932  23.871  0.00  0.00    +0.000 OA
ENDROOT
BRANCH   1  10
ATOM      4  C   UNL     1      23.599  -6.062  24.120  0.00  0.00    +0.000 C 
ATOM      5  C   UNL     1      24.347  -7.318  23.852  0.00  0.00    +0.000 A 
ATOM      6  C   UNL     1      25.413  -7.374  22.982  0.00  0.00    +0.000 A 
ATOM      7  C   UNL     1      26.110  -8.536  22.733  0.00  0.00    +0.000 A 
ATOM      8  C   UNL     1      25.702  -9.676  23.395  0.00  0.00    +0.000 A 
ATOM      9  C   UNL     1      24.633  -9.677  24.283  0.00  0.00    +0.000 A 
ATOM     10  C   UNL     1      23.979  -8.495  24.491  0.00  0.00    +0.000 A 
BRANCH   9  11
ATOM     11  C   UNL     1      24.191 -10.896  25.001  0.00  0.00    +0.000 C 
ATOM     12  C   UNL     1      25.455 -11.700  25.345  0.00  0.00    +0.000 C 
ATOM     13  C   UNL     1      23.389 -11.810  24.063  0.00  0.00    +0.000 C 
ENDBRANCH   9  11
ENDBRANCH   1  10
BRANCH   2  14
ATOM     14  C   UNL     1      20.473  -8.572  26.078  0.00  0.00    +0.000 A 
ATOM     15  C   UNL     1      20.258  -9.547  27.017  0.00  0.00    +0.000 A 
ATOM     16  C   UNL     1      19.239  -9.467  27.949  0.00  0.00    +0.000 A 
ATOM     17  C   UNL     1      18.416  -8.364  27.924  0.00  0.00    +0.000 A 
ATOM     18  C   UNL     1      18.607  -7.365  26.990  0.00  0.00    +0.000 A 
ATOM     19  C   UNL     1      19.645  -7.480  26.066  0.00  0.00    +0.000 A 
BRANCH  18  20
ATOM     20  N   UNL     1      17.744  -6.232  26.970  0.00  0.00    +0.000 N 
ATOM     21  O   UNL     1      16.568  -6.347  27.300  0.00  0.00    +0.000 OA
ATOM     22  O   UNL     1      18.197  -5.003  26.587  0.00  0.00    +0.000 OA
ENDBRANCH  18  20
ENDBRANCH   2  14
TORSDOF 4
ENDMDL
MODEL 10
REMARK VINA RESULT:      -6.1      2.996      6.964
REMARK  Name = 
REMARK  4 active torsions:
REMARK  status: ('A' for Active; 'I' for Inactive)
REMARK    1  A    between atoms: C_6  and  C_7
REMARK    2  A    between atoms: C_10  and  N_11
REMARK    3  A    between atoms: C_12  and  C_14
REMARK    4  A    between atoms: C_18  and  N_19
REMARK                            x       y       z     vdW  Elec       q    Type
REMARK                         _______ _______ _______ _____ _____    ______ ____
ROOT
ATOM      1  N   UNL     1      27.778  25.273  25.507  0.00  0.00    +0.000 NA
ATOM      2  C   UNL     1      26.852  24.363  26.042  0.00  0.00    +0.000 C 
ATOM      3  O   UNL     1      26.367  23.493  25.270  0.00  0.00    +0.000 OA
ENDROOT
BRANCH   1  10
ATOM      4  C   UNL     1      26.289  26.794  23.723  0.00  0.00    +0.000 C 
ATOM      5  C   UNL     1      27.497  26.057  23.266  0.00  0.00    +0.000 A 
ATOM      6  C   UNL     1      27.938  26.094  21.962  0.00  0.00    +0.000 A 
ATOM      7  C   UNL     1      29.058  25.414  21.537  0.00  0.00    +0.000 A 
ATOM      8  C   UNL     1      29.746  24.673  22.475  0.00  0.00    +0.000 A 
ATOM      9  C   UNL     1      29.346  24.599  23.804  0.00  0.00    +0.000 A 
ATOM     10  C   UNL     1      28.227  25.295  24.169  0.00  0.00    +0.000 A 
BRANCH   9  11
ATOM     11  C   UNL     1      30.082  23.809  24.818  0.00  0.00    +0.000 C 
ATOM     12  C   UNL     1      31.579  23.946  24.498  0.00  0.00    +0.000 C 
ATOM     13  C   UNL     1      29.782  22.312  24.654  0.00  0.00    +0.000 C 
ENDBRANCH   9  11
ENDBRANCH   1  10
BRANCH   2  14
ATOM     14  C   UNL     1      26.441  24.404  27.460  0.00  0.00    +0.000 A 
ATOM     15  C   UNL     1      25.800  25.479  28.019  0.00  0.00    +0.000 A 
ATOM     16  C   UNL     1      25.433  25.512  29.352  0.00  0.00    +0.000 A 
ATOM     17  C   UNL     1      25.726  24.421  30.138  0.00  0.00    +0.000 A 
ATOM     18  C   UNL     1      26.371  23.322  29.604  0.00  0.00    +0.000 A 
ATOM     19  C   UNL     1      26.727  23.325  28.256  0.00  0.00    +0.000 A 
BRANCH  18  20
ATOM     20  N   UNL     1      26.676  22.203  30.430  0.00  0.00    +0.000 N 
ATOM     21  O   UNL     1      25.774  21.495  30.866  0.00  0.00    +0.000 OA
ATOM     22  O   UNL     1      27.965  21.892  30.755  0.00  0.00    +0.000 OA
ENDBRANCH  18  20
ENDBRANCH   2  14
TORSDOF 4
ENDMDL
