MODEL 1
REMARK VINA RESULT:      -7.4      0.000      0.000
REMARK  Name = 
REMARK  0 active torsions:
REMARK  status: ('A' for Active; 'I' for Inactive)
REMARK                            x       y       z     vdW  Elec       q    Type
REMARK                         _______ _______ _______ _____ _____    ______ ____
ROOT
ATOM      1  C   UNL     1      28.535  22.401  30.687  0.00  0.00    +0.000 C 
ATOM      2  C   UNL     1      29.020  22.746  29.321  0.00  0.00    +0.000 A 
ATOM      3  C   UNL     1      30.355  23.001  29.075  0.00  0.00    +0.000 A 
ATOM      4  C   UNL     1      30.795  23.319  27.808  0.00  0.00    +0.000 A 
ATOM      5  C   UNL     1      29.920  23.399  26.726  0.00  0.00    +0.000 A 
ATOM      6  C   UNL     1      28.605  23.147  26.971  0.00  0.00    +0.000 A 
ATOM      7  C   UNL     1      28.165  22.828  28.241  0.00  0.00    +0.000 A 
ATOM      8  O   UNL     1      26.815  22.574  28.474  0.00  0.00    +0.000 OA
ATOM      9  C   UNL     1      27.668  23.223  25.858  0.00  0.00    +0.000 C 
ATOM     10  O   UNL     1      26.446  22.994  26.069  0.00  0.00    +0.000 OA
ATOM     11  C   UNL     1      28.191  23.564  24.541  0.00  0.00    +0.000 A 
ATOM     12  C   UNL     1      27.329  23.645  23.466  0.00  0.00    +0.000 A 
ATOM     13  C   UNL     1      25.892  23.371  23.724  0.00  0.00    +0.000 C 
ATOM     14  C   UNL     1      27.790  23.967  22.194  0.00  0.00    +0.000 A 
ATOM     15  C   UNL     1      29.128  24.218  21.964  0.00  0.00    +0.000 A 
ATOM     16  O   UNL     1      29.600  24.544  20.687  0.00  0.00    +0.000 OA
ATOM     17  C   UNL     1      29.973  24.134  23.049  0.00  0.00    +0.000 A 
ATOM     18  C   UNL     1      29.530  23.813  24.331  0.00  0.00    +0.000 A 
ATOM     19  C   UNL     1      30.501  23.744  25.432  0.00  0.00    +0.000 C 
ATOM     20  C   UNL     1      31.307  25.041  25.538  0.00  0.00    +0.000 C 
ATOM     21  O   UNL     1      31.440  22.750  25.095  0.00  0.00    +0.000 OA
ENDROOT
TORSDOF 0
ENDMDL
MODEL 2
REMARK VINA RESULT:      -6.9      1.508      6.152
REMARK  Name = 
REMARK  0 active torsions:
REMARK  status: ('A' for Active; 'I' for Inactive)
REMARK                            x       y       z     vdW  Elec       q    Type
REMARK                         _______ _______ _______ _____ _____    ______ ____
ROOT
ATOM      1  C   UNL     1      29.430  24.934  21.105  0.00  0.00    +0.000 C 
ATOM      2  C   UNL     1      28.645  24.737  22.357  0.00  0.00    +0.000 A 
ATOM      3  C   UNL     1      27.315  25.100  22.435  0.00  0.00    +0.000 A 
ATOM      4  C   UNL     1      26.596  24.915  23.597  0.00  0.00    +0.000 A 
ATOM      5  C   UNL     1      27.175  24.359  24.737  0.00  0.00    +0.000 A 
ATOM      6  C   UNL     1      28.486  24.003  24.657  0.00  0.00    +0.000 A 
ATOM      7  C   UNL     1      29.205  24.188  23.492  0.00  0.00    +0.000 A 
ATOM      8  O   UNL     1      30.547  23.818  23.428  0.00  0.00    +0.000 OA
ATOM      9  C   UNL     1      29.117  23.419  25.833  0.00  0.00    +0.000 C 
ATOM     10  O   UNL     1      30.332  23.084  25.775  0.00  0.00    +0.000 OA
ATOM     11  C   UNL     1      28.307  23.248  27.033  0.00  0.00    +0.000 A 
ATOM     12  C   UNL     1      28.875  22.698  28.165  0.00  0.00    +0.000 A 
ATOM     13  C   UNL     1      30.306  22.306  28.086  0.00  0.00    +0.000 C 
ATOM     14  C   UNL     1      28.136  22.519  29.329  0.00  0.00    +0.000 A 
ATOM     15  C   UNL     1      26.807  22.885  29.392  0.00  0.00    +0.000 A 
ATOM     16  O   UNL     1      26.055  22.708  30.560  0.00  0.00    +0.000 OA
ATOM     17  C   UNL     1      26.257  23.433  28.253  0.00  0.00    +0.000 A 
ATOM     18  C   UNL     1      26.982  23.621  27.078  0.00  0.00    +0.000 A 
ATOM     19  C   UNL     1      26.316  24.212  25.908  0.00  0.00    +0.000 C 
ATOM     20  C   UNL     1      25.665  25.551  26.263  0.00  0.00    +0.000 C 
ATOM     21  O   UNL     1      25.249  23.360  25.564  0.00  0.00    +0.000 OA
ENDROOT
TORSDOF 0
ENDMDL
MODEL 3
REMARK VINA RESULT:      -6.6      2.192      4.469
REMARK  Name = 
REMARK  0 active torsions:
REMARK  status: ('A' for Active; 'I' for Inactive)
REMARK                            x       y       z     vdW  Elec       q    Type
REMARK                         _______ _______ _______ _____ _____    ______ ____
ROOT
ATOM      1  C   UNL     1      32.948  22.104  32.045  0.00  0.00    +0.000 C 
ATOM      2  C   UNL     1      31.679  22.305  31.288  0.00  0.00    +0.000 A 
ATOM      3  C   UNL     1      30.478  22.504  31.941  0.00  0.00    +0.000 A 
ATOM      4  C   UNL     1      29.309  22.690  31.234  0.00  0.00    +0.000 A 
ATOM      5  C   UNL     1      29.286  22.684  29.841  0.00  0.00    +0.000 A 
ATOM      6  C   UNL     1      30.471  22.488  29.201  0.00  0.00    +0.000 A 
ATOM      7  C   UNL     1      31.641  22.303  29.909  0.00  0.00    +0.000 A 
ATOM      8  O   UNL     1      32.846  22.103  29.238  0.00  0.00    +0.000 OA
ATOM      9  C   UNL     1      30.476  22.478  27.743  0.00  0.00    +0.000 C 
ATOM     10  O   UNL     1      31.565  22.297  27.135  0.00  0.00    +0.000 OA
ATOM     11  C   UNL     1      29.209  22.680  27.051  0.00  0.00    +0.000 A 
ATOM     12  C   UNL     1      29.180  22.675  25.670  0.00  0.00    +0.000 A 
ATOM     13  C   UNL     1      30.469  22.462  24.964  0.00  0.00    +0.000 C 
ATOM     14  C   UNL     1      27.992  22.864  24.973  0.00  0.00    +0.000 A 
ATOM     15  C   UNL     1      26.799  23.063  25.639  0.00  0.00    +0.000 A 
ATOM     16  O   UNL     1      25.599  23.253  24.945  0.00  0.00    +0.000 OA
ATOM     17  C   UNL     1      26.848  23.063  27.017  0.00  0.00    +0.000 A 
ATOM     18  C   UNL     1      28.028  22.875  27.733  0.00  0.00    +0.000 A 
ATOM     19  C   UNL     1      27.989  22.891  29.202  0.00  0.00    +0.000 C 
ATOM     20  C   UNL     1      26.965  21.887  29.737  0.00  0.00    +0.000 C 
ATOM     21  O   UNL     1      27.507  24.156  29.590  0.00  0.00    +0.000 OA
ENDROOT
TORSDOF 0
ENDMDL
MODEL 4
REMARK VINA RESULT:      -6.5      2.791      3.826
REMARK  Name = 
REMARK  0 active torsions:
REMARK  status: ('A' for Active; 'I' for Inactive)
REMARK                            x       y       z     vdW  Elec       q    Type
REMARK                         _______ _______ _______ _____ _____    ______ ____
ROOT
ATOM      1  C   UNL     1      25.350  24.203  27.945  0.00  0.00    +0.000 C 
ATOM      2  C   UNL     1      26.188  24.202  26.712  0.00  0.00    +0.000 A 
ATOM      3  C   UNL     1      26.977  23.119  26.381  0.00  0.00    +0.000 A 
ATOM      4  C   UNL     1      27.749  23.126  25.238  0.00  0.00    +0.000 A 
ATOM      5  C   UNL     1      27.769  24.219  24.374  0.00  0.00    +0.000 A 
ATOM      6  C   UNL     1      26.990  25.286  24.703  0.00  0.00    +0.000 A 
ATOM      7  C   UNL     1      26.217  25.277  25.848  0.00  0.00    +0.000 A 
ATOM      8  O   UNL     1      25.426  26.378  26.170  0.00  0.00    +0.000 OA
ATOM      9  C   UNL     1      26.991  26.442  23.817  0.00  0.00    +0.000 C 
ATOM     10  O   UNL     1      26.275  27.439  24.109  0.00  0.00    +0.000 OA
ATOM     11  C   UNL     1      27.827  26.393  22.624  0.00  0.00    +0.000 A 
ATOM     12  C   UNL     1      27.850  27.473  21.764  0.00  0.00    +0.000 A 
ATOM     13  C   UNL     1      27.003  28.641  22.116  0.00  0.00    +0.000 C 
ATOM     14  C   UNL     1      28.635  27.465  20.616  0.00  0.00    +0.000 A 
ATOM     15  C   UNL     1      29.418  26.373  20.297  0.00  0.00    +0.000 A 
ATOM     16  O   UNL     1      30.211  26.356  19.144  0.00  0.00    +0.000 OA
ATOM     17  C   UNL     1      29.382  25.305  21.167  0.00  0.00    +0.000 A 
ATOM     18  C   UNL     1      28.603  25.295  22.323  0.00  0.00    +0.000 A 
ATOM     19  C   UNL     1      28.624  24.113  23.195  0.00  0.00    +0.000 C 
ATOM     20  C   UNL     1      30.055  23.757  23.605  0.00  0.00    +0.000 C 
ATOM     21  O   UNL     1      28.176  23.022  22.426  0.00  0.00    +0.000 OA
ENDROOT
TORSDOF 0
ENDMDL
MODEL 5
REMARK VINA RESULT:      -6.5     33.056     34.165
REMARK  Name = 
REMARK  0 active torsions:
REMARK  status: ('A' for Active; 'I' for Inactive)
REMARK                            x       y       z     vdW  Elec       q    Type
REMARK                         _______ _______ _______ _____ _____    ______ ____
ROOT
ATOM      1  C   UNL     1      20.904 -14.086  27.023  0.00  0.00    +0.000 C 
ATOM      2  C   UNL     1      20.225 -12.764  27.141  0.00  0.00    +0.000 A 
ATOM      3  C   UNL     1      19.024 -12.631  27.810  0.00  0.00    +0.000 A 
ATOM      4  C   UNL     1      18.402 -11.405  27.915  0.00  0.00    +0.000 A 
ATOM      5  C   UNL     1      18.953 -10.253  27.355  0.00  0.00    +0.000 A 
ATOM      6  C   UNL     1      20.136 -10.387  26.697  0.00  0.00    +0.000 A 
ATOM      7  C   UNL     1      20.759 -11.616  26.593  0.00  0.00    +0.000 A 
ATOM      8  O   UNL     1      21.970 -11.735  25.915  0.00  0.00    +0.000 OA
ATOM      9  C   UNL     1      20.735  -9.200  26.103  0.00  0.00    +0.000 C 
ATOM     10  O   UNL     1      21.831  -9.307  25.489  0.00  0.00    +0.000 OA
ATOM     11  C   UNL     1      20.032  -7.931  26.246  0.00  0.00    +0.000 A 
ATOM     12  C   UNL     1      20.573  -6.787  25.694  0.00  0.00    +0.000 A 
ATOM     13  C   UNL     1      21.865  -6.924  24.974  0.00  0.00    +0.000 C 
ATOM     14  C   UNL     1      19.933  -5.558  25.809  0.00  0.00    +0.000 A 
ATOM     15  C   UNL     1      18.732  -5.440  26.481  0.00  0.00    +0.000 A 
ATOM     16  O   UNL     1      18.081  -4.207  26.601  0.00  0.00    +0.000 OA
ATOM     17  C   UNL     1      18.208  -6.593  27.025  0.00  0.00    +0.000 A 
ATOM     18  C   UNL     1      18.834  -7.833  26.919  0.00  0.00    +0.000 A 
ATOM     19  C   UNL     1      18.204  -9.012  27.531  0.00  0.00    +0.000 C 
ATOM     20  C   UNL     1      16.764  -9.183  27.041  0.00  0.00    +0.000 C 
ATOM     21  O   UNL     1      18.099  -8.756  28.911  0.00  0.00    +0.000 OA
ENDROOT
TORSDOF 0
ENDMDL
MODEL 6
REMARK VINA RESULT:      -6.5      1.796      5.512
REMARK  Name = 
REMARK  0 active torsions:
REMARK  status: ('A' for Active; 'I' for Inactive)
REMARK                            x       y       z     vdW  Elec       q    Type
REMARK                         _______ _______ _______ _____ _____    ______ ____
ROOT
ATOM      1  C   UNL     1      26.820  23.811  21.905  0.00  0.00    +0.000 C 
ATOM      2  C   UNL     1      27.580  23.609  23.171  0.00  0.00    +0.000 A 
ATOM      3  C   UNL     1      28.924  23.292  23.158  0.00  0.00    +0.000 A 
ATOM      4  C   UNL     1      29.621  23.107  24.334  0.00  0.00    +0.000 A 
ATOM      5  C   UNL     1      29.005  23.229  25.578  0.00  0.00    +0.000 A 
ATOM      6  C   UNL     1      27.680  23.542  25.587  0.00  0.00    +0.000 A 
ATOM      7  C   UNL     1      26.984  23.728  24.409  0.00  0.00    +0.000 A 
ATOM      8  O   UNL     1      25.628  24.047  24.437  0.00  0.00    +0.000 OA
ATOM      9  C   UNL     1      27.011  23.676  26.875  0.00  0.00    +0.000 C 
ATOM     10  O   UNL     1      25.783  23.965  26.900  0.00  0.00    +0.000 OA
ATOM     11  C   UNL     1      27.798  23.469  28.084  0.00  0.00    +0.000 A 
ATOM     12  C   UNL     1      27.193  23.589  29.319  0.00  0.00    +0.000 A 
ATOM     13  C   UNL     1      25.748  23.930  29.338  0.00  0.00    +0.000 C 
ATOM     14  C   UNL     1      27.910  23.399  30.495  0.00  0.00    +0.000 A 
ATOM     15  C   UNL     1      29.254  23.083  30.467  0.00  0.00    +0.000 A 
ATOM     16  O   UNL     1      29.983  22.889  31.646  0.00  0.00    +0.000 OA
ATOM     17  C   UNL     1      29.840  22.966  29.225  0.00  0.00    +0.000 A 
ATOM     18  C   UNL     1      29.138  23.153  28.036  0.00  0.00    +0.000 A 
ATOM     19  C   UNL     1      29.843  23.010  26.754  0.00  0.00    +0.000 C 
ATOM     20  C   UNL     1      30.549  21.655  26.661  0.00  0.00    +0.000 C 
ATOM     21  O   UNL     1      30.875  23.968  26.739  0.00  0.00    +0.000 OA
ENDROOT
TORSDOF 0
ENDMDL
MODEL 7
REMARK VINA RESULT:      -6.4      1.495      2.095
REMARK  Name = 
REMARK  0 active torsions:
REMARK  status: ('A' for Active; 'I' for Inactive)
REMARK                            x       y       z     vdW  Elec       q    Type
REMARK                         _______ _______ _______ _____ _____    ______ ____
ROOT
ATOM      1  C   UNL     1      31.582  23.329  30.624  0.00  0.00    +0.000 C 
ATOM      2  C   UNL     1      31.146  23.298  29.199  0.00  0.00    +0.000 A 
ATOM      3  C   UNL     1      32.054  23.125  28.174  0.00  0.00    +0.000 A 
ATOM      4  C   UNL     1      31.642  23.096  26.858  0.00  0.00    +0.000 A 
ATOM      5  C   UNL     1      30.302  23.241  26.506  0.00  0.00    +0.000 A 
ATOM      6  C   UNL     1      29.409  23.411  27.519  0.00  0.00    +0.000 A 
ATOM      7  C   UNL     1      29.822  23.439  28.837  0.00  0.00    +0.000 A 
ATOM      8  O   UNL     1      28.894  23.615  29.861  0.00  0.00    +0.000 OA
ATOM      9  C   UNL     1      28.000  23.564  27.180  0.00  0.00    +0.000 C 
ATOM     10  O   UNL     1      27.160  23.724  28.107  0.00  0.00    +0.000 OA
ATOM     11  C   UNL     1      27.624  23.526  25.773  0.00  0.00    +0.000 A 
ATOM     12  C   UNL     1      26.297  23.669  25.418  0.00  0.00    +0.000 A 
ATOM     13  C   UNL     1      25.316  23.855  26.518  0.00  0.00    +0.000 C 
ATOM     14  C   UNL     1      25.899  23.638  24.086  0.00  0.00    +0.000 A 
ATOM     15  C   UNL     1      26.818  23.464  23.072  0.00  0.00    +0.000 A 
ATOM     16  O   UNL     1      26.426  23.432  21.728  0.00  0.00    +0.000 OA
ATOM     17  C   UNL     1      28.138  23.324  23.445  0.00  0.00    +0.000 A 
ATOM     18  C   UNL     1      28.557  23.352  24.773  0.00  0.00    +0.000 A 
ATOM     19  C   UNL     1      29.985  23.194  25.082  0.00  0.00    +0.000 C 
ATOM     20  C   UNL     1      30.830  24.213  24.314  0.00  0.00    +0.000 C 
ATOM     21  O   UNL     1      30.379  21.937  24.587  0.00  0.00    +0.000 OA
ENDROOT
TORSDOF 0
ENDMDL
MODEL 8
REMARK VINA RESULT:      -6.3     14.336     17.024
REMARK  Name = 
REMARK  0 active torsions:
REMARK  status: ('A' for Active; 'I' for Inactive)
REMARK                            x       y       z     vdW  Elec       q    Type
REMARK                         _______ _______ _______ _____ _____    ______ ____
ROOT
ATOM      1  C   UNL     1       8.999  20.456  21.742  0.00  0.00    +0.000 C 
ATOM      2  C   UNL     1      10.305  21.162  21.603  0.00  0.00    +0.000 A 
ATOM      3  C   UNL     1      11.412  20.526  21.076  0.00  0.00    +0.000 A 
ATOM      4  C   UNL     1      12.617  21.186  20.950  0.00  0.00    +0.000 A 
ATOM      5  C   UNL     1      12.770  22.513  21.347  0.00  0.00    +0.000 A 
ATOM      6  C   UNL     1      11.677  23.136  21.866  0.00  0.00    +0.000 A 
ATOM      7  C   UNL     1      10.471  22.475  21.991  0.00  0.00    +0.000 A 
ATOM      8  O   UNL     1       9.363  23.129  22.525  0.00  0.00    +0.000 OA
ATOM      9  C   UNL     1      11.810  24.525  22.289  0.00  0.00    +0.000 C 
ATOM     10  O   UNL     1      10.806  25.116  22.773  0.00  0.00    +0.000 OA
ATOM     11  C   UNL     1      13.107  25.170  22.132  0.00  0.00    +0.000 A 
ATOM     12  C   UNL     1      13.265  26.484  22.524  0.00  0.00    +0.000 A 
ATOM     13  C   UNL     1      12.078  27.173  23.091  0.00  0.00    +0.000 C 
ATOM     14  C   UNL     1      14.487  27.135  22.391  0.00  0.00    +0.000 A 
ATOM     15  C   UNL     1      15.585  26.487  21.862  0.00  0.00    +0.000 A 
ATOM     16  O   UNL     1      16.819  27.134  21.724  0.00  0.00    +0.000 OA
ATOM     17  C   UNL     1      15.408  25.175  21.477  0.00  0.00    +0.000 A 
ATOM     18  C   UNL     1      14.192  24.506  21.603  0.00  0.00    +0.000 A 
ATOM     19  C   UNL     1      14.092  23.106  21.166  0.00  0.00    +0.000 C 
ATOM     20  C   UNL     1      15.161  22.242  21.838  0.00  0.00    +0.000 C 
ATOM     21  O   UNL     1      14.400  23.078  19.793  0.00  0.00    +0.000 OA
ENDROOT
TORSDOF 0
ENDMDL
MODEL 9
REMARK VINA RESULT:      -6.3     17.080     18.771
REMARK  Name = 
REMARK  0 active torsions:
REMARK  status: ('A' for Active; 'I' for Inactive)
REMARK                            x       y       z     vdW  Elec       q    Type
REMARK                         _______ _______ _______ _____ _____    ______ ____
ROOT
ATOM      1  C   UNL     1      27.204  13.514  39.139  0.00  0.00    +0.000 C 
ATOM      2  C   UNL     1      26.042  12.651  38.785  0.00  0.00    +0.000 A 
ATOM      3  C   UNL     1      26.213  11.329  38.423  0.00  0.00    +0.000 A 
ATOM      4  C   UNL     1      25.133  10.536  38.097  0.00  0.00    +0.000 A 
ATOM      5  C   UNL     1      23.830  11.030  38.116  0.00  0.00    +0.000 A 
ATOM      6  C   UNL     1      23.664  12.333  38.472  0.00  0.00    +0.000 A 
ATOM      7  C   UNL     1      24.747  13.125  38.800  0.00  0.00    +0.000 A 
ATOM      8  O   UNL     1      24.559  14.457  39.162  0.00  0.00    +0.000 OA
ATOM      9  C   UNL     1      22.312  12.875  38.501  0.00  0.00    +0.000 C 
ATOM     10  O   UNL     1      22.141  14.081  38.829  0.00  0.00    +0.000 OA
ATOM     11  C   UNL     1      21.209  11.990  38.147  0.00  0.00    +0.000 A 
ATOM     12  C   UNL     1      19.916  12.473  38.163  0.00  0.00    +0.000 A 
ATOM     13  C   UNL     1      19.726  13.894  38.552  0.00  0.00    +0.000 C 
ATOM     14  C   UNL     1      18.837  11.660  37.831  0.00  0.00    +0.000 A 
ATOM     15  C   UNL     1      19.024  10.341  37.472  0.00  0.00    +0.000 A 
ATOM     16  O   UNL     1      17.945   9.516  37.136  0.00  0.00    +0.000 OA
ATOM     17  C   UNL     1      20.322   9.876  37.460  0.00  0.00    +0.000 A 
ATOM     18  C   UNL     1      21.415  10.675  37.789  0.00  0.00    +0.000 A 
ATOM     19  C   UNL     1      22.766  10.098  37.751  0.00  0.00    +0.000 C 
ATOM     20  C   UNL     1      23.056   9.465  36.388  0.00  0.00    +0.000 C 
ATOM     21  O   UNL     1      22.787   9.030  38.668  0.00  0.00    +0.000 OA
ENDROOT
TORSDOF 0
ENDMDL
MODEL 10
REMARK VINA RESULT:      -6.3     13.947     18.110
REMARK  Name = 
REMARK  0 active torsions:
REMARK  status: ('A' for Active; 'I' for Inactive)
REMARK                            x       y       z     vdW  Elec       q    Type
REMARK                         _______ _______ _______ _____ _____    ______ ____
ROOT
ATOM      1  C   UNL     1      35.278  18.337   5.256  0.00  0.00    +0.000 C 
ATOM      2  C   UNL     1      34.251  18.978   6.126  0.00  0.00    +0.000 A 
ATOM      3  C   UNL     1      33.068  19.461   5.604  0.00  0.00    +0.000 A 
ATOM      4  C   UNL     1      32.123  20.053   6.416  0.00  0.00    +0.000 A 
ATOM      5  C   UNL     1      32.319  20.190   7.789  0.00  0.00    +0.000 A 
ATOM      6  C   UNL     1      33.487  19.713   8.301  0.00  0.00    +0.000 A 
ATOM      7  C   UNL     1      34.431  19.120   7.487  0.00  0.00    +0.000 A 
ATOM      8  O   UNL     1      35.622  18.637   8.027  0.00  0.00    +0.000 OA
ATOM      9  C   UNL     1      33.718  19.842   9.734  0.00  0.00    +0.000 C 
ATOM     10  O   UNL     1      34.795  19.406  10.223  0.00  0.00    +0.000 OA
ATOM     11  C   UNL     1      32.683  20.477  10.542  0.00  0.00    +0.000 A 
ATOM     12  C   UNL     1      32.872  20.615  11.902  0.00  0.00    +0.000 A 
ATOM     13  C   UNL     1      34.143  20.097  12.469  0.00  0.00    +0.000 C 
ATOM     14  C   UNL     1      31.909  21.215  12.707  0.00  0.00    +0.000 A 
ATOM     15  C   UNL     1      30.730  21.693  12.171  0.00  0.00    +0.000 A 
ATOM     16  O   UNL     1      29.756  22.298  12.973  0.00  0.00    +0.000 OA
ATOM     17  C   UNL     1      30.560  21.547  10.811  0.00  0.00    +0.000 A 
ATOM     18  C   UNL     1      31.513  20.949   9.988  0.00  0.00    +0.000 A 
ATOM     19  C   UNL     1      31.249  20.833   8.547  0.00  0.00    +0.000 C 
ATOM     20  C   UNL     1      30.909  22.195   7.938  0.00  0.00    +0.000 C 
ATOM     21  O   UNL     1      30.083  20.059   8.400  0.00  0.00    +0.000 OA
ENDROOT
TORSDOF 0
ENDMDL
