MODEL 1
REMARK VINA RESULT:      -6.5      0.000      0.000
REMARK  Name = 
REMARK  1 active torsions:
REMARK  status: ('A' for Active; 'I' for Inactive)
REMARK    1  A    between atoms: C_10  and  C_11
REMARK                            x       y       z     vdW  Elec       q    Type
REMARK                         _______ _______ _______ _____ _____    ______ ____
ROOT
ATOM      1  C   UNL     1      19.082  13.275  38.032  0.00  0.00    +0.000 C 
ATOM      2  C   UNL     1      19.068  11.772  38.112  0.00  0.00    +0.000 C 
ATOM      3  C   UNL     1      19.648  11.175  39.089  0.00  0.00    +0.000 C 
ATOM      4  C   UNL     1      19.680   9.717  39.243  0.00  0.00    +0.000 C 
ATOM      5  C   UNL     1      21.102   9.200  39.341  0.00  0.00    +0.000 C 
ATOM      6  C   UNL     1      18.939   9.345  40.538  0.00  0.00    +0.000 C 
ATOM      7  N   UNL     1      18.984   9.058  38.163  0.00  0.00    +0.000 NA
ATOM      8  C   UNL     1      18.411   9.627  37.199  0.00  0.00    +0.000 C 
ATOM      9  S   UNL     1      17.505   9.076  35.773  0.00  0.00    +0.000 S 
ATOM     10  C   UNL     1      17.197  10.747  35.158  0.00  0.00    +0.000 C 
ATOM     11  N   UNL     1      17.740  11.502  35.984  0.00  0.00    +0.000 NA
ATOM     12  N   UNL     1      18.392  11.029  37.069  0.00  0.00    +0.000 N 
ENDROOT
BRANCH  10  13
ATOM     13  C   UNL     1      16.446  11.066  33.923  0.00  0.00    +0.000 A 
ATOM     14  C   UNL     1      16.726  10.361  32.778  0.00  0.00    +0.000 A 
ATOM     15  C   UNL     1      16.074  10.595  31.584  0.00  0.00    +0.000 A 
ATOM     16  C   UNL     1      15.100  11.570  31.518  0.00  0.00    +0.000 A 
ATOM     17  N   UNL     1      14.399  11.842  30.292  0.00  0.00    +0.000 NA
ATOM     18  C   UNL     1      14.799  12.291  32.653  0.00  0.00    +0.000 A 
ATOM     19  C   UNL     1      15.476  12.032  33.847  0.00  0.00    +0.000 A 
ENDBRANCH  10  13
TORSDOF 1
ENDMDL
MODEL 2
REMARK VINA RESULT:      -6.3     20.731     22.422
REMARK  Name = 
REMARK  1 active torsions:
REMARK  status: ('A' for Active; 'I' for Inactive)
REMARK    1  A    between atoms: C_10  and  C_11
REMARK                            x       y       z     vdW  Elec       q    Type
REMARK                         _______ _______ _______ _____ _____    ______ ____
ROOT
ATOM      1  C   UNL     1      19.211  -4.986  26.383  0.00  0.00    +0.000 C 
ATOM      2  C   UNL     1      18.847  -6.431  26.170  0.00  0.00    +0.000 C 
ATOM      3  C   UNL     1      17.692  -6.862  26.525  0.00  0.00    +0.000 C 
ATOM      4  C   UNL     1      17.258  -8.252  26.353  0.00  0.00    +0.000 C 
ATOM      5  C   UNL     1      16.830  -8.868  27.671  0.00  0.00    +0.000 C 
ATOM      6  C   UNL     1      16.056  -8.275  25.395  0.00  0.00    +0.000 C 
ATOM      7  N   UNL     1      18.291  -9.055  25.742  0.00  0.00    +0.000 NA
ATOM      8  C   UNL     1      19.427  -8.649  25.388  0.00  0.00    +0.000 C 
ATOM      9  S   UNL     1      20.851  -9.398  24.633  0.00  0.00    +0.000 S 
ATOM     10  C   UNL     1      21.817  -7.872  24.626  0.00  0.00    +0.000 C 
ATOM     11  N   UNL     1      21.073  -7.014  25.136  0.00  0.00    +0.000 NA
ATOM     12  N   UNL     1      19.825  -7.310  25.562  0.00  0.00    +0.000 N 
ENDROOT
BRANCH  10  13
ATOM     13  C   UNL     1      23.197  -7.749  24.105  0.00  0.00    +0.000 A 
ATOM     14  C   UNL     1      23.781  -8.843  23.514  0.00  0.00    +0.000 A 
ATOM     15  C   UNL     1      25.062  -8.815  23.003  0.00  0.00    +0.000 A 
ATOM     16  C   UNL     1      25.802  -7.652  23.077  0.00  0.00    +0.000 A 
ATOM     17  N   UNL     1      27.140  -7.585  22.555  0.00  0.00    +0.000 NA
ATOM     18  C   UNL     1      25.239  -6.540  23.664  0.00  0.00    +0.000 A 
ATOM     19  C   UNL     1      23.940  -6.599  24.174  0.00  0.00    +0.000 A 
ENDBRANCH  10  13
TORSDOF 1
ENDMDL
MODEL 3
REMARK VINA RESULT:      -6.0     17.910     18.800
REMARK  Name = 
REMARK  1 active torsions:
REMARK  status: ('A' for Active; 'I' for Inactive)
REMARK    1  A    between atoms: C_10  and  C_11
REMARK                            x       y       z     vdW  Elec       q    Type
REMARK                         _______ _______ _______ _____ _____    ______ ____
ROOT
ATOM      1  C   UNL     1      33.337  21.529  29.666  0.00  0.00    +0.000 C 
ATOM      2  C   UNL     1      32.106  21.957  30.420  0.00  0.00    +0.000 C 
ATOM      3  C   UNL     1      32.111  21.970  31.703  0.00  0.00    +0.000 C 
ATOM      4  C   UNL     1      30.957  22.374  32.513  0.00  0.00    +0.000 C 
ATOM      5  C   UNL     1      30.550  21.281  33.483  0.00  0.00    +0.000 C 
ATOM      6  C   UNL     1      31.341  23.622  33.324  0.00  0.00    +0.000 C 
ATOM      7  N   UNL     1      29.836  22.746  31.684  0.00  0.00    +0.000 NA
ATOM      8  C   UNL     1      29.814  22.740  30.426  0.00  0.00    +0.000 C 
ATOM      9  S   UNL     1      28.604  23.138  29.187  0.00  0.00    +0.000 S 
ATOM     10  C   UNL     1      29.697  22.748  27.803  0.00  0.00    +0.000 C 
ATOM     11  N   UNL     1      30.768  22.390  28.325  0.00  0.00    +0.000 NA
ATOM     12  N   UNL     1      30.933  22.348  29.667  0.00  0.00    +0.000 N 
ENDROOT
BRANCH  10  13
ATOM     13  C   UNL     1      29.323  22.860  26.375  0.00  0.00    +0.000 A 
ATOM     14  C   UNL     1      28.005  23.072  26.051  0.00  0.00    +0.000 A 
ATOM     15  C   UNL     1      27.571  23.187  24.746  0.00  0.00    +0.000 A 
ATOM     16  C   UNL     1      28.480  23.089  23.713  0.00  0.00    +0.000 A 
ATOM     17  N   UNL     1      28.065  23.204  22.341  0.00  0.00    +0.000 NA
ATOM     18  C   UNL     1      29.808  22.877  24.010  0.00  0.00    +0.000 A 
ATOM     19  C   UNL     1      30.218  22.764  25.341  0.00  0.00    +0.000 A 
ENDBRANCH  10  13
TORSDOF 1
ENDMDL
MODEL 4
REMARK VINA RESULT:      -6.0     20.080     21.935
REMARK  Name = 
REMARK  1 active torsions:
REMARK  status: ('A' for Active; 'I' for Inactive)
REMARK    1  A    between atoms: C_10  and  C_11
REMARK                            x       y       z     vdW  Elec       q    Type
REMARK                         _______ _______ _______ _____ _____    ______ ____
ROOT
ATOM      1  C   UNL     1      34.102  -0.058  32.772  0.00  0.00    +0.000 C 
ATOM      2  C   UNL     1      34.096  -0.871  34.039  0.00  0.00    +0.000 C 
ATOM      3  C   UNL     1      34.293  -0.298  35.171  0.00  0.00    +0.000 C 
ATOM      4  C   UNL     1      34.302  -1.015  36.450  0.00  0.00    +0.000 C 
ATOM      5  C   UNL     1      35.602  -0.798  37.199  0.00  0.00    +0.000 C 
ATOM      6  C   UNL     1      33.149  -0.484  37.317  0.00  0.00    +0.000 C 
ATOM      7  N   UNL     1      34.064  -2.427  36.265  0.00  0.00    +0.000 NA
ATOM      8  C   UNL     1      33.869  -3.004  35.164  0.00  0.00    +0.000 C 
ATOM      9  S   UNL     1      33.559  -4.680  34.661  0.00  0.00    +0.000 S 
ATOM     10  C   UNL     1      33.457  -4.274  32.903  0.00  0.00    +0.000 C 
ATOM     11  N   UNL     1      33.643  -3.045  32.842  0.00  0.00    +0.000 NA
ATOM     12  N   UNL     1      33.865  -2.297  33.946  0.00  0.00    +0.000 N 
ENDROOT
BRANCH  10  13
ATOM     13  C   UNL     1      33.201  -5.254  31.824  0.00  0.00    +0.000 A 
ATOM     14  C   UNL     1      33.903  -5.142  30.648  0.00  0.00    +0.000 A 
ATOM     15  C   UNL     1      33.726  -6.012  29.592  0.00  0.00    +0.000 A 
ATOM     16  C   UNL     1      32.815  -7.042  29.701  0.00  0.00    +0.000 A 
ATOM     17  N   UNL     1      32.603  -7.969  28.623  0.00  0.00    +0.000 NA
ATOM     18  C   UNL     1      32.098  -7.179  30.871  0.00  0.00    +0.000 A 
ATOM     19  C   UNL     1      32.299  -6.281  31.923  0.00  0.00    +0.000 A 
ENDBRANCH  10  13
TORSDOF 1
ENDMDL
MODEL 5
REMARK VINA RESULT:      -5.8     17.866     18.740
REMARK  Name = 
REMARK  1 active torsions:
REMARK  status: ('A' for Active; 'I' for Inactive)
REMARK    1  A    between atoms: C_10  and  C_11
REMARK                            x       y       z     vdW  Elec       q    Type
REMARK                         _______ _______ _______ _____ _____    ______ ____
ROOT
ATOM      1  C   UNL     1      32.471  23.821  28.085  0.00  0.00    +0.000 C 
ATOM      2  C   UNL     1      31.401  23.392  29.054  0.00  0.00    +0.000 C 
ATOM      3  C   UNL     1      31.685  23.237  30.296  0.00  0.00    +0.000 C 
ATOM      4  C   UNL     1      30.704  22.823  31.304  0.00  0.00    +0.000 C 
ATOM      5  C   UNL     1      31.152  21.572  32.035  0.00  0.00    +0.000 C 
ATOM      6  C   UNL     1      30.552  23.956  32.333  0.00  0.00    +0.000 C 
ATOM      7  N   UNL     1      29.400  22.618  30.719  0.00  0.00    +0.000 NA
ATOM      8  C   UNL     1      29.106  22.766  29.505  0.00  0.00    +0.000 C 
ATOM      9  S   UNL     1      27.624  22.586  28.540  0.00  0.00    +0.000 S 
ATOM     10  C   UNL     1      28.420  23.053  26.987  0.00  0.00    +0.000 C 
ATOM     11  N   UNL     1      29.606  23.282  27.285  0.00  0.00    +0.000 NA
ATOM     12  N   UNL     1      30.063  23.163  28.552  0.00  0.00    +0.000 N 
ENDROOT
BRANCH  10  13
ATOM     13  C   UNL     1      27.735  23.125  25.677  0.00  0.00    +0.000 A 
ATOM     14  C   UNL     1      28.495  23.259  24.540  0.00  0.00    +0.000 A 
ATOM     15  C   UNL     1      27.938  23.335  23.280  0.00  0.00    +0.000 A 
ATOM     16  C   UNL     1      26.568  23.274  23.134  0.00  0.00    +0.000 A 
ATOM     17  N   UNL     1      25.951  23.349  21.837  0.00  0.00    +0.000 NA
ATOM     18  C   UNL     1      25.782  23.139  24.258  0.00  0.00    +0.000 A 
ATOM     19  C   UNL     1      26.375  23.066  25.521  0.00  0.00    +0.000 A 
ENDBRANCH  10  13
TORSDOF 1
ENDMDL
MODEL 6
REMARK VINA RESULT:      -5.8     21.677     23.196
REMARK  Name = 
REMARK  1 active torsions:
REMARK  status: ('A' for Active; 'I' for Inactive)
REMARK    1  A    between atoms: C_10  and  C_11
REMARK                            x       y       z     vdW  Elec       q    Type
REMARK                         _______ _______ _______ _____ _____    ______ ____
ROOT
ATOM      1  C   UNL     1      23.392 -11.760  24.351  0.00  0.00    +0.000 C 
ATOM      2  C   UNL     1      24.172 -10.534  23.956  0.00  0.00    +0.000 C 
ATOM      3  C   UNL     1      25.327 -10.656  23.411  0.00  0.00    +0.000 C 
ATOM      4  C   UNL     1      26.151  -9.515  22.996  0.00  0.00    +0.000 C 
ATOM      5  C   UNL     1      27.518  -9.551  23.650  0.00  0.00    +0.000 C 
ATOM      6  C   UNL     1      26.341  -9.578  21.472  0.00  0.00    +0.000 C 
ATOM      7  N   UNL     1      25.495  -8.261  23.281  0.00  0.00    +0.000 NA
ATOM      8  C   UNL     1      24.364  -8.124  23.813  0.00  0.00    +0.000 C 
ATOM      9  S   UNL     1      23.347  -6.739  24.265  0.00  0.00    +0.000 S 
ATOM     10  C   UNL     1      22.011  -7.763  24.921  0.00  0.00    +0.000 C 
ATOM     11  N   UNL     1      22.394  -8.937  24.764  0.00  0.00    +0.000 NA
ATOM     12  N   UNL     1      23.589  -9.232  24.205  0.00  0.00    +0.000 N 
ENDROOT
BRANCH  10  13
ATOM     13  C   UNL     1      20.755  -7.241  25.505  0.00  0.00    +0.000 A 
ATOM     14  C   UNL     1      19.809  -8.134  25.946  0.00  0.00    +0.000 A 
ATOM     15  C   UNL     1      18.611  -7.732  26.502  0.00  0.00    +0.000 A 
ATOM     16  C   UNL     1      18.335  -6.387  26.629  0.00  0.00    +0.000 A 
ATOM     17  N   UNL     1      17.099  -5.930  27.204  0.00  0.00    +0.000 NA
ATOM     18  C   UNL     1      19.268  -5.469  26.196  0.00  0.00    +0.000 A 
ATOM     19  C   UNL     1      20.471  -5.906  25.636  0.00  0.00    +0.000 A 
ENDBRANCH  10  13
TORSDOF 1
ENDMDL
MODEL 7
REMARK VINA RESULT:      -5.7     17.405     19.337
REMARK  Name = 
REMARK  1 active torsions:
REMARK  status: ('A' for Active; 'I' for Inactive)
REMARK    1  A    between atoms: C_10  and  C_11
REMARK                            x       y       z     vdW  Elec       q    Type
REMARK                         _______ _______ _______ _____ _____    ______ ____
ROOT
ATOM      1  C   UNL     1      33.958   0.265  32.562  0.00  0.00    +0.000 C 
ATOM      2  C   UNL     1      33.895  -0.310  33.952  0.00  0.00    +0.000 C 
ATOM      3  C   UNL     1      33.830  -1.581  34.120  0.00  0.00    +0.000 C 
ATOM      4  C   UNL     1      33.766  -2.220  35.438  0.00  0.00    +0.000 C 
ATOM      5  C   UNL     1      32.542  -3.108  35.565  0.00  0.00    +0.000 C 
ATOM      6  C   UNL     1      35.018  -3.094  35.619  0.00  0.00    +0.000 C 
ATOM      7  N   UNL     1      33.785  -1.243  36.500  0.00  0.00    +0.000 NA
ATOM      8  C   UNL     1      33.850   0.004  36.353  0.00  0.00    +0.000 C 
ATOM      9  S   UNL     1      33.889   1.399  37.453  0.00  0.00    +0.000 S 
ATOM     10  C   UNL     1      33.980   2.616  36.122  0.00  0.00    +0.000 C 
ATOM     11  N   UNL     1      33.975   1.950  35.071  0.00  0.00    +0.000 NA
ATOM     12  N   UNL     1      33.910   0.600  35.079  0.00  0.00    +0.000 N 
ENDROOT
BRANCH  10  13
ATOM     13  C   UNL     1      34.046   4.082  36.321  0.00  0.00    +0.000 A 
ATOM     14  C   UNL     1      34.423   4.876  35.266  0.00  0.00    +0.000 A 
ATOM     15  C   UNL     1      34.511   6.250  35.365  0.00  0.00    +0.000 A 
ATOM     16  C   UNL     1      34.211   6.868  36.561  0.00  0.00    +0.000 A 
ATOM     17  N   UNL     1      34.291   8.297  36.703  0.00  0.00    +0.000 NA
ATOM     18  C   UNL     1      33.829   6.095  37.636  0.00  0.00    +0.000 A 
ATOM     19  C   UNL     1      33.750   4.706  37.505  0.00  0.00    +0.000 A 
ENDBRANCH  10  13
TORSDOF 1
ENDMDL
MODEL 8
REMARK VINA RESULT:      -5.6      5.610      7.040
REMARK  Name = 
REMARK  1 active torsions:
REMARK  status: ('A' for Active; 'I' for Inactive)
REMARK    1  A    between atoms: C_10  and  C_11
REMARK                            x       y       z     vdW  Elec       q    Type
REMARK                         _______ _______ _______ _____ _____    ______ ____
ROOT
ATOM      1  C   UNL     1      23.864   8.131  39.988  0.00  0.00    +0.000 C 
ATOM      2  C   UNL     1      23.406   9.084  38.916  0.00  0.00    +0.000 C 
ATOM      3  C   UNL     1      24.265   9.643  38.143  0.00  0.00    +0.000 C 
ATOM      4  C   UNL     1      23.903  10.581  37.076  0.00  0.00    +0.000 C 
ATOM      5  C   UNL     1      24.616  11.910  37.239  0.00  0.00    +0.000 C 
ATOM      6  C   UNL     1      24.320   9.972  35.727  0.00  0.00    +0.000 C 
ATOM      7  N   UNL     1      22.476  10.786  37.015  0.00  0.00    +0.000 NA
ATOM      8  C   UNL     1      21.621  10.246  37.763  0.00  0.00    +0.000 C 
ATOM      9  S   UNL     1      19.851  10.317  37.905  0.00  0.00    +0.000 S 
ATOM     10  C   UNL     1      19.782   9.158  39.289  0.00  0.00    +0.000 C 
ATOM     11  N   UNL     1      20.966   8.845  39.510  0.00  0.00    +0.000 NA
ATOM     12  N   UNL     1      21.989   9.348  38.783  0.00  0.00    +0.000 N 
ENDROOT
BRANCH  10  13
ATOM     13  C   UNL     1      18.539   8.723  39.964  0.00  0.00    +0.000 A 
ATOM     14  C   UNL     1      17.537   9.641  40.161  0.00  0.00    +0.000 A 
ATOM     15  C   UNL     1      16.347   9.320  40.782  0.00  0.00    +0.000 A 
ATOM     16  C   UNL     1      16.136   8.032  41.228  0.00  0.00    +0.000 A 
ATOM     17  N   UNL     1      14.909   7.659  41.879  0.00  0.00    +0.000 NA
ATOM     18  C   UNL     1      17.125   7.090  41.042  0.00  0.00    +0.000 A 
ATOM     19  C   UNL     1      18.319   7.446  40.412  0.00  0.00    +0.000 A 
ENDBRANCH  10  13
TORSDOF 1
ENDMDL
MODEL 9
REMARK VINA RESULT:      -5.5     17.044     18.502
REMARK  Name = 
REMARK  1 active torsions:
REMARK  status: ('A' for Active; 'I' for Inactive)
REMARK    1  A    between atoms: C_10  and  C_11
REMARK                            x       y       z     vdW  Elec       q    Type
REMARK                         _______ _______ _______ _____ _____    ______ ____
ROOT
ATOM      1  C   UNL     1      36.545   5.752  38.662  0.00  0.00    +0.000 C 
ATOM      2  C   UNL     1      35.742   6.550  37.669  0.00  0.00    +0.000 C 
ATOM      3  C   UNL     1      35.763   7.833  37.709  0.00  0.00    +0.000 C 
ATOM      4  C   UNL     1      35.012   8.683  36.780  0.00  0.00    +0.000 C 
ATOM      5  C   UNL     1      34.088   9.633  37.519  0.00  0.00    +0.000 C 
ATOM      6  C   UNL     1      36.012   9.519  35.964  0.00  0.00    +0.000 C 
ATOM      7  N   UNL     1      34.260   7.895  35.833  0.00  0.00    +0.000 NA
ATOM      8  C   UNL     1      34.230   6.639  35.780  0.00  0.00    +0.000 C 
ATOM      9  S   UNL     1      33.414   5.444  34.747  0.00  0.00    +0.000 S 
ATOM     10  C   UNL     1      34.117   4.021  35.610  0.00  0.00    +0.000 C 
ATOM     11  N   UNL     1      34.831   4.505  36.507  0.00  0.00    +0.000 NA
ATOM     12  N   UNL     1      34.958   5.839  36.681  0.00  0.00    +0.000 N 
ENDROOT
BRANCH  10  13
ATOM     13  C   UNL     1      33.852   2.607  35.262  0.00  0.00    +0.000 A 
ATOM     14  C   UNL     1      33.523   2.296  33.965  0.00  0.00    +0.000 A 
ATOM     15  C   UNL     1      33.259   1.005  33.555  0.00  0.00    +0.000 A 
ATOM     16  C   UNL     1      33.324  -0.028  34.468  0.00  0.00    +0.000 A 
ATOM     17  N   UNL     1      33.056  -1.386  34.078  0.00  0.00    +0.000 NA
ATOM     18  C   UNL     1      33.653   0.256  35.776  0.00  0.00    +0.000 A 
ATOM     19  C   UNL     1      33.913   1.574  36.161  0.00  0.00    +0.000 A 
ENDBRANCH  10  13
TORSDOF 1
ENDMDL
MODEL 10
REMARK VINA RESULT:      -5.5     20.658     23.221
REMARK  Name = 
REMARK  1 active torsions:
REMARK  status: ('A' for Active; 'I' for Inactive)
REMARK    1  A    between atoms: C_10  and  C_11
REMARK                            x       y       z     vdW  Elec       q    Type
REMARK                         _______ _______ _______ _____ _____    ______ ____
ROOT
ATOM      1  C   UNL     1      34.149  -5.450  29.125  0.00  0.00    +0.000 C 
ATOM      2  C   UNL     1      33.294  -6.281  30.045  0.00  0.00    +0.000 C 
ATOM      3  C   UNL     1      32.783  -7.381  29.627  0.00  0.00    +0.000 C 
ATOM      4  C   UNL     1      31.940  -8.248  30.457  0.00  0.00    +0.000 C 
ATOM      5  C   UNL     1      30.590  -8.493  29.811  0.00  0.00    +0.000 C 
ATOM      6  C   UNL     1      32.648  -9.603  30.626  0.00  0.00    +0.000 C 
ATOM      7  N   UNL     1      31.767  -7.703  31.782  0.00  0.00    +0.000 NA
ATOM      8  C   UNL     1      32.260  -6.627  32.207  0.00  0.00    +0.000 C 
ATOM      9  S   UNL     1      32.211  -5.744  33.749  0.00  0.00    +0.000 S 
ATOM     10  C   UNL     1      33.256  -4.393  33.161  0.00  0.00    +0.000 C 
ATOM     11  N   UNL     1      33.529  -4.682  31.982  0.00  0.00    +0.000 NA
ATOM     12  N   UNL     1      33.067  -5.808  31.395  0.00  0.00    +0.000 N 
ENDROOT
BRANCH  10  13
ATOM     13  C   UNL     1      33.659  -3.223  33.974  0.00  0.00    +0.000 A 
ATOM     14  C   UNL     1      34.075  -3.427  35.267  0.00  0.00    +0.000 A 
ATOM     15  C   UNL     1      34.467  -2.393  36.093  0.00  0.00    +0.000 A 
ATOM     16  C   UNL     1      34.448  -1.097  35.620  0.00  0.00    +0.000 A 
ATOM     17  N   UNL     1      34.849   0.005  36.451  0.00  0.00    +0.000 NA
ATOM     18  C   UNL     1      34.035  -0.864  34.326  0.00  0.00    +0.000 A 
ATOM     19  C   UNL     1      33.643  -1.931  33.514  0.00  0.00    +0.000 A 
ENDBRANCH  10  13
TORSDOF 1
ENDMDL
