MODEL 1
REMARK VINA RESULT:      -8.2      0.000      0.000
REMARK  Name = 
REMARK  7 active torsions:
REMARK  status: ('A' for Active; 'I' for Inactive)
REMARK    1  A    between atoms: C_2  and  C_3
REMARK    2  A    between atoms: C_3  and  C_4
REMARK    3  A    between atoms: C_4  and  C_5
REMARK    4  A    between atoms: C_5  and  O_6
REMARK    5  A    between atoms: O_6  and  C_7
REMARK    6  A    between atoms: C_10  and  C_11
REMARK    7  A    between atoms: C_21  and  C_22
REMARK                            x       y       z     vdW  Elec       q    Type
REMARK                         _______ _______ _______ _____ _____    ______ ____
ROOT
ATOM      1  C   UNL     1      36.653   1.126  13.740  0.00  0.00    +0.000 C 
ATOM      2  O   UNL     1      37.901   0.591  13.046  0.00  0.00    +0.000 OA
ATOM      3  C   UNL     1      38.813  -0.176  13.583  0.00  0.00    +0.000 A 
ATOM      4  C   UNL     1      39.866  -0.672  12.809  0.00  0.00    +0.000 A 
ATOM      5  C   UNL     1      40.794  -1.471  13.429  0.00  0.00    +0.000 A 
ATOM      6  C   UNL     1      40.718  -1.793  14.767  0.00  0.00    +0.000 A 
ATOM      7  C   UNL     1      39.667  -1.286  15.501  0.00  0.00    +0.000 A 
ATOM      8  C   UNL     1      38.751  -0.492  14.867  0.00  0.00    +0.000 A 
ATOM      9  C   UNL     1      37.560   0.067  15.787  0.00  0.00    +0.000 C 
ATOM     10  C   UNL     1      37.178  -1.332  16.426  0.00  0.00    +0.000 C 
ATOM     11  C   UNL     1      36.554  -2.027  15.479  0.00  0.00    +0.000 C 
ATOM     12  N   UNL     1      36.449  -1.224  14.312  0.00  0.00    +0.000 NA
ATOM     13  N   UNL     1      36.381   0.021  14.798  0.00  0.00    +0.000 NA
ENDROOT
BRANCH  11  14
ATOM     14  C   UNL     1      36.002  -3.384  15.550  0.00  0.00    +0.000 A 
ATOM     15  C   UNL     1      34.836  -3.680  14.893  0.00  0.00    +0.000 A 
ATOM     16  C   UNL     1      34.227  -4.915  14.890  0.00  0.00    +0.000 A 
ATOM     17  C   UNL     1      34.845  -5.921  15.604  0.00  0.00    +0.000 A 
ATOM     18  C   UNL     1      34.238  -7.290  15.646  0.00  0.00    +0.000 C 
ATOM     19  C   UNL     1      36.018  -5.628  16.268  0.00  0.00    +0.000 A 
ATOM     20  C   UNL     1      36.613  -4.387  16.259  0.00  0.00    +0.000 A 
ENDBRANCH  11  14
BRANCH   1  24
ATOM     21  C   UNL     1      38.598   4.111  16.211  0.00  0.00    +0.000 A 
ATOM     22  C   UNL     1      37.397   3.567  16.572  0.00  0.00    +0.000 A 
ATOM     23  C   UNL     1      36.752   2.609  15.799  0.00  0.00    +0.000 A 
ATOM     24  C   UNL     1      37.351   2.221  14.660  0.00  0.00    +0.000 A 
ATOM     25  C   UNL     1      38.525   2.721  14.260  0.00  0.00    +0.000 A 
ATOM     26  C   UNL     1      39.164   3.680  15.041  0.00  0.00    +0.000 A 
BRANCH  21  27
ATOM     27  O   UNL     1      39.185   5.054  17.016  0.00  0.00    +0.000 OA
BRANCH  27  28
ATOM     28  C   UNL     1      38.941   4.995  18.402  0.00  0.00    +0.000 C 
BRANCH  28  29
ATOM     29  C   UNL     1      39.089   6.340  18.995  0.00  0.00    +0.000 C 
BRANCH  29  30
ATOM     30  C   UNL     1      40.146   6.559  19.969  0.00  0.00    +0.000 C 
BRANCH  30  32
ATOM     31  C   UNL     1      42.434   6.178  20.688  0.00  0.00    +0.000 C 
ATOM     32  C   UNL     1      41.546   6.509  19.506  0.00  0.00    +0.000 C 
ENDBRANCH  30  32
ENDBRANCH  29  30
ENDBRANCH  28  29
ENDBRANCH  27  28
ENDBRANCH  21  27
ENDBRANCH   1  24
TORSDOF 7
ENDMDL
MODEL 2
REMARK VINA RESULT:      -8.0      2.461      8.568
REMARK  Name = 
REMARK  7 active torsions:
REMARK  status: ('A' for Active; 'I' for Inactive)
REMARK    1  A    between atoms: C_2  and  C_3
REMARK    2  A    between atoms: C_3  and  C_4
REMARK    3  A    between atoms: C_4  and  C_5
REMARK    4  A    between atoms: C_5  and  O_6
REMARK    5  A    between atoms: O_6  and  C_7
REMARK    6  A    between atoms: C_10  and  C_11
REMARK    7  A    between atoms: C_21  and  C_22
REMARK                            x       y       z     vdW  Elec       q    Type
REMARK                         _______ _______ _______ _____ _____    ______ ____
ROOT
ATOM      1  C   UNL     1      39.776   2.948  13.953  0.00  0.00    +0.000 C 
ATOM      2  O   UNL     1      38.784   3.752  13.120  0.00  0.00    +0.000 OA
ATOM      3  C   UNL     1      37.576   4.098  13.483  0.00  0.00    +0.000 A 
ATOM      4  C   UNL     1      36.797   4.915  12.658  0.00  0.00    +0.000 A 
ATOM      5  C   UNL     1      35.536   5.244  13.091  0.00  0.00    +0.000 A 
ATOM      6  C   UNL     1      35.028   4.801  14.293  0.00  0.00    +0.000 A 
ATOM      7  C   UNL     1      35.823   3.996  15.082  0.00  0.00    +0.000 A 
ATOM      8  C   UNL     1      37.076   3.678  14.634  0.00  0.00    +0.000 A 
ATOM      9  C   UNL     1      37.940   2.733  15.601  0.00  0.00    +0.000 C 
ATOM     10  C   UNL     1      37.693   3.578  16.919  0.00  0.00    +0.000 C 
ATOM     11  C   UNL     1      38.428   4.682  16.808  0.00  0.00    +0.000 C 
ATOM     12  N   UNL     1      39.156   4.630  15.589  0.00  0.00    +0.000 NA
ATOM     13  N   UNL     1      39.350   3.319  15.400  0.00  0.00    +0.000 NA
ENDROOT
BRANCH  11  14
ATOM     14  C   UNL     1      38.555   5.798  17.751  0.00  0.00    +0.000 A 
ATOM     15  C   UNL     1      39.375   5.677  18.842  0.00  0.00    +0.000 A 
ATOM     16  C   UNL     1      39.571   6.656  19.790  0.00  0.00    +0.000 A 
ATOM     17  C   UNL     1      38.887   7.842  19.619  0.00  0.00    +0.000 A 
ATOM     18  C   UNL     1      39.051   8.951  20.612  0.00  0.00    +0.000 C 
ATOM     19  C   UNL     1      38.060   7.968  18.522  0.00  0.00    +0.000 A 
ATOM     20  C   UNL     1      37.877   6.978  17.583  0.00  0.00    +0.000 A 
ENDBRANCH  11  14
BRANCH   1  24
ATOM     21  C   UNL     1      37.927  -0.961  13.639  0.00  0.00    +0.000 A 
ATOM     22  C   UNL     1      37.627   0.037  12.755  0.00  0.00    +0.000 A 
ATOM     23  C   UNL     1      38.204   1.299  12.831  0.00  0.00    +0.000 A 
ATOM     24  C   UNL     1      39.087   1.520  13.821  0.00  0.00    +0.000 A 
ATOM     25  C   UNL     1      39.417   0.579  14.713  0.00  0.00    +0.000 A 
ATOM     26  C   UNL     1      38.833  -0.682  14.627  0.00  0.00    +0.000 A 
BRANCH  21  27
ATOM     27  O   UNL     1      37.322  -2.186  13.510  0.00  0.00    +0.000 OA
BRANCH  27  28
ATOM     28  C   UNL     1      36.954  -2.876  14.681  0.00  0.00    +0.000 C 
BRANCH  28  29
ATOM     29  C   UNL     1      35.626  -2.417  15.137  0.00  0.00    +0.000 C 
BRANCH  29  30
ATOM     30  C   UNL     1      35.557  -1.474  16.242  0.00  0.00    +0.000 C 
BRANCH  30  32
ATOM     31  C   UNL     1      35.075   0.709  17.189  0.00  0.00    +0.000 C 
ATOM     32  C   UNL     1      35.470  -0.035  15.930  0.00  0.00    +0.000 C 
ENDBRANCH  30  32
ENDBRANCH  29  30
ENDBRANCH  28  29
ENDBRANCH  27  28
ENDBRANCH  21  27
ENDBRANCH   1  24
TORSDOF 7
ENDMDL
MODEL 3
REMARK VINA RESULT:      -7.7      3.416      8.247
REMARK  Name = 
REMARK  7 active torsions:
REMARK  status: ('A' for Active; 'I' for Inactive)
REMARK    1  A    between atoms: C_2  and  C_3
REMARK    2  A    between atoms: C_3  and  C_4
REMARK    3  A    between atoms: C_4  and  C_5
REMARK    4  A    between atoms: C_5  and  O_6
REMARK    5  A    between atoms: O_6  and  C_7
REMARK    6  A    between atoms: C_10  and  C_11
REMARK    7  A    between atoms: C_21  and  C_22
REMARK                            x       y       z     vdW  Elec       q    Type
REMARK                         _______ _______ _______ _____ _____    ______ ____
ROOT
ATOM      1  C   UNL     1      35.024   2.015  15.953  0.00  0.00    +0.000 C 
ATOM      2  O   UNL     1      35.935   2.781  16.907  0.00  0.00    +0.000 OA
ATOM      3  C   UNL     1      37.047   3.390  16.589  0.00  0.00    +0.000 A 
ATOM      4  C   UNL     1      37.744   4.135  17.544  0.00  0.00    +0.000 A 
ATOM      5  C   UNL     1      38.907   4.750  17.151  0.00  0.00    +0.000 A 
ATOM      6  C   UNL     1      39.395   4.658  15.866  0.00  0.00    +0.000 A 
ATOM      7  C   UNL     1      38.682   3.915  14.948  0.00  0.00    +0.000 A 
ATOM      8  C   UNL     1      37.526   3.308  15.358  0.00  0.00    +0.000 A 
ATOM      9  C   UNL     1      36.755   2.456  14.238  0.00  0.00    +0.000 C 
ATOM     10  C   UNL     1      36.779   3.586  13.127  0.00  0.00    +0.000 C 
ATOM     11  C   UNL     1      35.891   4.506  13.500  0.00  0.00    +0.000 C 
ATOM     12  N   UNL     1      35.264   4.081  14.701  0.00  0.00    +0.000 NA
ATOM     13  N   UNL     1      35.288   2.745  14.608  0.00  0.00    +0.000 NA
ENDROOT
BRANCH  11  14
ATOM     14  C   UNL     1      35.530   5.757  12.826  0.00  0.00    +0.000 A 
ATOM     15  C   UNL     1      36.270   6.193  11.758  0.00  0.00    +0.000 A 
ATOM     16  C   UNL     1      36.023   7.349  11.050  0.00  0.00    +0.000 A 
ATOM     17  C   UNL     1      34.950   8.116  11.455  0.00  0.00    +0.000 A 
ATOM     18  C   UNL     1      34.624   9.387  10.732  0.00  0.00    +0.000 C 
ATOM     19  C   UNL     1      34.203   7.681  12.530  0.00  0.00    +0.000 A 
ATOM     20  C   UNL     1      34.463   6.522  13.225  0.00  0.00    +0.000 A 
ENDBRANCH  11  14
BRANCH   1  24
ATOM     21  C   UNL     1      37.516  -1.497  15.452  0.00  0.00    +0.000 A 
ATOM     22  C   UNL     1      36.853  -0.942  14.393  0.00  0.00    +0.000 A 
ATOM     23  C   UNL     1      36.049   0.183  14.525  0.00  0.00    +0.000 A 
ATOM     24  C   UNL     1      35.933   0.726  15.749  0.00  0.00    +0.000 A 
ATOM     25  C   UNL     1      36.559   0.223  16.820  0.00  0.00    +0.000 A 
ATOM     26  C   UNL     1      37.363  -0.904  16.677  0.00  0.00    +0.000 A 
BRANCH  21  27
ATOM     27  O   UNL     1      38.295  -2.609  15.257  0.00  0.00    +0.000 OA
BRANCH  27  28
ATOM     28  C   UNL     1      39.319  -2.547  14.292  0.00  0.00    +0.000 C 
BRANCH  28  29
ATOM     29  C   UNL     1      40.535  -1.958  14.889  0.00  0.00    +0.000 C 
BRANCH  29  30
ATOM     30  C   UNL     1      41.062  -0.726  14.323  0.00  0.00    +0.000 C 
BRANCH  30  32
ATOM     31  C   UNL     1      39.881   0.949  13.021  0.00  0.00    +0.000 C 
ATOM     32  C   UNL     1      40.241   0.496  14.421  0.00  0.00    +0.000 C 
ENDBRANCH  30  32
ENDBRANCH  29  30
ENDBRANCH  28  29
ENDBRANCH  27  28
ENDBRANCH  21  27
ENDBRANCH   1  24
TORSDOF 7
ENDMDL
MODEL 4
REMARK VINA RESULT:      -7.5      4.255      6.736
REMARK  Name = 
REMARK  7 active torsions:
REMARK  status: ('A' for Active; 'I' for Inactive)
REMARK    1  A    between atoms: C_2  and  C_3
REMARK    2  A    between atoms: C_3  and  C_4
REMARK    3  A    between atoms: C_4  and  C_5
REMARK    4  A    between atoms: C_5  and  O_6
REMARK    5  A    between atoms: O_6  and  C_7
REMARK    6  A    between atoms: C_10  and  C_11
REMARK    7  A    between atoms: C_21  and  C_22
REMARK                            x       y       z     vdW  Elec       q    Type
REMARK                         _______ _______ _______ _____ _____    ______ ____
ROOT
ATOM      1  C   UNL     1      39.519   4.029  14.920  0.00  0.00    +0.000 C 
ATOM      2  O   UNL     1      38.613   2.887  15.368  0.00  0.00    +0.000 OA
ATOM      3  C   UNL     1      37.308   2.863  15.291  0.00  0.00    +0.000 A 
ATOM      4  C   UNL     1      36.599   1.714  15.656  0.00  0.00    +0.000 A 
ATOM      5  C   UNL     1      35.230   1.749  15.555  0.00  0.00    +0.000 A 
ATOM      6  C   UNL     1      34.549   2.862  15.112  0.00  0.00    +0.000 A 
ATOM      7  C   UNL     1      35.279   3.978  14.761  0.00  0.00    +0.000 A 
ATOM      8  C   UNL     1      36.642   3.926  14.868  0.00  0.00    +0.000 A 
ATOM      9  C   UNL     1      37.424   5.263  14.449  0.00  0.00    +0.000 C 
ATOM     10  C   UNL     1      36.683   5.457  13.061  0.00  0.00    +0.000 C 
ATOM     11  C   UNL     1      37.167   4.529  12.238  0.00  0.00    +0.000 C 
ATOM     12  N   UNL     1      38.167   3.785  12.919  0.00  0.00    +0.000 NA
ATOM     13  N   UNL     1      38.679   4.671  13.782  0.00  0.00    +0.000 NA
ENDROOT
BRANCH  11  14
ATOM     14  C   UNL     1      36.814   4.272  10.838  0.00  0.00    +0.000 A 
ATOM     15  C   UNL     1      37.104   3.057  10.275  0.00  0.00    +0.000 A 
ATOM     16  C   UNL     1      36.820   2.705   8.974  0.00  0.00    +0.000 A 
ATOM     17  C   UNL     1      36.196   3.654   8.189  0.00  0.00    +0.000 A 
ATOM     18  C   UNL     1      35.858   3.340   6.764  0.00  0.00    +0.000 C 
ATOM     19  C   UNL     1      35.903   4.878   8.752  0.00  0.00    +0.000 A 
ATOM     20  C   UNL     1      36.194   5.212  10.055  0.00  0.00    +0.000 A 
ENDBRANCH  11  14
BRANCH   1  24
ATOM     21  C   UNL     1      38.682   6.854  18.101  0.00  0.00    +0.000 A 
ATOM     22  C   UNL     1      38.583   5.506  18.307  0.00  0.00    +0.000 A 
ATOM     23  C   UNL     1      38.846   4.578  17.306  0.00  0.00    +0.000 A 
ATOM     24  C   UNL     1      39.207   5.050  16.101  0.00  0.00    +0.000 A 
ATOM     25  C   UNL     1      39.318   6.359  15.844  0.00  0.00    +0.000 A 
ATOM     26  C   UNL     1      39.054   7.279  16.854  0.00  0.00    +0.000 A 
BRANCH  21  27
ATOM     27  O   UNL     1      38.408   7.719  19.131  0.00  0.00    +0.000 OA
BRANCH  27  28
ATOM     28  C   UNL     1      39.143   7.589  20.325  0.00  0.00    +0.000 C 
BRANCH  28  29
ATOM     29  C   UNL     1      40.580   7.799  20.056  0.00  0.00    +0.000 C 
BRANCH  29  30
ATOM     30  C   UNL     1      41.501   6.699  20.292  0.00  0.00    +0.000 C 
BRANCH  30  32
ATOM     31  C   UNL     1      42.426   6.564  18.051  0.00  0.00    +0.000 C 
ATOM     32  C   UNL     1      42.760   6.663  19.525  0.00  0.00    +0.000 C 
ENDBRANCH  30  32
ENDBRANCH  29  30
ENDBRANCH  28  29
ENDBRANCH  27  28
ENDBRANCH  21  27
ENDBRANCH   1  24
TORSDOF 7
ENDMDL
MODEL 5
REMARK VINA RESULT:      -7.5      3.262      8.475
REMARK  Name = 
REMARK  7 active torsions:
REMARK  status: ('A' for Active; 'I' for Inactive)
REMARK    1  A    between atoms: C_2  and  C_3
REMARK    2  A    between atoms: C_3  and  C_4
REMARK    3  A    between atoms: C_4  and  C_5
REMARK    4  A    between atoms: C_5  and  O_6
REMARK    5  A    between atoms: O_6  and  C_7
REMARK    6  A    between atoms: C_10  and  C_11
REMARK    7  A    between atoms: C_21  and  C_22
REMARK                            x       y       z     vdW  Elec       q    Type
REMARK                         _______ _______ _______ _____ _____    ______ ____
ROOT
ATOM      1  C   UNL     1      37.503   4.582  12.806  0.00  0.00    +0.000 C 
ATOM      2  O   UNL     1      36.172   4.066  13.343  0.00  0.00    +0.000 OA
ATOM      3  C   UNL     1      35.999   3.376  14.439  0.00  0.00    +0.000 A 
ATOM      4  C   UNL     1      34.712   3.039  14.867  0.00  0.00    +0.000 A 
ATOM      5  C   UNL     1      34.592   2.312  16.025  0.00  0.00    +0.000 A 
ATOM      6  C   UNL     1      35.685   1.914  16.765  0.00  0.00    +0.000 A 
ATOM      7  C   UNL     1      36.941   2.263  16.314  0.00  0.00    +0.000 A 
ATOM      8  C   UNL     1      37.041   2.987  15.158  0.00  0.00    +0.000 A 
ATOM      9  C   UNL     1      38.533   3.350  14.692  0.00  0.00    +0.000 C 
ATOM     10  C   UNL     1      39.010   3.912  16.095  0.00  0.00    +0.000 C 
ATOM     11  C   UNL     1      38.424   5.097  16.250  0.00  0.00    +0.000 C 
ATOM     12  N   UNL     1      37.656   5.388  15.091  0.00  0.00    +0.000 NA
ATOM     13  N   UNL     1      38.323   4.762  14.113  0.00  0.00    +0.000 NA
ENDROOT
BRANCH  11  14
ATOM     14  C   UNL     1      38.527   6.030  17.377  0.00  0.00    +0.000 A 
ATOM     15  C   UNL     1      39.271   5.689  18.477  0.00  0.00    +0.000 A 
ATOM     16  C   UNL     1      39.438   6.484  19.590  0.00  0.00    +0.000 A 
ATOM     17  C   UNL     1      38.805   7.710  19.586  0.00  0.00    +0.000 A 
ATOM     18  C   UNL     1      38.943   8.626  20.763  0.00  0.00    +0.000 C 
ATOM     19  C   UNL     1      38.056   8.057  18.481  0.00  0.00    +0.000 A 
ATOM     20  C   UNL     1      37.900   7.250  17.377  0.00  0.00    +0.000 A 
ENDBRANCH  11  14
BRANCH   1  24
ATOM     21  C   UNL     1      39.077   0.792  11.407  0.00  0.00    +0.000 A 
ATOM     22  C   UNL     1      39.910   1.798  11.813  0.00  0.00    +0.000 A 
ATOM     23  C   UNL     1      39.433   3.022  12.266  0.00  0.00    +0.000 A 
ATOM     24  C   UNL     1      38.100   3.199  12.295  0.00  0.00    +0.000 A 
ATOM     25  C   UNL     1      37.241   2.249  11.908  0.00  0.00    +0.000 A 
ATOM     26  C   UNL     1      37.729   1.026  11.457  0.00  0.00    +0.000 A 
BRANCH  21  27
ATOM     27  O   UNL     1      39.610  -0.394  10.969  0.00  0.00    +0.000 OA
BRANCH  27  28
ATOM     28  C   UNL     1      40.557  -1.042  11.785  0.00  0.00    +0.000 C 
BRANCH  28  29
ATOM     29  C   UNL     1      39.882  -1.658  12.945  0.00  0.00    +0.000 C 
BRANCH  29  30
ATOM     30  C   UNL     1      40.233  -1.201  14.279  0.00  0.00    +0.000 C 
BRANCH  30  32
ATOM     31  C   UNL     1      37.880  -0.764  14.686  0.00  0.00    +0.000 C 
ATOM     32  C   UNL     1      39.293  -0.308  14.984  0.00  0.00    +0.000 C 
ENDBRANCH  30  32
ENDBRANCH  29  30
ENDBRANCH  28  29
ENDBRANCH  27  28
ENDBRANCH  21  27
ENDBRANCH   1  24
TORSDOF 7
ENDMDL
MODEL 6
REMARK VINA RESULT:      -7.5      1.170      1.694
REMARK  Name = 
REMARK  7 active torsions:
REMARK  status: ('A' for Active; 'I' for Inactive)
REMARK    1  A    between atoms: C_2  and  C_3
REMARK    2  A    between atoms: C_3  and  C_4
REMARK    3  A    between atoms: C_4  and  C_5
REMARK    4  A    between atoms: C_5  and  O_6
REMARK    5  A    between atoms: O_6  and  C_7
REMARK    6  A    between atoms: C_10  and  C_11
REMARK    7  A    between atoms: C_21  and  C_22
REMARK                            x       y       z     vdW  Elec       q    Type
REMARK                         _______ _______ _______ _____ _____    ______ ____
ROOT
ATOM      1  C   UNL     1      35.533   1.719  14.868  0.00  0.00    +0.000 C 
ATOM      2  O   UNL     1      36.234   1.467  13.537  0.00  0.00    +0.000 OA
ATOM      3  C   UNL     1      37.303   0.737  13.355  0.00  0.00    +0.000 A 
ATOM      4  C   UNL     1      37.795   0.513  12.066  0.00  0.00    +0.000 A 
ATOM      5  C   UNL     1      38.922  -0.260  11.938  0.00  0.00    +0.000 A 
ATOM      6  C   UNL     1      39.568  -0.812  13.022  0.00  0.00    +0.000 A 
ATOM      7  C   UNL     1      39.056  -0.572  14.280  0.00  0.00    +0.000 A 
ATOM      8  C   UNL     1      37.932   0.202  14.389  0.00  0.00    +0.000 A 
ATOM      9  C   UNL     1      37.398   0.445  15.883  0.00  0.00    +0.000 C 
ATOM     10  C   UNL     1      37.431  -1.079  16.318  0.00  0.00    +0.000 C 
ATOM     11  C   UNL     1      36.411  -1.673  15.704  0.00  0.00    +0.000 C 
ATOM     12  N   UNL     1      35.694  -0.702  14.955  0.00  0.00    +0.000 NA
ATOM     13  N   UNL     1      35.875   0.425  15.656  0.00  0.00    +0.000 NA
ENDROOT
BRANCH  11  14
ATOM     14  C   UNL     1      35.999  -3.079  15.763  0.00  0.00    +0.000 A 
ATOM     15  C   UNL     1      34.826  -3.470  15.170  0.00  0.00    +0.000 A 
ATOM     16  C   UNL     1      34.341  -4.759  15.163  0.00  0.00    +0.000 A 
ATOM     17  C   UNL     1      35.100  -5.719  15.801  0.00  0.00    +0.000 A 
ATOM     18  C   UNL     1      34.633  -7.142  15.833  0.00  0.00    +0.000 C 
ATOM     19  C   UNL     1      36.280  -5.330  16.399  0.00  0.00    +0.000 A 
ATOM     20  C   UNL     1      36.750  -4.036  16.396  0.00  0.00    +0.000 A 
ENDBRANCH  11  14
BRANCH   1  24
ATOM     21  C   UNL     1      38.446   4.454  16.551  0.00  0.00    +0.000 A 
ATOM     22  C   UNL     1      37.632   3.704  17.354  0.00  0.00    +0.000 A 
ATOM     23  C   UNL     1      36.690   2.820  16.842  0.00  0.00    +0.000 A 
ATOM     24  C   UNL     1      36.595   2.718  15.505  0.00  0.00    +0.000 A 
ATOM     25  C   UNL     1      37.367   3.428  14.673  0.00  0.00    +0.000 A 
ATOM     26  C   UNL     1      38.307   4.310  15.196  0.00  0.00    +0.000 A 
BRANCH  21  27
ATOM     27  O   UNL     1      39.356   5.310  17.118  0.00  0.00    +0.000 OA
BRANCH  27  28
ATOM     28  C   UNL     1      39.390   5.415  18.522  0.00  0.00    +0.000 C 
BRANCH  28  29
ATOM     29  C   UNL     1      38.842   6.722  18.940  0.00  0.00    +0.000 C 
BRANCH  29  30
ATOM     30  C   UNL     1      39.300   7.301  20.193  0.00  0.00    +0.000 C 
BRANCH  30  32
ATOM     31  C   UNL     1      37.362   8.736  19.908  0.00  0.00    +0.000 C 
ATOM     32  C   UNL     1      38.660   8.544  20.664  0.00  0.00    +0.000 C 
ENDBRANCH  30  32
ENDBRANCH  29  30
ENDBRANCH  28  29
ENDBRANCH  27  28
ENDBRANCH  21  27
ENDBRANCH   1  24
TORSDOF 7
ENDMDL
MODEL 7
REMARK VINA RESULT:      -7.3      3.902     10.267
REMARK  Name = 
REMARK  7 active torsions:
REMARK  status: ('A' for Active; 'I' for Inactive)
REMARK    1  A    between atoms: C_2  and  C_3
REMARK    2  A    between atoms: C_3  and  C_4
REMARK    3  A    between atoms: C_4  and  C_5
REMARK    4  A    between atoms: C_5  and  O_6
REMARK    5  A    between atoms: O_6  and  C_7
REMARK    6  A    between atoms: C_10  and  C_11
REMARK    7  A    between atoms: C_21  and  C_22
REMARK                            x       y       z     vdW  Elec       q    Type
REMARK                         _______ _______ _______ _____ _____    ______ ____
ROOT
ATOM      1  C   UNL     1      40.020   6.234  15.526  0.00  0.00    +0.000 C 
ATOM      2  O   UNL     1      39.335   7.592  15.637  0.00  0.00    +0.000 OA
ATOM      3  C   UNL     1      38.692   8.048  16.680  0.00  0.00    +0.000 A 
ATOM      4  C   UNL     1      38.184   9.350  16.685  0.00  0.00    +0.000 A 
ATOM      5  C   UNL     1      37.516   9.772  17.808  0.00  0.00    +0.000 A 
ATOM      6  C   UNL     1      37.337   8.964  18.909  0.00  0.00    +0.000 A 
ATOM      7  C   UNL     1      37.851   7.684  18.872  0.00  0.00    +0.000 A 
ATOM      8  C   UNL     1      38.513   7.281  17.744  0.00  0.00    +0.000 A 
ATOM      9  C   UNL     1      39.077   5.778  17.770  0.00  0.00    +0.000 C 
ATOM     10  C   UNL     1      39.787   5.894  19.181  0.00  0.00    +0.000 C 
ATOM     11  C   UNL     1      40.873   6.643  19.002  0.00  0.00    +0.000 C 
ATOM     12  N   UNL     1      40.972   6.989  17.628  0.00  0.00    +0.000 NA
ATOM     13  N   UNL     1      40.402   5.950  17.004  0.00  0.00    +0.000 NA
ENDROOT
BRANCH  11  14
ATOM     14  C   UNL     1      41.875   7.057  19.989  0.00  0.00    +0.000 A 
ATOM     15  C   UNL     1      42.468   6.118  20.793  0.00  0.00    +0.000 A 
ATOM     16  C   UNL     1      43.418   6.391  21.751  0.00  0.00    +0.000 A 
ATOM     17  C   UNL     1      43.794   7.710  21.905  0.00  0.00    +0.000 A 
ATOM     18  C   UNL     1      44.822   8.081  22.930  0.00  0.00    +0.000 C 
ATOM     19  C   UNL     1      43.199   8.658  21.099  0.00  0.00    +0.000 A 
ATOM     20  C   UNL     1      42.251   8.367  20.145  0.00  0.00    +0.000 A 
ENDBRANCH  11  14
BRANCH   1  24
ATOM     21  C   UNL     1      36.447   3.806  15.156  0.00  0.00    +0.000 A 
ATOM     22  C   UNL     1      37.587   3.307  15.722  0.00  0.00    +0.000 A 
ATOM     23  C   UNL     1      38.746   4.062  15.853  0.00  0.00    +0.000 A 
ATOM     24  C   UNL     1      38.719   5.327  15.399  0.00  0.00    +0.000 A 
ATOM     25  C   UNL     1      37.631   5.865  14.836  0.00  0.00    +0.000 A 
ATOM     26  C   UNL     1      36.475   5.100  14.710  0.00  0.00    +0.000 A 
BRANCH  21  27
ATOM     27  O   UNL     1      35.335   3.009  15.055  0.00  0.00    +0.000 OA
BRANCH  27  28
ATOM     28  C   UNL     1      35.454   1.648  15.398  0.00  0.00    +0.000 C 
BRANCH  28  29
ATOM     29  C   UNL     1      34.781   1.396  16.689  0.00  0.00    +0.000 C 
BRANCH  29  30
ATOM     30  C   UNL     1      35.482   0.623  17.701  0.00  0.00    +0.000 C 
BRANCH  30  32
ATOM     31  C   UNL     1      34.190  -1.408  17.386  0.00  0.00    +0.000 C 
ATOM     32  C   UNL     1      35.586  -0.837  17.519  0.00  0.00    +0.000 C 
ENDBRANCH  30  32
ENDBRANCH  29  30
ENDBRANCH  28  29
ENDBRANCH  27  28
ENDBRANCH  21  27
ENDBRANCH   1  24
TORSDOF 7
ENDMDL
MODEL 8
REMARK VINA RESULT:      -7.2      3.530      8.983
REMARK  Name = 
REMARK  7 active torsions:
REMARK  status: ('A' for Active; 'I' for Inactive)
REMARK    1  A    between atoms: C_2  and  C_3
REMARK    2  A    between atoms: C_3  and  C_4
REMARK    3  A    between atoms: C_4  and  C_5
REMARK    4  A    between atoms: C_5  and  O_6
REMARK    5  A    between atoms: O_6  and  C_7
REMARK    6  A    between atoms: C_10  and  C_11
REMARK    7  A    between atoms: C_21  and  C_22
REMARK                            x       y       z     vdW  Elec       q    Type
REMARK                         _______ _______ _______ _____ _____    ______ ____
ROOT
ATOM      1  C   UNL     1      35.131   2.260  15.843  0.00  0.00    +0.000 C 
ATOM      2  O   UNL     1      36.062   2.911  16.861  0.00  0.00    +0.000 OA
ATOM      3  C   UNL     1      37.160   3.569  16.592  0.00  0.00    +0.000 A 
ATOM      4  C   UNL     1      37.877   4.196  17.614  0.00  0.00    +0.000 A 
ATOM      5  C   UNL     1      39.023   4.870  17.270  0.00  0.00    +0.000 A 
ATOM      6  C   UNL     1      39.475   4.946  15.971  0.00  0.00    +0.000 A 
ATOM      7  C   UNL     1      38.743   4.316  14.986  0.00  0.00    +0.000 A 
ATOM      8  C   UNL     1      37.604   3.648  15.347  0.00  0.00    +0.000 A 
ATOM      9  C   UNL     1      36.809   2.934  14.150  0.00  0.00    +0.000 C 
ATOM     10  C   UNL     1      36.791   4.195  13.191  0.00  0.00    +0.000 C 
ATOM     11  C   UNL     1      35.907   5.050  13.700  0.00  0.00    +0.000 C 
ATOM     12  N   UNL     1      35.318   4.470  14.855  0.00  0.00    +0.000 NA
ATOM     13  N   UNL     1      35.351   3.157  14.594  0.00  0.00    +0.000 NA
ENDROOT
BRANCH  11  14
ATOM     14  C   UNL     1      35.515   6.371  13.199  0.00  0.00    +0.000 A 
ATOM     15  C   UNL     1      36.249   7.476  13.546  0.00  0.00    +0.000 A 
ATOM     16  C   UNL     1      35.976   8.762  13.135  0.00  0.00    +0.000 A 
ATOM     17  C   UNL     1      34.881   8.940  12.315  0.00  0.00    +0.000 A 
ATOM     18  C   UNL     1      34.524  10.311  11.831  0.00  0.00    +0.000 C 
ATOM     19  C   UNL     1      34.139   7.831  11.964  0.00  0.00    +0.000 A 
ATOM     20  C   UNL     1      34.428   6.552  12.383  0.00  0.00    +0.000 A 
ENDBRANCH  11  14
BRANCH   1  24
ATOM     21  C   UNL     1      37.641  -1.128  14.835  0.00  0.00    +0.000 A 
ATOM     22  C   UNL     1      36.883  -0.502  13.885  0.00  0.00    +0.000 A 
ATOM     23  C   UNL     1      36.070   0.586  14.181  0.00  0.00    +0.000 A 
ATOM     24  C   UNL     1      36.046   1.018  15.453  0.00  0.00    +0.000 A 
ATOM     25  C   UNL     1      36.767   0.441  16.422  0.00  0.00    +0.000 A 
ATOM     26  C   UNL     1      37.579  -0.647  16.115  0.00  0.00    +0.000 A 
BRANCH  21  27
ATOM     27  O   UNL     1      38.423  -2.198  14.480  0.00  0.00    +0.000 OA
BRANCH  27  28
ATOM     28  C   UNL     1      38.187  -3.437  15.107  0.00  0.00    +0.000 C 
BRANCH  28  29
ATOM     29  C   UNL     1      36.934  -4.028  14.592  0.00  0.00    +0.000 C 
BRANCH  29  30
ATOM     30  C   UNL     1      35.827  -4.226  15.514  0.00  0.00    +0.000 C 
BRANCH  30  32
ATOM     31  C   UNL     1      34.550  -2.525  16.685  0.00  0.00    +0.000 C 
ATOM     32  C   UNL     1      34.659  -3.332  15.407  0.00  0.00    +0.000 C 
ENDBRANCH  30  32
ENDBRANCH  29  30
ENDBRANCH  28  29
ENDBRANCH  27  28
ENDBRANCH  21  27
ENDBRANCH   1  24
TORSDOF 7
ENDMDL
MODEL 9
REMARK VINA RESULT:      -7.2     26.784     29.518
REMARK  Name = 
REMARK  7 active torsions:
REMARK  status: ('A' for Active; 'I' for Inactive)
REMARK    1  A    between atoms: C_2  and  C_3
REMARK    2  A    between atoms: C_3  and  C_4
REMARK    3  A    between atoms: C_4  and  C_5
REMARK    4  A    between atoms: C_5  and  O_6
REMARK    5  A    between atoms: O_6  and  C_7
REMARK    6  A    between atoms: C_10  and  C_11
REMARK    7  A    between atoms: C_21  and  C_22
REMARK                            x       y       z     vdW  Elec       q    Type
REMARK                         _______ _______ _______ _____ _____    ______ ____
ROOT
ATOM      1  C   UNL     1      26.899  16.966  39.109  0.00  0.00    +0.000 C 
ATOM      2  O   UNL     1      28.278  17.143  38.482  0.00  0.00    +0.000 OA
ATOM      3  C   UNL     1      28.697  16.594  37.372  0.00  0.00    +0.000 A 
ATOM      4  C   UNL     1      29.958  16.910  36.858  0.00  0.00    +0.000 A 
ATOM      5  C   UNL     1      30.343  16.301  35.690  0.00  0.00    +0.000 A 
ATOM      6  C   UNL     1      29.537  15.406  35.021  0.00  0.00    +0.000 A 
ATOM      7  C   UNL     1      28.298  15.117  35.555  0.00  0.00    +0.000 A 
ATOM      8  C   UNL     1      27.931  15.733  36.721  0.00  0.00    +0.000 A 
ATOM      9  C   UNL     1      26.481  15.342  37.286  0.00  0.00    +0.000 C 
ATOM     10  C   UNL     1      25.708  15.568  35.921  0.00  0.00    +0.000 C 
ATOM     11  C   UNL     1      25.637  16.884  35.735  0.00  0.00    +0.000 C 
ATOM     12  N   UNL     1      26.238  17.538  36.844  0.00  0.00    +0.000 NA
ATOM     13  N   UNL     1      26.017  16.694  37.859  0.00  0.00    +0.000 NA
ENDROOT
BRANCH  11  14
ATOM     14  C   UNL     1      25.028  17.622  34.624  0.00  0.00    +0.000 A 
ATOM     15  C   UNL     1      24.638  18.923  34.803  0.00  0.00    +0.000 A 
ATOM     16  C   UNL     1      24.057  19.710  33.834  0.00  0.00    +0.000 A 
ATOM     17  C   UNL     1      23.860  19.137  32.595  0.00  0.00    +0.000 A 
ATOM     18  C   UNL     1      23.233  19.934  31.493  0.00  0.00    +0.000 C 
ATOM     19  C   UNL     1      24.251  17.827  32.410  0.00  0.00    +0.000 A 
ATOM     20  C   UNL     1      24.831  17.055  33.391  0.00  0.00    +0.000 A 
ENDBRANCH  11  14
BRANCH   1  24
ATOM     21  C   UNL     1      27.328  12.908  40.573  0.00  0.00    +0.000 A 
ATOM     22  C   UNL     1      28.409  13.738  40.460  0.00  0.00    +0.000 A 
ATOM     23  C   UNL     1      28.301  15.042  39.994  0.00  0.00    +0.000 A 
ATOM     24  C   UNL     1      27.077  15.480  39.648  0.00  0.00    +0.000 A 
ATOM     25  C   UNL     1      25.987  14.710  39.739  0.00  0.00    +0.000 A 
ATOM     26  C   UNL     1      26.106  13.405  40.208  0.00  0.00    +0.000 A 
BRANCH  21  27
ATOM     27  O   UNL     1      27.501  11.629  41.040  0.00  0.00    +0.000 OA
BRANCH  27  28
ATOM     28  C   UNL     1      28.623  10.902  40.598  0.00  0.00    +0.000 C 
BRANCH  28  29
ATOM     29  C   UNL     1      28.405   9.458  40.820  0.00  0.00    +0.000 C 
BRANCH  29  30
ATOM     30  C   UNL     1      27.089   9.011  41.249  0.00  0.00    +0.000 C 
BRANCH  30  32
ATOM     31  C   UNL     1      28.358   7.608  42.771  0.00  0.00    +0.000 C 
ATOM     32  C   UNL     1      27.004   7.830  42.130  0.00  0.00    +0.000 C 
ENDBRANCH  30  32
ENDBRANCH  29  30
ENDBRANCH  28  29
ENDBRANCH  27  28
ENDBRANCH  21  27
ENDBRANCH   1  24
TORSDOF 7
ENDMDL
MODEL 10
REMARK VINA RESULT:      -7.2      2.665      4.814
REMARK  Name = 
REMARK  7 active torsions:
REMARK  status: ('A' for Active; 'I' for Inactive)
REMARK    1  A    between atoms: C_2  and  C_3
REMARK    2  A    between atoms: C_3  and  C_4
REMARK    3  A    between atoms: C_4  and  C_5
REMARK    4  A    between atoms: C_5  and  O_6
REMARK    5  A    between atoms: O_6  and  C_7
REMARK    6  A    between atoms: C_10  and  C_11
REMARK    7  A    between atoms: C_21  and  C_22
REMARK                            x       y       z     vdW  Elec       q    Type
REMARK                         _______ _______ _______ _____ _____    ______ ____
ROOT
ATOM      1  C   UNL     1      39.170  -2.842  15.469  0.00  0.00    +0.000 C 
ATOM      2  O   UNL     1      38.730  -2.218  16.790  0.00  0.00    +0.000 OA
ATOM      3  C   UNL     1      37.516  -1.847  17.101  0.00  0.00    +0.000 A 
ATOM      4  C   UNL     1      37.229  -1.369  18.383  0.00  0.00    +0.000 A 
ATOM      5  C   UNL     1      35.935  -0.993  18.650  0.00  0.00    +0.000 A 
ATOM      6  C   UNL     1      34.932  -1.074  17.709  0.00  0.00    +0.000 A 
ATOM      7  C   UNL     1      35.250  -1.550  16.454  0.00  0.00    +0.000 A 
ATOM      8  C   UNL     1      36.544  -1.920  16.205  0.00  0.00    +0.000 A 
ATOM      9  C   UNL     1      36.840  -2.457  14.722  0.00  0.00    +0.000 C 
ATOM     10  C   UNL     1      35.635  -3.485  14.677  0.00  0.00    +0.000 C 
ATOM     11  C   UNL     1      35.974  -4.504  15.463  0.00  0.00    +0.000 C 
ATOM     12  N   UNL     1      37.278  -4.276  15.977  0.00  0.00    +0.000 NA
ATOM     13  N   UNL     1      37.871  -3.563  15.012  0.00  0.00    +0.000 NA
ENDROOT
BRANCH  11  14
ATOM     14  C   UNL     1      35.209  -5.717  15.771  0.00  0.00    +0.000 A 
ATOM     15  C   UNL     1      35.764  -6.690  16.561  0.00  0.00    +0.000 A 
ATOM     16  C   UNL     1      35.141  -7.865  16.916  0.00  0.00    +0.000 A 
ATOM     17  C   UNL     1      33.864  -8.069  16.435  0.00  0.00    +0.000 A 
ATOM     18  C   UNL     1      33.126  -9.326  16.780  0.00  0.00    +0.000 C 
ATOM     19  C   UNL     1      33.301  -7.093  15.639  0.00  0.00    +0.000 A 
ATOM     20  C   UNL     1      33.939  -5.922  15.296  0.00  0.00    +0.000 A 
ENDBRANCH  11  14
BRANCH   1  24
ATOM     21  C   UNL     1      38.955   0.677  12.946  0.00  0.00    +0.000 A 
ATOM     22  C   UNL     1      39.247   0.777  14.278  0.00  0.00    +0.000 A 
ATOM     23  C   UNL     1      39.322  -0.333  15.110  0.00  0.00    +0.000 A 
ATOM     24  C   UNL     1      39.095  -1.539  14.560  0.00  0.00    +0.000 A 
ATOM     25  C   UNL     1      38.805  -1.694  13.263  0.00  0.00    +0.000 A 
ATOM     26  C   UNL     1      38.733  -0.575  12.438  0.00  0.00    +0.000 A 
BRANCH  21  27
ATOM     27  O   UNL     1      38.895   1.812  12.178  0.00  0.00    +0.000 OA
BRANCH  27  28
ATOM     28  C   UNL     1      37.636   2.238  11.712  0.00  0.00    +0.000 C 
BRANCH  28  29
ATOM     29  C   UNL     1      37.241   3.482  12.403  0.00  0.00    +0.000 C 
BRANCH  29  30
ATOM     30  C   UNL     1      38.231   4.175  13.212  0.00  0.00    +0.000 C 
BRANCH  30  32
ATOM     31  C   UNL     1      39.338   4.592  15.332  0.00  0.00    +0.000 C 
ATOM     32  C   UNL     1      38.021   4.241  14.670  0.00  0.00    +0.000 C 
ENDBRANCH  30  32
ENDBRANCH  29  30
ENDBRANCH  28  29
ENDBRANCH  27  28
ENDBRANCH  21  27
ENDBRANCH   1  24
TORSDOF 7
ENDMDL
