MODEL 1
REMARK VINA RESULT:      -7.3      0.000      0.000
REMARK  Name = 
REMARK  0 active torsions:
REMARK  status: ('A' for Active; 'I' for Inactive)
REMARK                            x       y       z     vdW  Elec       q    Type
REMARK                         _______ _______ _______ _____ _____    ______ ____
ROOT
ATOM      1  N   UNL     1      19.402   8.307  41.339  0.00  0.00    +0.000 NA
ATOM      2  C   UNL     1      19.237   8.959  40.094  0.00  0.00    +0.000 A 
ATOM      3  N   UNL     1      20.240   9.150  39.234  0.00  0.00    +0.000 NA
ATOM      4  C   UNL     1      20.094   9.763  38.057  0.00  0.00    +0.000 A 
ATOM      5  S   UNL     1      21.385   9.947  37.075  0.00  0.00    +0.000 S 
ATOM      6  N   UNL     1      18.870  10.209  37.734  0.00  0.00    +0.000 NA
ATOM      7  C   UNL     1      17.826  10.032  38.585  0.00  0.00    +0.000 A 
ATOM      8  C   UNL     1      17.932   9.409  39.797  0.00  0.00    +0.000 A 
ATOM      9  C   UNL     1      16.866   9.173  40.780  0.00  0.00    +0.000 C 
ATOM     10  C   UNL     1      16.890   7.648  40.995  0.00  0.00    +0.000 C 
ATOM     11  C   UNL     1      16.078   7.244  42.185  0.00  0.00    +0.000 C 
ATOM     12  C   UNL     1      16.362   8.059  43.415  0.00  0.00    +0.000 C 
ATOM     13  C   UNL     1      16.303   9.520  43.119  0.00  0.00    +0.000 C 
ATOM     14  C   UNL     1      17.389   9.821  42.081  0.00  0.00    +0.000 C 
ATOM     15  C   UNL     1      15.547   9.663  40.411  0.00  0.00    +0.000 C 
ATOM     16  C   UNL     1      15.448  10.325  39.114  0.00  0.00    +0.000 A 
ATOM     17  C   UNL     1      14.176  10.806  38.740  0.00  0.00    +0.000 A 
ATOM     18  C   UNL     1      13.973  11.433  37.565  0.00  0.00    +0.000 A 
ATOM     19  C   UNL     1      15.023  11.621  36.685  0.00  0.00    +0.000 A 
ATOM     20  C   UNL     1      16.270  11.148  37.056  0.00  0.00    +0.000 A 
ATOM     21  C   UNL     1      16.485  10.518  38.233  0.00  0.00    +0.000 A 
ENDROOT
TORSDOF 0
ENDMDL
MODEL 2
REMARK VINA RESULT:      -7.0     22.227     23.227
REMARK  Name = 
REMARK  0 active torsions:
REMARK  status: ('A' for Active; 'I' for Inactive)
REMARK                            x       y       z     vdW  Elec       q    Type
REMARK                         _______ _______ _______ _____ _____    ______ ____
ROOT
ATOM      1  N   UNL     1      22.869 -11.061  25.592  0.00  0.00    +0.000 NA
ATOM      2  C   UNL     1      22.723  -9.677  25.334  0.00  0.00    +0.000 A 
ATOM      3  N   UNL     1      23.631  -8.962  24.665  0.00  0.00    +0.000 NA
ATOM      4  C   UNL     1      23.502  -7.657  24.416  0.00  0.00    +0.000 A 
ATOM      5  S   UNL     1      24.669  -6.872  23.587  0.00  0.00    +0.000 S 
ATOM      6  N   UNL     1      22.399  -7.041  24.870  0.00  0.00    +0.000 NA
ATOM      7  C   UNL     1      21.456  -7.737  25.557  0.00  0.00    +0.000 A 
ATOM      8  C   UNL     1      21.548  -9.073  25.831  0.00  0.00    +0.000 A 
ATOM      9  C   UNL     1      20.583  -9.907  26.562  0.00  0.00    +0.000 C 
ATOM     10  C   UNL     1      20.249 -11.041  25.574  0.00  0.00    +0.000 C 
ATOM     11  C   UNL     1      19.512 -12.157  26.243  0.00  0.00    +0.000 C 
ATOM     12  C   UNL     1      20.138 -12.608  27.532  0.00  0.00    +0.000 C 
ATOM     13  C   UNL     1      20.413 -11.450  28.432  0.00  0.00    +0.000 C 
ATOM     14  C   UNL     1      21.406 -10.534  27.709  0.00  0.00    +0.000 C 
ATOM     15  C   UNL     1      19.395  -9.221  27.046  0.00  0.00    +0.000 C 
ATOM     16  C   UNL     1      19.309  -7.795  26.745  0.00  0.00    +0.000 A 
ATOM     17  C   UNL     1      18.164  -7.115  27.207  0.00  0.00    +0.000 A 
ATOM     18  C   UNL     1      17.984  -5.798  26.984  0.00  0.00    +0.000 A 
ATOM     19  C   UNL     1      18.933  -5.073  26.287  0.00  0.00    +0.000 A 
ATOM     20  C   UNL     1      20.057  -5.744  25.836  0.00  0.00    +0.000 A 
ATOM     21  C   UNL     1      20.247  -7.066  26.054  0.00  0.00    +0.000 A 
ENDROOT
TORSDOF 0
ENDMDL
MODEL 3
REMARK VINA RESULT:      -6.9     33.182     35.388
REMARK  Name = 
REMARK  0 active torsions:
REMARK  status: ('A' for Active; 'I' for Inactive)
REMARK                            x       y       z     vdW  Elec       q    Type
REMARK                         _______ _______ _______ _____ _____    ______ ____
ROOT
ATOM      1  N   UNL     1      34.258  20.063   8.090  0.00  0.00    +0.000 NA
ATOM      2  C   UNL     1      32.848  20.174   8.147  0.00  0.00    +0.000 A 
ATOM      3  N   UNL     1      32.041  19.694   7.198  0.00  0.00    +0.000 NA
ATOM      4  C   UNL     1      30.711  19.794   7.243  0.00  0.00    +0.000 A 
ATOM      5  S   UNL     1      29.811  19.174   6.031  0.00  0.00    +0.000 S 
ATOM      6  N   UNL     1      30.167  20.412   8.304  0.00  0.00    +0.000 NA
ATOM      7  C   UNL     1      30.959  20.913   9.288  0.00  0.00    +0.000 A 
ATOM      8  C   UNL     1      32.323  20.831   9.281  0.00  0.00    +0.000 A 
ATOM      9  C   UNL     1      33.257  21.340  10.295  0.00  0.00    +0.000 C 
ATOM     10  C   UNL     1      34.074  20.099  10.703  0.00  0.00    +0.000 C 
ATOM     11  C   UNL     1      35.279  20.471  11.508  0.00  0.00    +0.000 C 
ATOM     12  C   UNL     1      36.086  21.588  10.909  0.00  0.00    +0.000 C 
ATOM     13  C   UNL     1      35.219  22.751  10.559  0.00  0.00    +0.000 C 
ATOM     14  C   UNL     1      34.209  22.270   9.511  0.00  0.00    +0.000 C 
ATOM     15  C   UNL     1      32.650  22.006  11.435  0.00  0.00    +0.000 C 
ATOM     16  C   UNL     1      31.192  22.086  11.431  0.00  0.00    +0.000 A 
ATOM     17  C   UNL     1      30.586  22.729  12.530  0.00  0.00    +0.000 A 
ATOM     18  C   UNL     1      29.248  22.858  12.627  0.00  0.00    +0.000 A 
ATOM     19  C   UNL     1      28.427  22.354  11.635  0.00  0.00    +0.000 A 
ATOM     20  C   UNL     1      29.025  21.724  10.557  0.00  0.00    +0.000 A 
ATOM     21  C   UNL     1      30.367  21.589  10.450  0.00  0.00    +0.000 A 
ENDROOT
TORSDOF 0
ENDMDL
MODEL 4
REMARK VINA RESULT:      -6.9     20.525     23.144
REMARK  Name = 
REMARK  0 active torsions:
REMARK  status: ('A' for Active; 'I' for Inactive)
REMARK                            x       y       z     vdW  Elec       q    Type
REMARK                         _______ _______ _______ _____ _____    ______ ____
ROOT
ATOM      1  N   UNL     1      31.080  23.630  28.086  0.00  0.00    +0.000 NA
ATOM      2  C   UNL     1      29.711  23.303  27.933  0.00  0.00    +0.000 A 
ATOM      3  N   UNL     1      28.947  22.883  28.944  0.00  0.00    +0.000 NA
ATOM      4  C   UNL     1      27.655  22.573  28.810  0.00  0.00    +0.000 A 
ATOM      5  S   UNL     1      26.805  22.068  30.110  0.00  0.00    +0.000 S 
ATOM      6  N   UNL     1      27.108  22.691  27.590  0.00  0.00    +0.000 NA
ATOM      7  C   UNL     1      27.856  23.115  26.539  0.00  0.00    +0.000 A 
ATOM      8  C   UNL     1      29.180  23.444  26.633  0.00  0.00    +0.000 A 
ATOM      9  C   UNL     1      30.067  23.910  25.557  0.00  0.00    +0.000 C 
ATOM     10  C   UNL     1      30.613  25.252  26.082  0.00  0.00    +0.000 C 
ATOM     11  C   UNL     1      31.765  25.738  25.261  0.00  0.00    +0.000 C 
ATOM     12  C   UNL     1      32.809  24.689  25.004  0.00  0.00    +0.000 C 
ATOM     13  C   UNL     1      32.195  23.432  24.485  0.00  0.00    +0.000 C 
ATOM     14  C   UNL     1      31.242  22.909  25.566  0.00  0.00    +0.000 C 
ATOM     15  C   UNL     1      29.456  24.032  24.244  0.00  0.00    +0.000 C 
ATOM     16  C   UNL     1      28.041  23.679  24.158  0.00  0.00    +0.000 A 
ATOM     17  C   UNL     1      27.433  23.792  22.891  0.00  0.00    +0.000 A 
ATOM     18  C   UNL     1      26.133  23.491  22.699  0.00  0.00    +0.000 A 
ATOM     19  C   UNL     1      25.355  23.058  23.758  0.00  0.00    +0.000 A 
ATOM     20  C   UNL     1      25.957  22.948  25.000  0.00  0.00    +0.000 A 
ATOM     21  C   UNL     1      27.260  23.247  25.203  0.00  0.00    +0.000 A 
ENDROOT
TORSDOF 0
ENDMDL
MODEL 5
REMARK VINA RESULT:      -6.8     21.689     22.581
REMARK  Name = 
REMARK  0 active torsions:
REMARK  status: ('A' for Active; 'I' for Inactive)
REMARK                            x       y       z     vdW  Elec       q    Type
REMARK                         _______ _______ _______ _____ _____    ______ ____
ROOT
ATOM      1  N   UNL     1      20.060 -11.971  28.077  0.00  0.00    +0.000 NA
ATOM      2  C   UNL     1      20.644 -10.909  27.346  0.00  0.00    +0.000 A 
ATOM      3  N   UNL     1      21.808 -11.025  26.701  0.00  0.00    +0.000 NA
ATOM      4  C   UNL     1      22.367 -10.029  26.008  0.00  0.00    +0.000 A 
ATOM      5  S   UNL     1      23.794 -10.271  25.253  0.00  0.00    +0.000 S 
ATOM      6  N   UNL     1      21.716  -8.856  25.967  0.00  0.00    +0.000 NA
ATOM      7  C   UNL     1      20.531  -8.703  26.612  0.00  0.00    +0.000 A 
ATOM      8  C   UNL     1      19.924  -9.696  27.331  0.00  0.00    +0.000 A 
ATOM      9  C   UNL     1      18.649  -9.625  28.058  0.00  0.00    +0.000 C 
ATOM     10  C   UNL     1      17.815 -10.772  27.457  0.00  0.00    +0.000 C 
ATOM     11  C   UNL     1      16.594 -11.055  28.274  0.00  0.00    +0.000 C 
ATOM     12  C   UNL     1      16.867 -11.178  29.746  0.00  0.00    +0.000 C 
ATOM     13  C   UNL     1      17.665 -10.019  30.246  0.00  0.00    +0.000 C 
ATOM     14  C   UNL     1      19.006 -10.034  29.504  0.00  0.00    +0.000 C 
ATOM     15  C   UNL     1      17.960  -8.346  28.001  0.00  0.00    +0.000 C 
ATOM     16  C   UNL     1      18.618  -7.295  27.230  0.00  0.00    +0.000 A 
ATOM     17  C   UNL     1      17.963  -6.048  27.164  0.00  0.00    +0.000 A 
ATOM     18  C   UNL     1      18.483  -5.010  26.480  0.00  0.00    +0.000 A 
ATOM     19  C   UNL     1      19.688  -5.146  25.817  0.00  0.00    +0.000 A 
ATOM     20  C   UNL     1      20.328  -6.372  25.884  0.00  0.00    +0.000 A 
ATOM     21  C   UNL     1      19.816  -7.421  26.568  0.00  0.00    +0.000 A 
ENDROOT
TORSDOF 0
ENDMDL
MODEL 6
REMARK VINA RESULT:      -6.8     20.092     22.736
REMARK  Name = 
REMARK  0 active torsions:
REMARK  status: ('A' for Active; 'I' for Inactive)
REMARK                            x       y       z     vdW  Elec       q    Type
REMARK                         _______ _______ _______ _____ _____    ______ ____
ROOT
ATOM      1  N   UNL     1      32.626  -7.877  32.675  0.00  0.00    +0.000 NA
ATOM      2  C   UNL     1      32.148  -7.006  33.684  0.00  0.00    +0.000 A 
ATOM      3  N   UNL     1      31.352  -7.411  34.676  0.00  0.00    +0.000 NA
ATOM      4  C   UNL     1      30.897  -6.597  35.632  0.00  0.00    +0.000 A 
ATOM      5  S   UNL     1      29.927  -7.190  36.805  0.00  0.00    +0.000 S 
ATOM      6  N   UNL     1      31.265  -5.307  35.582  0.00  0.00    +0.000 NA
ATOM      7  C   UNL     1      32.073  -4.861  34.585  0.00  0.00    +0.000 A 
ATOM      8  C   UNL     1      32.562  -5.660  33.589  0.00  0.00    +0.000 A 
ATOM      9  C   UNL     1      33.438  -5.270  32.476  0.00  0.00    +0.000 C 
ATOM     10  C   UNL     1      34.649  -6.214  32.608  0.00  0.00    +0.000 C 
ATOM     11  C   UNL     1      35.514  -6.176  31.389  0.00  0.00    +0.000 C 
ATOM     12  C   UNL     1      34.751  -6.306  30.101  0.00  0.00    +0.000 C 
ATOM     13  C   UNL     1      33.609  -5.347  30.052  0.00  0.00    +0.000 C 
ATOM     14  C   UNL     1      32.667  -5.699  31.209  0.00  0.00    +0.000 C 
ATOM     15  C   UNL     1      33.826  -3.869  32.438  0.00  0.00    +0.000 C 
ATOM     16  C   UNL     1      33.298  -3.028  33.509  0.00  0.00    +0.000 A 
ATOM     17  C   UNL     1      33.664  -1.666  33.487  0.00  0.00    +0.000 A 
ATOM     18  C   UNL     1      33.233  -0.801  34.427  0.00  0.00    +0.000 A 
ATOM     19  C   UNL     1      32.409  -1.237  35.449  0.00  0.00    +0.000 A 
ATOM     20  C   UNL     1      32.052  -2.575  35.465  0.00  0.00    +0.000 A 
ATOM     21  C   UNL     1      32.479  -3.451  34.528  0.00  0.00    +0.000 A 
ENDROOT
TORSDOF 0
ENDMDL
MODEL 7
REMARK VINA RESULT:      -6.8     21.005     23.591
REMARK  Name = 
REMARK  0 active torsions:
REMARK  status: ('A' for Active; 'I' for Inactive)
REMARK                            x       y       z     vdW  Elec       q    Type
REMARK                         _______ _______ _______ _____ _____    ______ ____
ROOT
ATOM      1  N   UNL     1      31.367  23.459  24.124  0.00  0.00    +0.000 NA
ATOM      2  C   UNL     1      30.760  23.350  25.398  0.00  0.00    +0.000 A 
ATOM      3  N   UNL     1      31.395  22.863  26.467  0.00  0.00    +0.000 NA
ATOM      4  C   UNL     1      30.831  22.757  27.672  0.00  0.00    +0.000 A 
ATOM      5  S   UNL     1      31.693  22.148  28.918  0.00  0.00    +0.000 S 
ATOM      6  N   UNL     1      29.558  23.163  27.804  0.00  0.00    +0.000 NA
ATOM      7  C   UNL     1      28.882  23.663  26.737  0.00  0.00    +0.000 A 
ATOM      8  C   UNL     1      29.421  23.790  25.487  0.00  0.00    +0.000 A 
ATOM      9  C   UNL     1      28.771  24.316  24.279  0.00  0.00    +0.000 C 
ATOM     10  C   UNL     1      29.700  25.459  23.826  0.00  0.00    +0.000 C 
ATOM     11  C   UNL     1      29.369  25.924  22.443  0.00  0.00    +0.000 C 
ATOM     12  C   UNL     1      29.211  24.808  21.451  0.00  0.00    +0.000 C 
ATOM     13  C   UNL     1      28.285  23.756  21.964  0.00  0.00    +0.000 C 
ATOM     14  C   UNL     1      28.909  23.182  23.241  0.00  0.00    +0.000 C 
ATOM     15  C   UNL     1      27.393  24.751  24.442  0.00  0.00    +0.000 C 
ATOM     16  C   UNL     1      26.830  24.611  25.782  0.00  0.00    +0.000 A 
ATOM     17  C   UNL     1      25.494  25.027  25.958  0.00  0.00    +0.000 A 
ATOM     18  C   UNL     1      24.876  24.942  27.152  0.00  0.00    +0.000 A 
ATOM     19  C   UNL     1      25.549  24.436  28.250  0.00  0.00    +0.000 A 
ATOM     20  C   UNL     1      26.860  24.027  28.073  0.00  0.00    +0.000 A 
ATOM     21  C   UNL     1      27.489  24.109  26.879  0.00  0.00    +0.000 A 
ENDROOT
TORSDOF 0
ENDMDL
MODEL 8
REMARK VINA RESULT:      -6.7     20.181     22.711
REMARK  Name = 
REMARK  0 active torsions:
REMARK  status: ('A' for Active; 'I' for Inactive)
REMARK                            x       y       z     vdW  Elec       q    Type
REMARK                         _______ _______ _______ _____ _____    ______ ____
ROOT
ATOM      1  N   UNL     1      29.264  22.624  25.666  0.00  0.00    +0.000 NA
ATOM      2  C   UNL     1      28.203  22.919  26.556  0.00  0.00    +0.000 A 
ATOM      3  N   UNL     1      28.095  22.368  27.767  0.00  0.00    +0.000 NA
ATOM      4  C   UNL     1      27.099  22.640  28.613  0.00  0.00    +0.000 A 
ATOM      5  S   UNL     1      27.057  21.913  30.074  0.00  0.00    +0.000 S 
ATOM      6  N   UNL     1      26.163  23.515  28.213  0.00  0.00    +0.000 NA
ATOM      7  C   UNL     1      26.241  24.094  26.987  0.00  0.00    +0.000 A 
ATOM      8  C   UNL     1      27.243  23.844  26.092  0.00  0.00    +0.000 A 
ATOM      9  C   UNL     1      27.411  24.419  24.750  0.00  0.00    +0.000 C 
ATOM     10  C   UNL     1      28.816  25.052  24.791  0.00  0.00    +0.000 C 
ATOM     11  C   UNL     1      29.292  25.428  23.424  0.00  0.00    +0.000 C 
ATOM     12  C   UNL     1      29.120  24.339  22.403  0.00  0.00    +0.000 C 
ATOM     13  C   UNL     1      27.730  23.796  22.422  0.00  0.00    +0.000 C 
ATOM     14  C   UNL     1      27.493  23.195  23.813  0.00  0.00    +0.000 C 
ATOM     15  C   UNL     1      26.387  25.364  24.335  0.00  0.00    +0.000 C 
ATOM     16  C   UNL     1      25.323  25.623  25.302  0.00  0.00    +0.000 A 
ATOM     17  C   UNL     1      24.320  26.537  24.916  0.00  0.00    +0.000 A 
ATOM     18  C   UNL     1      23.293  26.848  25.730  0.00  0.00    +0.000 A 
ATOM     19  C   UNL     1      23.197  26.268  26.982  0.00  0.00    +0.000 A 
ATOM     20  C   UNL     1      24.182  25.371  27.357  0.00  0.00    +0.000 A 
ATOM     21  C   UNL     1      25.218  25.052  26.548  0.00  0.00    +0.000 A 
ENDROOT
TORSDOF 0
ENDMDL
MODEL 9
REMARK VINA RESULT:      -6.7     19.139     21.538
REMARK  Name = 
REMARK  0 active torsions:
REMARK  status: ('A' for Active; 'I' for Inactive)
REMARK                            x       y       z     vdW  Elec       q    Type
REMARK                         _______ _______ _______ _____ _____    ______ ____
ROOT
ATOM      1  N   UNL     1      29.393  23.218  31.415  0.00  0.00    +0.000 NA
ATOM      2  C   UNL     1      30.285  22.945  30.350  0.00  0.00    +0.000 A 
ATOM      3  N   UNL     1      31.572  22.646  30.538  0.00  0.00    +0.000 NA
ATOM      4  C   UNL     1      32.421  22.387  29.541  0.00  0.00    +0.000 A 
ATOM      5  S   UNL     1      33.979  22.031  29.876  0.00  0.00    +0.000 S 
ATOM      6  N   UNL     1      31.944  22.435  28.287  0.00  0.00    +0.000 NA
ATOM      7  C   UNL     1      30.639  22.738  28.059  0.00  0.00    +0.000 A 
ATOM      8  C   UNL     1      29.737  23.008  29.051  0.00  0.00    +0.000 A 
ATOM      9  C   UNL     1      28.314  23.342  28.901  0.00  0.00    +0.000 C 
ATOM     10  C   UNL     1      27.593  22.283  29.757  0.00  0.00    +0.000 C 
ATOM     11  C   UNL     1      26.155  22.636  29.976  0.00  0.00    +0.000 C 
ATOM     12  C   UNL     1      25.941  24.056  30.417  0.00  0.00    +0.000 C 
ATOM     13  C   UNL     1      26.662  25.012  29.526  0.00  0.00    +0.000 C 
ATOM     14  C   UNL     1      28.158  24.695  29.629  0.00  0.00    +0.000 C 
ATOM     15  C   UNL     1      27.816  23.389  27.536  0.00  0.00    +0.000 C 
ATOM     16  C   UNL     1      28.789  23.098  26.487  0.00  0.00    +0.000 A 
ATOM     17  C   UNL     1      28.323  23.139  25.157  0.00  0.00    +0.000 A 
ATOM     18  C   UNL     1      29.136  22.886  24.113  0.00  0.00    +0.000 A 
ATOM     19  C   UNL     1      30.467  22.577  24.326  0.00  0.00    +0.000 A 
ATOM     20  C   UNL     1      30.921  22.538  25.633  0.00  0.00    +0.000 A 
ATOM     21  C   UNL     1      30.114  22.789  26.688  0.00  0.00    +0.000 A 
ENDROOT
TORSDOF 0
ENDMDL
MODEL 10
REMARK VINA RESULT:      -6.7     19.182     20.750
REMARK  Name = 
REMARK  0 active torsions:
REMARK  status: ('A' for Active; 'I' for Inactive)
REMARK                            x       y       z     vdW  Elec       q    Type
REMARK                         _______ _______ _______ _____ _____    ______ ____
ROOT
ATOM      1  N   UNL     1      28.486  22.035  27.298  0.00  0.00    +0.000 NA
ATOM      2  C   UNL     1      27.420  22.776  26.734  0.00  0.00    +0.000 A 
ATOM      3  N   UNL     1      27.097  22.716  25.440  0.00  0.00    +0.000 NA
ATOM      4  C   UNL     1      26.094  23.411  24.899  0.00  0.00    +0.000 A 
ATOM      5  S   UNL     1      25.778  23.268  23.303  0.00  0.00    +0.000 S 
ATOM      6  N   UNL     1      25.380  24.210  25.708  0.00  0.00    +0.000 NA
ATOM      7  C   UNL     1      25.682  24.296  27.030  0.00  0.00    +0.000 A 
ATOM      8  C   UNL     1      26.699  23.602  27.623  0.00  0.00    +0.000 A 
ATOM      9  C   UNL     1      27.098  23.630  29.038  0.00  0.00    +0.000 C 
ATOM     10  C   UNL     1      27.029  22.153  29.472  0.00  0.00    +0.000 C 
ATOM     11  C   UNL     1      27.688  21.936  30.797  0.00  0.00    +0.000 C 
ATOM     12  C   UNL     1      29.049  22.563  30.906  0.00  0.00    +0.000 C 
ATOM     13  C   UNL     1      29.020  23.993  30.481  0.00  0.00    +0.000 C 
ATOM     14  C   UNL     1      28.591  24.024  29.010  0.00  0.00    +0.000 C 
ATOM     15  C   UNL     1      26.313  24.501  29.898  0.00  0.00    +0.000 C 
ATOM     16  C   UNL     1      25.229  25.236  29.251  0.00  0.00    +0.000 A 
ATOM     17  C   UNL     1      24.458  26.085  30.071  0.00  0.00    +0.000 A 
ATOM     18  C   UNL     1      23.434  26.809  29.577  0.00  0.00    +0.000 A 
ATOM     19  C   UNL     1      23.113  26.734  28.234  0.00  0.00    +0.000 A 
ATOM     20  C   UNL     1      23.873  25.900  27.432  0.00  0.00    +0.000 A 
ATOM     21  C   UNL     1      24.902  25.168  27.918  0.00  0.00    +0.000 A 
ENDROOT
TORSDOF 0
ENDMDL
