MODEL 1
REMARK VINA RESULT:      -7.3      0.000      0.000
REMARK  Name = 
REMARK  3 active torsions:
REMARK  status: ('A' for Active; 'I' for Inactive)
REMARK    1  A    between atoms: N_2  and  C_4
REMARK    2  A    between atoms: C_7  and  N_8
REMARK    3  A    between atoms: N_8  and  C_9
REMARK                            x       y       z     vdW  Elec       q    Type
REMARK                         _______ _______ _______ _____ _____    ______ ____
ROOT
ATOM      1  C   UNL     1      15.433  12.232  31.758  0.00  0.00    +0.000 A 
ATOM      2  C   UNL     1      16.299  11.172  31.860  0.00  0.00    +0.000 A 
ATOM      3  C   UNL     1      16.598  10.596  33.077  0.00  0.00    +0.000 A 
ATOM      4  C   UNL     1      16.007  11.111  34.200  0.00  0.00    +0.000 A 
ATOM      5  C   UNL     1      15.136  12.173  34.124  0.00  0.00    +0.000 A 
ATOM      6  N   UNL     1      14.569  12.652  35.275  0.00  0.00    +0.000 NA
ATOM      7  C   UNL     1      13.727  13.677  35.199  0.00  0.00    +0.000 A 
ATOM      8  C   UNL     1      13.419  14.261  33.997  0.00  0.00    +0.000 A 
ATOM      9  C   UNL     1      13.958  13.822  32.810  0.00  0.00    +0.000 A 
ATOM     10  C   UNL     1      14.844  12.737  32.912  0.00  0.00    +0.000 A 
ENDROOT
BRANCH   1  12
ATOM     11  O   UNL     1      14.112  12.463  29.880  0.00  0.00    +0.000 OA
ATOM     12  N   UNL     1      15.102  12.846  30.517  0.00  0.00    +0.000 N 
ATOM     13  O   UNL     1      15.903  13.869  30.050  0.00  0.00    +0.000 OA
ENDBRANCH   1  12
BRANCH   4  14
ATOM     14  N   UNL     1      16.287  10.544  35.498  0.00  0.00    +0.000 NA
BRANCH  14  15
ATOM     15  C   UNL     1      17.584  10.815  36.073  0.00  0.00    +0.000 C 
ATOM     16  C   UNL     1      18.256   9.477  36.303  0.00  0.00    +0.000 C 
ATOM     17  C   UNL     1      18.837   9.361  37.676  0.00  0.00    +0.000 C 
ATOM     18  C   UNL     1      17.782   9.474  38.755  0.00  0.00    +0.000 C 
ATOM     19  C   UNL     1      16.760  10.549  38.415  0.00  0.00    +0.000 C 
ATOM     20  C   UNL     1      17.329  11.525  37.398  0.00  0.00    +0.000 C 
ENDBRANCH  14  15
ENDBRANCH   4  14
TORSDOF 3
ENDMDL
MODEL 2
REMARK VINA RESULT:      -6.6      1.853      2.623
REMARK  Name = 
REMARK  3 active torsions:
REMARK  status: ('A' for Active; 'I' for Inactive)
REMARK    1  A    between atoms: N_2  and  C_4
REMARK    2  A    between atoms: C_7  and  N_8
REMARK    3  A    between atoms: N_8  and  C_9
REMARK                            x       y       z     vdW  Elec       q    Type
REMARK                         _______ _______ _______ _____ _____    ______ ____
ROOT
ATOM      1  C   UNL     1      16.413  10.885  33.561  0.00  0.00    +0.000 A 
ATOM      2  C   UNL     1      17.475  10.050  33.801  0.00  0.00    +0.000 A 
ATOM      3  C   UNL     1      17.900   9.769  35.082  0.00  0.00    +0.000 A 
ATOM      4  C   UNL     1      17.231  10.348  36.128  0.00  0.00    +0.000 A 
ATOM      5  C   UNL     1      16.163  11.188  35.913  0.00  0.00    +0.000 A 
ATOM      6  N   UNL     1      15.526  11.743  36.991  0.00  0.00    +0.000 NA
ATOM      7  C   UNL     1      14.494  12.553  36.782  0.00  0.00    +0.000 A 
ATOM      8  C   UNL     1      14.059  12.843  35.513  0.00  0.00    +0.000 A 
ATOM      9  C   UNL     1      14.660  12.315  34.395  0.00  0.00    +0.000 A 
ATOM     10  C   UNL     1      15.748  11.461  34.638  0.00  0.00    +0.000 A 
ENDROOT
BRANCH   1  12
ATOM     11  O   UNL     1      16.349  12.213  31.673  0.00  0.00    +0.000 OA
ATOM     12  N   UNL     1      15.949  11.193  32.250  0.00  0.00    +0.000 N 
ATOM     13  O   UNL     1      15.052  10.334  31.646  0.00  0.00    +0.000 OA
ENDBRANCH   1  12
BRANCH   4  14
ATOM     14  N   UNL     1      17.637  10.086  37.489  0.00  0.00    +0.000 NA
BRANCH  14  15
ATOM     15  C   UNL     1      18.911   9.436  37.686  0.00  0.00    +0.000 C 
ATOM     16  C   UNL     1      18.789   8.591  38.937  0.00  0.00    +0.000 C 
ATOM     17  C   UNL     1      19.934   8.797  39.877  0.00  0.00    +0.000 C 
ATOM     18  C   UNL     1      20.025  10.227  40.362  0.00  0.00    +0.000 C 
ATOM     19  C   UNL     1      19.737  11.210  39.238  0.00  0.00    +0.000 C 
ATOM     20  C   UNL     1      19.936  10.548  37.884  0.00  0.00    +0.000 C 
ENDBRANCH  14  15
ENDBRANCH   4  14
TORSDOF 3
ENDMDL
MODEL 3
REMARK VINA RESULT:      -6.5      3.036      4.709
REMARK  Name = 
REMARK  3 active torsions:
REMARK  status: ('A' for Active; 'I' for Inactive)
REMARK    1  A    between atoms: N_2  and  C_4
REMARK    2  A    between atoms: C_7  and  N_8
REMARK    3  A    between atoms: N_8  and  C_9
REMARK                            x       y       z     vdW  Elec       q    Type
REMARK                         _______ _______ _______ _____ _____    ______ ____
ROOT
ATOM      1  C   UNL     1      14.417  11.424  37.026  0.00  0.00    +0.000 A 
ATOM      2  C   UNL     1      14.891  11.057  38.261  0.00  0.00    +0.000 A 
ATOM      3  C   UNL     1      16.190  10.630  38.440  0.00  0.00    +0.000 A 
ATOM      4  C   UNL     1      17.011  10.577  37.345  0.00  0.00    +0.000 A 
ATOM      5  C   UNL     1      16.560  10.940  36.097  0.00  0.00    +0.000 A 
ATOM      6  N   UNL     1      17.420  10.871  35.033  0.00  0.00    +0.000 NA
ATOM      7  C   UNL     1      16.982  11.223  33.829  0.00  0.00    +0.000 A 
ATOM      8  C   UNL     1      15.693  11.650  33.634  0.00  0.00    +0.000 A 
ATOM      9  C   UNL     1      14.787  11.739  34.665  0.00  0.00    +0.000 A 
ATOM     10  C   UNL     1      15.270  11.363  35.929  0.00  0.00    +0.000 A 
ENDROOT
BRANCH   1  12
ATOM     11  O   UNL     1      12.851  13.076  36.643  0.00  0.00    +0.000 OA
ATOM     12  N   UNL     1      13.083  11.871  36.809  0.00  0.00    +0.000 N 
ATOM     13  O   UNL     1      12.067  10.937  36.785  0.00  0.00    +0.000 OA
ENDBRANCH   1  12
BRANCH   4  14
ATOM     14  N   UNL     1      18.380  10.137  37.480  0.00  0.00    +0.000 NA
BRANCH  14  15
ATOM     15  C   UNL     1      19.129  10.638  38.609  0.00  0.00    +0.000 C 
ATOM     16  C   UNL     1      19.587  12.037  38.252  0.00  0.00    +0.000 C 
ATOM     17  C   UNL     1      21.041  12.248  38.532  0.00  0.00    +0.000 C 
ATOM     18  C   UNL     1      21.920  11.316  37.727  0.00  0.00    +0.000 C 
ATOM     19  C   UNL     1      21.322   9.920  37.655  0.00  0.00    +0.000 C 
ATOM     20  C   UNL     1      20.324   9.706  38.781  0.00  0.00    +0.000 C 
ENDBRANCH  14  15
ENDBRANCH   4  14
TORSDOF 3
ENDMDL
MODEL 4
REMARK VINA RESULT:      -6.3     18.366     19.470
REMARK  Name = 
REMARK  3 active torsions:
REMARK  status: ('A' for Active; 'I' for Inactive)
REMARK    1  A    between atoms: N_2  and  C_4
REMARK    2  A    between atoms: C_7  and  N_8
REMARK    3  A    between atoms: N_8  and  C_9
REMARK                            x       y       z     vdW  Elec       q    Type
REMARK                         _______ _______ _______ _____ _____    ______ ____
ROOT
ATOM      1  C   UNL     1      29.384  24.275  23.160  0.00  0.00    +0.000 A 
ATOM      2  C   UNL     1      30.504  24.156  23.944  0.00  0.00    +0.000 A 
ATOM      3  C   UNL     1      30.451  23.595  25.203  0.00  0.00    +0.000 A 
ATOM      4  C   UNL     1      29.239  23.153  25.664  0.00  0.00    +0.000 A 
ATOM      5  C   UNL     1      28.102  23.261  24.898  0.00  0.00    +0.000 A 
ATOM      6  N   UNL     1      26.914  22.803  25.402  0.00  0.00    +0.000 NA
ATOM      7  C   UNL     1      25.817  22.907  24.660  0.00  0.00    +0.000 A 
ATOM      8  C   UNL     1      25.853  23.462  23.406  0.00  0.00    +0.000 A 
ATOM      9  C   UNL     1      27.017  23.938  22.849  0.00  0.00    +0.000 A 
ATOM     10  C   UNL     1      28.164  23.818  23.650  0.00  0.00    +0.000 A 
ENDROOT
BRANCH   1  12
ATOM     11  O   UNL     1      29.687  24.144  20.876  0.00  0.00    +0.000 OA
ATOM     12  N   UNL     1      29.406  24.846  21.856  0.00  0.00    +0.000 N 
ATOM     13  O   UNL     1      29.109  26.186  21.715  0.00  0.00    +0.000 OA
ENDBRANCH   1  12
BRANCH   4  14
ATOM     14  N   UNL     1      29.130  22.559  26.976  0.00  0.00    +0.000 NA
BRANCH  14  15
ATOM     15  C   UNL     1      29.302  23.430  28.114  0.00  0.00    +0.000 C 
ATOM     16  C   UNL     1      29.976  22.616  29.199  0.00  0.00    +0.000 C 
ATOM     17  C   UNL     1      29.293  22.756  30.522  0.00  0.00    +0.000 C 
ATOM     18  C   UNL     1      27.861  22.269  30.481  0.00  0.00    +0.000 C 
ATOM     19  C   UNL     1      27.175  22.683  29.189  0.00  0.00    +0.000 C 
ATOM     20  C   UNL     1      27.903  23.854  28.548  0.00  0.00    +0.000 C 
ENDBRANCH  14  15
ENDBRANCH   4  14
TORSDOF 3
ENDMDL
MODEL 5
REMARK VINA RESULT:      -6.3     18.913     19.835
REMARK  Name = 
REMARK  3 active torsions:
REMARK  status: ('A' for Active; 'I' for Inactive)
REMARK    1  A    between atoms: N_2  and  C_4
REMARK    2  A    between atoms: C_7  and  N_8
REMARK    3  A    between atoms: N_8  and  C_9
REMARK                            x       y       z     vdW  Elec       q    Type
REMARK                         _______ _______ _______ _____ _____    ______ ____
ROOT
ATOM      1  C   UNL     1      29.895  23.984  23.621  0.00  0.00    +0.000 A 
ATOM      2  C   UNL     1      31.177  23.800  24.075  0.00  0.00    +0.000 A 
ATOM      3  C   UNL     1      31.438  23.157  25.268  0.00  0.00    +0.000 A 
ATOM      4  C   UNL     1      30.376  22.701  26.002  0.00  0.00    +0.000 A 
ATOM      5  C   UNL     1      29.082  22.873  25.569  0.00  0.00    +0.000 A 
ATOM      6  N   UNL     1      28.053  22.398  26.339  0.00  0.00    +0.000 NA
ATOM      7  C   UNL     1      26.805  22.565  25.918  0.00  0.00    +0.000 A 
ATOM      8  C   UNL     1      26.529  23.201  24.734  0.00  0.00    +0.000 A 
ATOM      9  C   UNL     1      27.520  23.698  23.921  0.00  0.00    +0.000 A 
ATOM     10  C   UNL     1      28.833  23.511  24.384  0.00  0.00    +0.000 A 
ENDROOT
BRANCH   1  12
ATOM     11  O   UNL     1      29.496  23.986  21.348  0.00  0.00    +0.000 OA
ATOM     12  N   UNL     1      29.594  24.641  22.394  0.00  0.00    +0.000 N 
ATOM     13  O   UNL     1      29.414  26.009  22.402  0.00  0.00    +0.000 OA
ENDBRANCH   1  12
BRANCH   4  14
ATOM     14  N   UNL     1      30.595  22.022  27.258  0.00  0.00    +0.000 NA
BRANCH  14  15
ATOM     15  C   UNL     1      31.613  22.558  28.131  0.00  0.00    +0.000 C 
ATOM     16  C   UNL     1      32.140  21.404  28.959  0.00  0.00    +0.000 C 
ATOM     17  C   UNL     1      32.201  21.731  30.417  0.00  0.00    +0.000 C 
ATOM     18  C   UNL     1      30.837  22.049  30.989  0.00  0.00    +0.000 C 
ATOM     19  C   UNL     1      30.016  22.890  30.023  0.00  0.00    +0.000 C 
ATOM     20  C   UNL     1      30.921  23.587  29.019  0.00  0.00    +0.000 C 
ENDBRANCH  14  15
ENDBRANCH   4  14
TORSDOF 3
ENDMDL
MODEL 6
REMARK VINA RESULT:      -6.1     17.858     19.596
REMARK  Name = 
REMARK  3 active torsions:
REMARK  status: ('A' for Active; 'I' for Inactive)
REMARK    1  A    between atoms: N_2  and  C_4
REMARK    2  A    between atoms: C_7  and  N_8
REMARK    3  A    between atoms: N_8  and  C_9
REMARK                            x       y       z     vdW  Elec       q    Type
REMARK                         _______ _______ _______ _____ _____    ______ ____
ROOT
ATOM      1  C   UNL     1      26.743  23.348  29.121  0.00  0.00    +0.000 A 
ATOM      2  C   UNL     1      25.964  23.704  28.049  0.00  0.00    +0.000 A 
ATOM      3  C   UNL     1      26.507  23.922  26.800  0.00  0.00    +0.000 A 
ATOM      4  C   UNL     1      27.859  23.775  26.647  0.00  0.00    +0.000 A 
ATOM      5  C   UNL     1      28.662  23.419  27.706  0.00  0.00    +0.000 A 
ATOM      6  N   UNL     1      30.010  23.284  27.504  0.00  0.00    +0.000 NA
ATOM      7  C   UNL     1      30.783  22.939  28.527  0.00  0.00    +0.000 A 
ATOM      8  C   UNL     1      30.259  22.719  29.776  0.00  0.00    +0.000 A 
ATOM      9  C   UNL     1      28.914  22.840  30.037  0.00  0.00    +0.000 A 
ATOM     10  C   UNL     1      28.115  23.204  28.942  0.00  0.00    +0.000 A 
ENDROOT
BRANCH   1  12
ATOM     11  O   UNL     1      26.050  24.059  31.205  0.00  0.00    +0.000 OA
ATOM     12  N   UNL     1      26.213  23.114  30.421  0.00  0.00    +0.000 N 
ATOM     13  O   UNL     1      25.888  21.822  30.781  0.00  0.00    +0.000 OA
ENDBRANCH   1  12
BRANCH   4  14
ATOM     14  N   UNL     1      28.477  23.992  25.360  0.00  0.00    +0.000 NA
BRANCH  14  15
ATOM     15  C   UNL     1      27.648  24.541  24.312  0.00  0.00    +0.000 C 
ATOM     16  C   UNL     1      27.545  23.487  23.229  0.00  0.00    +0.000 C 
ATOM     17  C   UNL     1      27.813  24.044  21.867  0.00  0.00    +0.000 C 
ATOM     18  C   UNL     1      29.209  24.614  21.746  0.00  0.00    +0.000 C 
ATOM     19  C   UNL     1      29.606  25.373  23.003  0.00  0.00    +0.000 C 
ATOM     20  C   UNL     1      28.372  25.779  23.794  0.00  0.00    +0.000 C 
ENDBRANCH  14  15
ENDBRANCH   4  14
TORSDOF 3
ENDMDL
MODEL 7
REMARK VINA RESULT:      -6.0     20.896     22.494
REMARK  Name = 
REMARK  3 active torsions:
REMARK  status: ('A' for Active; 'I' for Inactive)
REMARK    1  A    between atoms: N_2  and  C_4
REMARK    2  A    between atoms: C_7  and  N_8
REMARK    3  A    between atoms: N_8  and  C_9
REMARK                            x       y       z     vdW  Elec       q    Type
REMARK                         _______ _______ _______ _____ _____    ______ ____
ROOT
ATOM      1  C   UNL     1      18.534  -9.182  26.970  0.00  0.00    +0.000 A 
ATOM      2  C   UNL     1      19.527 -10.099  26.731  0.00  0.00    +0.000 A 
ATOM      3  C   UNL     1      20.760  -9.720  26.242  0.00  0.00    +0.000 A 
ATOM      4  C   UNL     1      20.978  -8.390  25.995  0.00  0.00    +0.000 A 
ATOM      5  C   UNL     1      19.998  -7.452  26.226  0.00  0.00    +0.000 A 
ATOM      6  N   UNL     1      20.264  -6.134  25.963  0.00  0.00    +0.000 NA
ATOM      7  C   UNL     1      19.317  -5.230  26.188  0.00  0.00    +0.000 A 
ATOM      8  C   UNL     1      18.086  -5.591  26.674  0.00  0.00    +0.000 A 
ATOM      9  C   UNL     1      17.763  -6.898  26.955  0.00  0.00    +0.000 A 
ATOM     10  C   UNL     1      18.778  -7.837  26.711  0.00  0.00    +0.000 A 
ENDROOT
BRANCH   1  12
ATOM     11  O   UNL     1      17.080  -9.669  28.696  0.00  0.00    +0.000 OA
ATOM     12  N   UNL     1      17.252  -9.541  27.476  0.00  0.00    +0.000 N 
ATOM     13  O   UNL     1      16.219  -9.739  26.582  0.00  0.00    +0.000 OA
ENDBRANCH   1  12
BRANCH   4  14
ATOM     14  N   UNL     1      22.251  -7.942  25.482  0.00  0.00    +0.000 NA
BRANCH  14  15
ATOM     15  C   UNL     1      22.504  -8.139  24.074  0.00  0.00    +0.000 C 
ATOM     16  C   UNL     1      23.731  -9.020  23.963  0.00  0.00    +0.000 C 
ATOM     17  C   UNL     1      24.734  -8.478  22.994  0.00  0.00    +0.000 C 
ATOM     18  C   UNL     1      25.250  -7.117  23.407  0.00  0.00    +0.000 C 
ATOM     19  C   UNL     1      24.130  -6.247  23.957  0.00  0.00    +0.000 C 
ATOM     20  C   UNL     1      22.777  -6.757  23.488  0.00  0.00    +0.000 C 
ENDBRANCH  14  15
ENDBRANCH   4  14
TORSDOF 3
ENDMDL
MODEL 8
REMARK VINA RESULT:      -5.9     18.374     19.574
REMARK  Name = 
REMARK  3 active torsions:
REMARK  status: ('A' for Active; 'I' for Inactive)
REMARK    1  A    between atoms: N_2  and  C_4
REMARK    2  A    between atoms: C_7  and  N_8
REMARK    3  A    between atoms: N_8  and  C_9
REMARK                            x       y       z     vdW  Elec       q    Type
REMARK                         _______ _______ _______ _____ _____    ______ ____
ROOT
ATOM      1  C   UNL     1      27.417  22.728  29.460  0.00  0.00    +0.000 A 
ATOM      2  C   UNL     1      27.176  22.820  28.112  0.00  0.00    +0.000 A 
ATOM      3  C   UNL     1      28.200  22.787  27.190  0.00  0.00    +0.000 A 
ATOM      4  C   UNL     1      29.483  22.659  27.651  0.00  0.00    +0.000 A 
ATOM      5  C   UNL     1      29.751  22.565  28.998  0.00  0.00    +0.000 A 
ATOM      6  N   UNL     1      31.051  22.438  29.410  0.00  0.00    +0.000 NA
ATOM      7  C   UNL     1      31.307  22.346  30.710  0.00  0.00    +0.000 A 
ATOM      8  C   UNL     1      30.299  22.378  31.641  0.00  0.00    +0.000 A 
ATOM      9  C   UNL     1      28.977  22.503  31.285  0.00  0.00    +0.000 A 
ATOM     10  C   UNL     1      28.728  22.599  29.906  0.00  0.00    +0.000 A 
ENDROOT
BRANCH   1  12
ATOM     11  O   UNL     1      25.983  23.840  30.888  0.00  0.00    +0.000 OA
ATOM     12  N   UNL     1      26.381  22.757  30.437  0.00  0.00    +0.000 N 
ATOM     13  O   UNL     1      25.839  21.561  30.863  0.00  0.00    +0.000 OA
ENDBRANCH   1  12
BRANCH   4  14
ATOM     14  N   UNL     1      30.591  22.620  26.726  0.00  0.00    +0.000 NA
BRANCH  14  15
ATOM     15  C   UNL     1      30.740  23.737  25.823  0.00  0.00    +0.000 C 
ATOM     16  C   UNL     1      31.728  23.315  24.755  0.00  0.00    +0.000 C 
ATOM     17  C   UNL     1      32.791  24.342  24.526  0.00  0.00    +0.000 C 
ATOM     18  C   UNL     1      33.619  24.593  25.768  0.00  0.00    +0.000 C 
ATOM     19  C   UNL     1      32.750  24.618  27.015  0.00  0.00    +0.000 C 
ATOM     20  C   UNL     1      31.299  24.889  26.651  0.00  0.00    +0.000 C 
ENDBRANCH  14  15
ENDBRANCH   4  14
TORSDOF 3
ENDMDL
MODEL 9
REMARK VINA RESULT:      -5.9     18.167     19.061
REMARK  Name = 
REMARK  3 active torsions:
REMARK  status: ('A' for Active; 'I' for Inactive)
REMARK    1  A    between atoms: N_2  and  C_4
REMARK    2  A    between atoms: C_7  and  N_8
REMARK    3  A    between atoms: N_8  and  C_9
REMARK                            x       y       z     vdW  Elec       q    Type
REMARK                         _______ _______ _______ _____ _____    ______ ____
ROOT
ATOM      1  C   UNL     1      28.339  23.523  23.971  0.00  0.00    +0.000 A 
ATOM      2  C   UNL     1      29.599  22.982  23.904  0.00  0.00    +0.000 A 
ATOM      3  C   UNL     1      30.207  22.424  25.009  0.00  0.00    +0.000 A 
ATOM      4  C   UNL     1      29.520  22.420  26.194  0.00  0.00    +0.000 A 
ATOM      5  C   UNL     1      28.256  22.957  26.287  0.00  0.00    +0.000 A 
ATOM      6  N   UNL     1      27.609  22.929  27.494  0.00  0.00    +0.000 NA
ATOM      7  C   UNL     1      26.389  23.447  27.582  0.00  0.00    +0.000 A 
ATOM      8  C   UNL     1      25.770  24.006  26.492  0.00  0.00    +0.000 A 
ATOM      9  C   UNL     1      26.372  24.060  25.256  0.00  0.00    +0.000 A 
ATOM     10  C   UNL     1      27.661  23.508  25.186  0.00  0.00    +0.000 A 
ENDROOT
BRANCH   1  12
ATOM     11  O   UNL     1      27.777  25.320  22.636  0.00  0.00    +0.000 OA
ATOM     12  N   UNL     1      27.683  24.104  22.849  0.00  0.00    +0.000 N 
ATOM     13  O   UNL     1      26.951  23.285  22.014  0.00  0.00    +0.000 OA
ENDBRANCH   1  12
BRANCH   4  14
ATOM     14  N   UNL     1      30.113  21.848  27.380  0.00  0.00    +0.000 NA
BRANCH  14  15
ATOM     15  C   UNL     1      31.306  22.479  27.893  0.00  0.00    +0.000 C 
ATOM     16  C   UNL     1      32.117  21.401  28.583  0.00  0.00    +0.000 C 
ATOM     17  C   UNL     1      32.577  21.817  29.943  0.00  0.00    +0.000 C 
ATOM     18  C   UNL     1      31.420  22.110  30.873  0.00  0.00    +0.000 C 
ATOM     19  C   UNL     1      30.307  22.855  30.152  0.00  0.00    +0.000 C 
ATOM     20  C   UNL     1      30.841  23.529  28.897  0.00  0.00    +0.000 C 
ENDBRANCH  14  15
ENDBRANCH   4  14
TORSDOF 3
ENDMDL
MODEL 10
REMARK VINA RESULT:      -5.9     17.550     19.252
REMARK  Name = 
REMARK  3 active torsions:
REMARK  status: ('A' for Active; 'I' for Inactive)
REMARK    1  A    between atoms: N_2  and  C_4
REMARK    2  A    between atoms: C_7  and  N_8
REMARK    3  A    between atoms: N_8  and  C_9
REMARK                            x       y       z     vdW  Elec       q    Type
REMARK                         _______ _______ _______ _____ _____    ______ ____
ROOT
ATOM      1  C   UNL     1      26.953  23.099  28.697  0.00  0.00    +0.000 A 
ATOM      2  C   UNL     1      27.846  22.293  28.037  0.00  0.00    +0.000 A 
ATOM      3  C   UNL     1      27.980  22.333  26.665  0.00  0.00    +0.000 A 
ATOM      4  C   UNL     1      27.193  23.206  25.962  0.00  0.00    +0.000 A 
ATOM      5  C   UNL     1      26.290  24.025  26.601  0.00  0.00    +0.000 A 
ATOM      6  N   UNL     1      25.525  24.882  25.855  0.00  0.00    +0.000 NA
ATOM      7  C   UNL     1      24.655  25.672  26.474  0.00  0.00    +0.000 A 
ATOM      8  C   UNL     1      24.509  25.644  27.838  0.00  0.00    +0.000 A 
ATOM      9  C   UNL     1      25.250  24.805  28.637  0.00  0.00    +0.000 A 
ATOM     10  C   UNL     1      26.164  23.978  27.963  0.00  0.00    +0.000 A 
ENDROOT
BRANCH   1  12
ATOM     11  O   UNL     1      25.929  22.364  30.631  0.00  0.00    +0.000 OA
ATOM     12  N   UNL     1      26.793  23.084  30.112  0.00  0.00    +0.000 N 
ATOM     13  O   UNL     1      27.617  23.881  30.881  0.00  0.00    +0.000 OA
ENDBRANCH   1  12
BRANCH   4  14
ATOM     14  N   UNL     1      27.295  23.286  24.524  0.00  0.00    +0.000 NA
BRANCH  14  15
ATOM     15  C   UNL     1      28.603  23.537  23.966  0.00  0.00    +0.000 C 
ATOM     16  C   UNL     1      28.994  24.944  24.369  0.00  0.00    +0.000 C 
ATOM     17  C   UNL     1      29.502  25.746  23.213  0.00  0.00    +0.000 C 
ATOM     18  C   UNL     1      28.459  25.910  22.129  0.00  0.00    +0.000 C 
ATOM     19  C   UNL     1      27.677  24.624  21.917  0.00  0.00    +0.000 C 
ATOM     20  C   UNL     1      28.453  23.431  22.452  0.00  0.00    +0.000 C 
ENDBRANCH  14  15
ENDBRANCH   4  14
TORSDOF 3
ENDMDL
