MODEL 1
REMARK VINA RESULT:      -7.2      0.000      0.000
REMARK  Name = 
REMARK  3 active torsions:
REMARK  status: ('A' for Active; 'I' for Inactive)
REMARK    1  A    between atoms: C_2  and  O_3
REMARK    2  A    between atoms: O_3  and  C_4
REMARK    3  A    between atoms: C_7  and  C_8
REMARK                            x       y       z     vdW  Elec       q    Type
REMARK                         _______ _______ _______ _____ _____    ______ ____
ROOT
ATOM      1  C   UNL     1      15.985  10.908  36.305  0.00  0.00    +0.000 A 
ATOM      2  C   UNL     1      14.895  11.078  37.118  0.00  0.00    +0.000 A 
ATOM      3  C   UNL     1      14.876  10.869  38.476  0.00  0.00    +0.000 A 
ATOM      4  O   UNL     1      13.742  11.059  39.241  0.00  0.00    +0.000 OA
ATOM      5  C   UNL     1      16.029  10.457  39.094  0.00  0.00    +0.000 A 
ATOM      6  C   UNL     1      17.160  10.273  38.293  0.00  0.00    +0.000 A 
ATOM      7  S   UNL     1      18.792   9.783  38.568  0.00  0.00    +0.000 S 
ATOM      8  C   UNL     1      19.334   9.889  36.953  0.00  0.00    +0.000 A 
ATOM      9  O   UNL     1      20.487   9.655  36.439  0.00  0.00    +0.000 OA
ATOM     10  O   UNL     1      18.282  10.275  36.334  0.00  0.00    +0.000 OA
ATOM     11  C   UNL     1      17.183  10.480  36.939  0.00  0.00    +0.000 A 
ENDROOT
BRANCH   1  15
ATOM     12  C   UNL     1      15.710  11.703  32.142  0.00  0.00    +0.000 A 
ATOM     13  C   UNL     1      16.550  10.715  32.593  0.00  0.00    +0.000 A 
ATOM     14  C   UNL     1      16.641  10.456  33.944  0.00  0.00    +0.000 A 
ATOM     15  C   UNL     1      15.917  11.150  34.881  0.00  0.00    +0.000 A 
ATOM     16  C   UNL     1      15.086  12.131  34.398  0.00  0.00    +0.000 A 
ATOM     17  C   UNL     1      14.971  12.416  33.053  0.00  0.00    +0.000 A 
BRANCH  12  18
ATOM     18  O   UNL     1      15.586  12.000  30.779  0.00  0.00    +0.000 OA
BRANCH  18  20
ATOM     19  C   UNL     1      16.474  14.101  30.163  0.00  0.00    +0.000 C 
ATOM     20  C   UNL     1      15.204  13.287  30.374  0.00  0.00    +0.000 C 
ENDBRANCH  18  20
ENDBRANCH  12  18
ENDBRANCH   1  15
TORSDOF 3
ENDMDL
MODEL 2
REMARK VINA RESULT:      -6.8      1.978      2.701
REMARK  Name = 
REMARK  3 active torsions:
REMARK  status: ('A' for Active; 'I' for Inactive)
REMARK    1  A    between atoms: C_2  and  O_3
REMARK    2  A    between atoms: O_3  and  C_4
REMARK    3  A    between atoms: C_7  and  C_8
REMARK                            x       y       z     vdW  Elec       q    Type
REMARK                         _______ _______ _______ _____ _____    ______ ____
ROOT
ATOM      1  C   UNL     1      18.111  10.126  37.674  0.00  0.00    +0.000 A 
ATOM      2  C   UNL     1      17.245   9.943  38.720  0.00  0.00    +0.000 A 
ATOM      3  C   UNL     1      17.608   9.611  40.003  0.00  0.00    +0.000 A 
ATOM      4  O   UNL     1      16.684   9.440  41.016  0.00  0.00    +0.000 OA
ATOM      5  C   UNL     1      18.939   9.445  40.289  0.00  0.00    +0.000 A 
ATOM      6  C   UNL     1      19.850   9.624  39.243  0.00  0.00    +0.000 A 
ATOM      7  S   UNL     1      21.566   9.534  39.082  0.00  0.00    +0.000 S 
ATOM      8  C   UNL     1      21.656   9.921  37.421  0.00  0.00    +0.000 A 
ATOM      9  O   UNL     1      22.670  10.031  36.641  0.00  0.00    +0.000 OA
ATOM     10  O   UNL     1      20.426  10.087  37.110  0.00  0.00    +0.000 OA
ATOM     11  C   UNL     1      19.492   9.954  37.963  0.00  0.00    +0.000 A 
ENDROOT
BRANCH   1  15
ATOM     12  C   UNL     1      16.695  11.246  33.830  0.00  0.00    +0.000 A 
ATOM     13  C   UNL     1      17.359  10.056  33.991  0.00  0.00    +0.000 A 
ATOM     14  C   UNL     1      17.819   9.691  35.238  0.00  0.00    +0.000 A 
ATOM     15  C   UNL     1      17.643  10.474  36.351  0.00  0.00    +0.000 A 
ATOM     16  C   UNL     1      16.975  11.659  36.158  0.00  0.00    +0.000 A 
ATOM     17  C   UNL     1      16.501  12.054  34.924  0.00  0.00    +0.000 A 
BRANCH  12  18
ATOM     18  O   UNL     1      16.209  11.657  32.583  0.00  0.00    +0.000 OA
BRANCH  18  20
ATOM     19  C   UNL     1      14.640  11.225  30.870  0.00  0.00    +0.000 C 
ATOM     20  C   UNL     1      15.862  10.703  31.615  0.00  0.00    +0.000 C 
ENDBRANCH  18  20
ENDBRANCH  12  18
ENDBRANCH   1  15
TORSDOF 3
ENDMDL
MODEL 3
REMARK VINA RESULT:      -6.6      2.493      3.598
REMARK  Name = 
REMARK  3 active torsions:
REMARK  status: ('A' for Active; 'I' for Inactive)
REMARK    1  A    between atoms: C_2  and  O_3
REMARK    2  A    between atoms: O_3  and  C_4
REMARK    3  A    between atoms: C_7  and  C_8
REMARK                            x       y       z     vdW  Elec       q    Type
REMARK                         _______ _______ _______ _____ _____    ______ ____
ROOT
ATOM      1  C   UNL     1      18.807   9.886  37.798  0.00  0.00    +0.000 A 
ATOM      2  C   UNL     1      18.148   9.460  38.921  0.00  0.00    +0.000 A 
ATOM      3  C   UNL     1      18.749   9.006  40.070  0.00  0.00    +0.000 A 
ATOM      4  O   UNL     1      18.026   8.589  41.171  0.00  0.00    +0.000 OA
ATOM      5  C   UNL     1      20.118   8.968  40.127  0.00  0.00    +0.000 A 
ATOM      6  C   UNL     1      20.822   9.396  38.996  0.00  0.00    +0.000 A 
ATOM      7  S   UNL     1      22.489   9.540  38.570  0.00  0.00    +0.000 S 
ATOM      8  C   UNL     1      22.265  10.153  36.993  0.00  0.00    +0.000 A 
ATOM      9  O   UNL     1      23.120  10.490  36.097  0.00  0.00    +0.000 OA
ATOM     10  O   UNL     1      20.990  10.207  36.896  0.00  0.00    +0.000 OA
ATOM     11  C   UNL     1      20.227   9.848  37.849  0.00  0.00    +0.000 A 
ENDROOT
BRANCH   1  15
ATOM     12  C   UNL     1      16.746  11.150  34.306  0.00  0.00    +0.000 A 
ATOM     13  C   UNL     1      16.760  11.954  35.418  0.00  0.00    +0.000 A 
ATOM     14  C   UNL     1      17.428  11.545  36.552  0.00  0.00    +0.000 A 
ATOM     15  C   UNL     1      18.095  10.349  36.627  0.00  0.00    +0.000 A 
ATOM     16  C   UNL     1      18.064   9.566  35.499  0.00  0.00    +0.000 A 
ATOM     17  C   UNL     1      17.405   9.945  34.347  0.00  0.00    +0.000 A 
BRANCH  12  18
ATOM     18  O   UNL     1      16.081  11.524  33.133  0.00  0.00    +0.000 OA
BRANCH  18  20
ATOM     19  C   UNL     1      14.606  10.374  31.688  0.00  0.00    +0.000 C 
ATOM     20  C   UNL     1      16.063  10.659  32.028  0.00  0.00    +0.000 C 
ENDBRANCH  18  20
ENDBRANCH  12  18
ENDBRANCH   1  15
TORSDOF 3
ENDMDL
MODEL 4
REMARK VINA RESULT:      -6.4     20.855     22.329
REMARK  Name = 
REMARK  3 active torsions:
REMARK  status: ('A' for Active; 'I' for Inactive)
REMARK    1  A    between atoms: C_2  and  O_3
REMARK    2  A    between atoms: O_3  and  C_4
REMARK    3  A    between atoms: C_7  and  C_8
REMARK                            x       y       z     vdW  Elec       q    Type
REMARK                         _______ _______ _______ _____ _____    ______ ____
ROOT
ATOM      1  C   UNL     1      20.436  -7.153  25.677  0.00  0.00    +0.000 A 
ATOM      2  C   UNL     1      19.857  -5.913  25.744  0.00  0.00    +0.000 A 
ATOM      3  C   UNL     1      18.761  -5.588  26.507  0.00  0.00    +0.000 A 
ATOM      4  O   UNL     1      18.224  -4.316  26.530  0.00  0.00    +0.000 OA
ATOM      5  C   UNL     1      18.180  -6.565  27.274  0.00  0.00    +0.000 A 
ATOM      6  C   UNL     1      18.747  -7.843  27.229  0.00  0.00    +0.000 A 
ATOM      7  S   UNL     1      18.409  -9.362  27.975  0.00  0.00    +0.000 S 
ATOM      8  C   UNL     1      19.676 -10.252  27.256  0.00  0.00    +0.000 A 
ATOM      9  O   UNL     1      20.009 -11.485  27.382  0.00  0.00    +0.000 OA
ATOM     10  O   UNL     1      20.250  -9.373  26.524  0.00  0.00    +0.000 OA
ATOM     11  C   UNL     1      19.839  -8.170  26.470  0.00  0.00    +0.000 A 
ENDROOT
BRANCH   1  15
ATOM     12  C   UNL     1      23.881  -7.817  23.282  0.00  0.00    +0.000 A 
ATOM     13  C   UNL     1      22.798  -8.652  23.165  0.00  0.00    +0.000 A 
ATOM     14  C   UNL     1      21.679  -8.438  23.941  0.00  0.00    +0.000 A 
ATOM     15  C   UNL     1      21.591  -7.410  24.846  0.00  0.00    +0.000 A 
ATOM     16  C   UNL     1      22.691  -6.592  24.941  0.00  0.00    +0.000 A 
ATOM     17  C   UNL     1      23.826  -6.778  24.179  0.00  0.00    +0.000 A 
BRANCH  12  18
ATOM     18  O   UNL     1      25.037  -7.996  22.514  0.00  0.00    +0.000 OA
BRANCH  18  20
ATOM     19  C   UNL     1      26.687  -9.136  23.764  0.00  0.00    +0.000 C 
ATOM     20  C   UNL     1      26.301  -7.823  23.097  0.00  0.00    +0.000 C 
ENDBRANCH  18  20
ENDBRANCH  12  18
ENDBRANCH   1  15
TORSDOF 3
ENDMDL
MODEL 5
REMARK VINA RESULT:      -6.4     20.296     21.839
REMARK  Name = 
REMARK  3 active torsions:
REMARK  status: ('A' for Active; 'I' for Inactive)
REMARK    1  A    between atoms: C_2  and  O_3
REMARK    2  A    between atoms: O_3  and  C_4
REMARK    3  A    between atoms: C_7  and  C_8
REMARK                            x       y       z     vdW  Elec       q    Type
REMARK                         _______ _______ _______ _____ _____    ______ ____
ROOT
ATOM      1  C   UNL     1      26.137   5.007  17.810  0.00  0.00    +0.000 A 
ATOM      2  C   UNL     1      26.872   5.384  18.904  0.00  0.00    +0.000 A 
ATOM      3  C   UNL     1      27.845   6.354  18.911  0.00  0.00    +0.000 A 
ATOM      4  O   UNL     1      28.552   6.688  20.050  0.00  0.00    +0.000 OA
ATOM      5  C   UNL     1      28.123   7.017  17.743  0.00  0.00    +0.000 A 
ATOM      6  C   UNL     1      27.392   6.656  16.607  0.00  0.00    +0.000 A 
ATOM      7  S   UNL     1      27.357   7.163  14.958  0.00  0.00    +0.000 S 
ATOM      8  C   UNL     1      26.127   6.107  14.424  0.00  0.00    +0.000 A 
ATOM      9  O   UNL     1      25.597   5.957  13.265  0.00  0.00    +0.000 OA
ATOM     10  O   UNL     1      25.833   5.464  15.491  0.00  0.00    +0.000 OA
ATOM     11  C   UNL     1      26.421   5.690  16.596  0.00  0.00    +0.000 A 
ENDROOT
BRANCH   1  15
ATOM     12  C   UNL     1      23.100   2.050  18.069  0.00  0.00    +0.000 A 
ATOM     13  C   UNL     1      24.388   1.680  17.770  0.00  0.00    +0.000 A 
ATOM     14  C   UNL     1      25.374   2.638  17.685  0.00  0.00    +0.000 A 
ATOM     15  C   UNL     1      25.130   3.973  17.890  0.00  0.00    +0.000 A 
ATOM     16  C   UNL     1      23.832   4.312  18.187  0.00  0.00    +0.000 A 
ATOM     17  C   UNL     1      22.821   3.378  18.279  0.00  0.00    +0.000 A 
BRANCH  12  18
ATOM     18  O   UNL     1      22.067   1.111  18.165  0.00  0.00    +0.000 OA
BRANCH  18  20
ATOM     19  C   UNL     1      21.060   0.941  16.034  0.00  0.00    +0.000 C 
ATOM     20  C   UNL     1      20.855   1.328  17.492  0.00  0.00    +0.000 C 
ENDBRANCH  18  20
ENDBRANCH  12  18
ENDBRANCH   1  15
TORSDOF 3
ENDMDL
MODEL 6
REMARK VINA RESULT:      -6.3     17.599     20.036
REMARK  Name = 
REMARK  3 active torsions:
REMARK  status: ('A' for Active; 'I' for Inactive)
REMARK    1  A    between atoms: C_2  and  O_3
REMARK    2  A    between atoms: O_3  and  C_4
REMARK    3  A    between atoms: C_7  and  C_8
REMARK                            x       y       z     vdW  Elec       q    Type
REMARK                         _______ _______ _______ _____ _____    ______ ____
ROOT
ATOM      1  C   UNL     1      26.874  23.742  25.368  0.00  0.00    +0.000 A 
ATOM      2  C   UNL     1      25.942  23.227  24.505  0.00  0.00    +0.000 A 
ATOM      3  C   UNL     1      26.057  23.201  23.136  0.00  0.00    +0.000 A 
ATOM      4  O   UNL     1      25.079  22.667  22.319  0.00  0.00    +0.000 OA
ATOM      5  C   UNL     1      27.186  23.724  22.559  0.00  0.00    +0.000 A 
ATOM      6  C   UNL     1      28.157  24.258  23.412  0.00  0.00    +0.000 A 
ATOM      7  S   UNL     1      29.698  25.007  23.200  0.00  0.00    +0.000 S 
ATOM      8  C   UNL     1      30.043  25.279  24.850  0.00  0.00    +0.000 A 
ATOM      9  O   UNL     1      31.063  25.817  25.414  0.00  0.00    +0.000 OA
ATOM     10  O   UNL     1      29.008  24.801  25.431  0.00  0.00    +0.000 OA
ATOM     11  C   UNL     1      28.047  24.286  24.777  0.00  0.00    +0.000 A 
ENDROOT
BRANCH   1  15
ATOM     12  C   UNL     1      26.209  23.789  29.562  0.00  0.00    +0.000 A 
ATOM     13  C   UNL     1      27.118  22.912  29.026  0.00  0.00    +0.000 A 
ATOM     14  C   UNL     1      27.335  22.895  27.665  0.00  0.00    +0.000 A 
ATOM     15  C   UNL     1      26.674  23.729  26.800  0.00  0.00    +0.000 A 
ATOM     16  C   UNL     1      25.771  24.596  27.366  0.00  0.00    +0.000 A 
ATOM     17  C   UNL     1      25.530  24.638  28.723  0.00  0.00    +0.000 A 
BRANCH  12  18
ATOM     18  O   UNL     1      25.956  23.841  30.938  0.00  0.00    +0.000 OA
BRANCH  18  20
ATOM     19  C   UNL     1      27.666  25.246  31.766  0.00  0.00    +0.000 C 
ATOM     20  C   UNL     1      26.163  25.035  31.645  0.00  0.00    +0.000 C 
ENDBRANCH  18  20
ENDBRANCH  12  18
ENDBRANCH   1  15
TORSDOF 3
ENDMDL
MODEL 7
REMARK VINA RESULT:      -6.3     18.751     21.403
REMARK  Name = 
REMARK  3 active torsions:
REMARK  status: ('A' for Active; 'I' for Inactive)
REMARK    1  A    between atoms: C_2  and  O_3
REMARK    2  A    between atoms: O_3  and  C_4
REMARK    3  A    between atoms: C_7  and  C_8
REMARK                            x       y       z     vdW  Elec       q    Type
REMARK                         _______ _______ _______ _____ _____    ______ ____
ROOT
ATOM      1  C   UNL     1      29.358  23.677  24.690  0.00  0.00    +0.000 A 
ATOM      2  C   UNL     1      29.838  23.799  23.413  0.00  0.00    +0.000 A 
ATOM      3  C   UNL     1      29.080  24.094  22.305  0.00  0.00    +0.000 A 
ATOM      4  O   UNL     1      29.626  24.203  21.040  0.00  0.00    +0.000 OA
ATOM      5  C   UNL     1      27.732  24.289  22.462  0.00  0.00    +0.000 A 
ATOM      6  C   UNL     1      27.209  24.172  23.754  0.00  0.00    +0.000 A 
ATOM      7  S   UNL     1      25.642  24.316  24.461  0.00  0.00    +0.000 S 
ATOM      8  C   UNL     1      26.093  23.990  26.075  0.00  0.00    +0.000 A 
ATOM      9  O   UNL     1      25.389  23.938  27.147  0.00  0.00    +0.000 OA
ATOM     10  O   UNL     1      27.355  23.801  25.976  0.00  0.00    +0.000 OA
ATOM     11  C   UNL     1      27.961  23.877  24.860  0.00  0.00    +0.000 A 
ENDROOT
BRANCH   1  15
ATOM     12  C   UNL     1      31.964  22.851  27.941  0.00  0.00    +0.000 A 
ATOM     13  C   UNL     1      30.993  21.944  27.599  0.00  0.00    +0.000 A 
ATOM     14  C   UNL     1      30.146  22.211  26.545  0.00  0.00    +0.000 A 
ATOM     15  C   UNL     1      30.227  23.362  25.802  0.00  0.00    +0.000 A 
ATOM     16  C   UNL     1      31.209  24.250  26.169  0.00  0.00    +0.000 A 
ATOM     17  C   UNL     1      32.072  24.014  27.218  0.00  0.00    +0.000 A 
BRANCH  12  18
ATOM     18  O   UNL     1      32.845  22.623  29.004  0.00  0.00    +0.000 OA
BRANCH  18  20
ATOM     19  C   UNL     1      33.801  21.499  30.850  0.00  0.00    +0.000 C 
ATOM     20  C   UNL     1      32.800  21.409  29.705  0.00  0.00    +0.000 C 
ENDBRANCH  18  20
ENDBRANCH  12  18
ENDBRANCH   1  15
TORSDOF 3
ENDMDL
MODEL 8
REMARK VINA RESULT:      -6.1     20.655     22.213
REMARK  Name = 
REMARK  3 active torsions:
REMARK  status: ('A' for Active; 'I' for Inactive)
REMARK    1  A    between atoms: C_2  and  O_3
REMARK    2  A    between atoms: O_3  and  C_4
REMARK    3  A    between atoms: C_7  and  C_8
REMARK                            x       y       z     vdW  Elec       q    Type
REMARK                         _______ _______ _______ _____ _____    ______ ____
ROOT
ATOM      1  C   UNL     1      18.646  -7.900  27.249  0.00  0.00    +0.000 A 
ATOM      2  C   UNL     1      18.176  -6.613  27.215  0.00  0.00    +0.000 A 
ATOM      3  C   UNL     1      18.751  -5.577  26.519  0.00  0.00    +0.000 A 
ATOM      4  O   UNL     1      18.227  -4.298  26.524  0.00  0.00    +0.000 OA
ATOM      5  C   UNL     1      19.886  -5.822  25.790  0.00  0.00    +0.000 A 
ATOM      6  C   UNL     1      20.393  -7.126  25.805  0.00  0.00    +0.000 A 
ATOM      7  S   UNL     1      21.741  -7.927  25.084  0.00  0.00    +0.000 S 
ATOM      8  C   UNL     1      21.450  -9.481  25.728  0.00  0.00    +0.000 A 
ATOM      9  O   UNL     1      22.096 -10.581  25.586  0.00  0.00    +0.000 OA
ATOM     10  O   UNL     1      20.389  -9.298  26.421  0.00  0.00    +0.000 OA
ATOM     11  C   UNL     1      19.823  -8.162  26.497  0.00  0.00    +0.000 A 
ENDROOT
BRANCH   1  15
ATOM     12  C   UNL     1      16.750 -10.909  29.572  0.00  0.00    +0.000 A 
ATOM     13  C   UNL     1      16.363 -10.706  28.271  0.00  0.00    +0.000 A 
ATOM     14  C   UNL     1      16.976  -9.730  27.517  0.00  0.00    +0.000 A 
ATOM     15  C   UNL     1      17.978  -8.933  28.010  0.00  0.00    +0.000 A 
ATOM     16  C   UNL     1      18.344  -9.159  29.314  0.00  0.00    +0.000 A 
ATOM     17  C   UNL     1      17.751 -10.128  30.098  0.00  0.00    +0.000 A 
BRANCH  12  18
ATOM     18  O   UNL     1      16.155 -11.888  30.376  0.00  0.00    +0.000 OA
BRANCH  18  20
ATOM     19  C   UNL     1      14.352 -10.991  31.612  0.00  0.00    +0.000 C 
ATOM     20  C   UNL     1      15.756 -11.576  31.684  0.00  0.00    +0.000 C 
ENDBRANCH  18  20
ENDBRANCH  12  18
ENDBRANCH   1  15
TORSDOF 3
ENDMDL
MODEL 9
REMARK VINA RESULT:      -6.1     18.783     21.414
REMARK  Name = 
REMARK  3 active torsions:
REMARK  status: ('A' for Active; 'I' for Inactive)
REMARK    1  A    between atoms: C_2  and  O_3
REMARK    2  A    between atoms: O_3  and  C_4
REMARK    3  A    between atoms: C_7  and  C_8
REMARK                            x       y       z     vdW  Elec       q    Type
REMARK                         _______ _______ _______ _____ _____    ______ ____
ROOT
ATOM      1  C   UNL     1      28.057  23.820  24.581  0.00  0.00    +0.000 A 
ATOM      2  C   UNL     1      27.392  23.415  23.453  0.00  0.00    +0.000 A 
ATOM      3  C   UNL     1      26.032  23.253  23.349  0.00  0.00    +0.000 A 
ATOM      4  O   UNL     1      25.420  22.841  22.181  0.00  0.00    +0.000 OA
ATOM      5  C   UNL     1      25.252  23.511  24.448  0.00  0.00    +0.000 A 
ATOM      6  C   UNL     1      25.900  23.926  25.616  0.00  0.00    +0.000 A 
ATOM      7  S   UNL     1      25.398  24.361  27.209  0.00  0.00    +0.000 S 
ATOM      8  C   UNL     1      26.945  24.702  27.846  0.00  0.00    +0.000 A 
ATOM      9  O   UNL     1      27.301  25.091  29.016  0.00  0.00    +0.000 OA
ATOM     10  O   UNL     1      27.711  24.473  26.847  0.00  0.00    +0.000 OA
ATOM     11  C   UNL     1      27.255  24.089  25.723  0.00  0.00    +0.000 A 
ENDROOT
BRANCH   1  15
ATOM     12  C   UNL     1      32.293  24.135  24.645  0.00  0.00    +0.000 A 
ATOM     13  C   UNL     1      31.524  25.271  24.689  0.00  0.00    +0.000 A 
ATOM     14  C   UNL     1      30.150  25.171  24.668  0.00  0.00    +0.000 A 
ATOM     15  C   UNL     1      29.496  23.966  24.604  0.00  0.00    +0.000 A 
ATOM     16  C   UNL     1      30.292  22.847  24.562  0.00  0.00    +0.000 A 
ATOM     17  C   UNL     1      31.670  22.912  24.581  0.00  0.00    +0.000 A 
BRANCH  12  18
ATOM     18  O   UNL     1      33.691  24.189  24.664  0.00  0.00    +0.000 OA
BRANCH  18  20
ATOM     19  C   UNL     1      35.064  25.565  26.007  0.00  0.00    +0.000 C 
ATOM     20  C   UNL     1      34.346  25.429  24.671  0.00  0.00    +0.000 C 
ENDBRANCH  18  20
ENDBRANCH  12  18
ENDBRANCH   1  15
TORSDOF 3
ENDMDL
MODEL 10
REMARK VINA RESULT:      -6.0     20.241     23.497
REMARK  Name = 
REMARK  3 active torsions:
REMARK  status: ('A' for Active; 'I' for Inactive)
REMARK    1  A    between atoms: C_2  and  O_3
REMARK    2  A    between atoms: O_3  and  C_4
REMARK    3  A    between atoms: C_7  and  C_8
REMARK                            x       y       z     vdW  Elec       q    Type
REMARK                         _______ _______ _______ _____ _____    ______ ____
ROOT
ATOM      1  C   UNL     1      30.753  24.023  24.974  0.00  0.00    +0.000 A 
ATOM      2  C   UNL     1      30.254  23.462  26.120  0.00  0.00    +0.000 A 
ATOM      3  C   UNL     1      29.018  22.872  26.242  0.00  0.00    +0.000 A 
ATOM      4  O   UNL     1      28.572  22.323  27.429  0.00  0.00    +0.000 OA
ATOM      5  C   UNL     1      28.199  22.826  25.143  0.00  0.00    +0.000 A 
ATOM      6  C   UNL     1      28.679  23.391  23.957  0.00  0.00    +0.000 A 
ATOM      7  S   UNL     1      28.066  23.586  22.355  0.00  0.00    +0.000 S 
ATOM      8  C   UNL     1      29.420  24.388  21.693  0.00  0.00    +0.000 A 
ATOM      9  O   UNL     1      29.633  24.831  20.508  0.00  0.00    +0.000 OA
ATOM     10  O   UNL     1      30.218  24.452  22.692  0.00  0.00    +0.000 OA
ATOM     11  C   UNL     1      29.909  23.979  23.831  0.00  0.00    +0.000 A 
ENDROOT
BRANCH   1  15
ATOM     12  C   UNL     1      34.657  25.689  24.823  0.00  0.00    +0.000 A 
ATOM     13  C   UNL     1      33.588  26.487  25.144  0.00  0.00    +0.000 A 
ATOM     14  C   UNL     1      32.320  25.948  25.192  0.00  0.00    +0.000 A 
ATOM     15  C   UNL     1      32.068  24.624  24.932  0.00  0.00    +0.000 A 
ATOM     16  C   UNL     1      33.158  23.851  24.615  0.00  0.00    +0.000 A 
ATOM     17  C   UNL     1      34.440  24.359  24.557  0.00  0.00    +0.000 A 
BRANCH  12  18
ATOM     18  O   UNL     1      35.962  26.193  24.762  0.00  0.00    +0.000 OA
BRANCH  18  20
ATOM     19  C   UNL     1      36.931  25.869  26.892  0.00  0.00    +0.000 C 
ATOM     20  C   UNL     1      37.007  25.520  25.412  0.00  0.00    +0.000 C 
ENDBRANCH  18  20
ENDBRANCH  12  18
ENDBRANCH   1  15
TORSDOF 3
ENDMDL
