MODEL 1
REMARK VINA RESULT:      -7.3      0.000      0.000
REMARK  Name = 
REMARK  6 active torsions:
REMARK  status: ('A' for Active; 'I' for Inactive)
REMARK    1  A    between atoms: C_2  and  O_3
REMARK    2  A    between atoms: O_3  and  C_4
REMARK    3  A    between atoms: C_7  and  C_8
REMARK    4  A    between atoms: C_17  and  N_18
REMARK    5  A    between atoms: N_18  and  C_19
REMARK    6  A    between atoms: C_27  and  C_28
REMARK                            x       y       z     vdW  Elec       q    Type
REMARK                         _______ _______ _______ _____ _____    ______ ____
ROOT
ATOM      1  C   UNL     1      38.869  -0.473  14.967  0.00  0.00    +0.000 C 
ATOM      2  O   UNL     1      38.679  -0.747  16.214  0.00  0.00    +0.000 OA
ATOM      3  N   UNL     1      38.062   0.538  14.482  0.00  0.00    +0.000 N 
ATOM      4  C   UNL     1      36.925   1.035  15.131  0.00  0.00    +0.000 A 
ATOM      5  C   UNL     1      36.584   0.337  16.310  0.00  0.00    +0.000 A 
ATOM      6  C   UNL     1      35.470   0.678  17.043  0.00  0.00    +0.000 A 
ATOM      7  C   UNL     1      34.685   1.723  16.603  0.00  0.00    +0.000 A 
ATOM      8  C   UNL     1      35.020   2.408  15.446  0.00  0.00    +0.000 A 
ATOM      9  C   UNL     1      36.151   2.017  14.757  0.00  0.00    +0.000 A 
ATOM     10  C   UNL     1      36.469   2.878  13.445  0.00  0.00    +0.000 C 
ATOM     11  C   UNL     1      38.174   2.897  13.600  0.00  0.00    +0.000 C 
ATOM     12  C   UNL     1      38.332   2.911  15.170  0.00  0.00    +0.000 C 
ATOM     13  C   UNL     1      38.311   1.271  13.168  0.00  0.00    +0.000 C 
ENDROOT
BRANCH   1  17
ATOM     14  C   UNL     1      41.760  -2.862  12.892  0.00  0.00    +0.000 A 
ATOM     15  C   UNL     1      40.429  -2.876  12.543  0.00  0.00    +0.000 A 
ATOM     16  C   UNL     1      39.537  -2.111  13.240  0.00  0.00    +0.000 A 
ATOM     17  C   UNL     1      39.883  -1.284  14.323  0.00  0.00    +0.000 A 
ATOM     18  C   UNL     1      41.221  -1.299  14.638  0.00  0.00    +0.000 A 
ATOM     19  C   UNL     1      42.139  -2.056  13.957  0.00  0.00    +0.000 A 
BRANCH  14  20
ATOM     20  O   UNL     1      42.662  -3.631  12.190  0.00  0.00    +0.000 OA
BRANCH  20  22
ATOM     21  C   UNL     1      44.985  -3.982  12.387  0.00  0.00    +0.000 C 
ATOM     22  C   UNL     1      43.916  -3.109  11.805  0.00  0.00    +0.000 C 
ENDBRANCH  20  22
ENDBRANCH  14  20
ENDBRANCH   1  17
BRANCH  13  23
ATOM     23  C   UNL     1      39.963   1.333  13.229  0.00  0.00    +0.000 C 
ATOM     24  C   UNL     1      40.495   1.370  11.871  0.00  0.00    +0.000 C 
ENDBRANCH  13  23
BRANCH  10  25
ATOM     25  N   UNL     1      36.352   4.267  14.185  0.00  0.00    +0.000 NA
BRANCH  25  26
ATOM     26  C   UNL     1      35.584   5.241  13.552  0.00  0.00    +0.000 A 
ATOM     27  C   UNL     1      35.901   5.585  12.255  0.00  0.00    +0.000 A 
ATOM     28  C   UNL     1      35.143   6.544  11.636  0.00  0.00    +0.000 A 
ATOM     29  C   UNL     1      34.106   7.142  12.280  0.00  0.00    +0.000 A 
ATOM     30  C   UNL     1      33.778   6.807  13.578  0.00  0.00    +0.000 A 
ATOM     31  C   UNL     1      34.550   5.838  14.194  0.00  0.00    +0.000 A 
ENDBRANCH  25  26
ENDBRANCH  10  25
TORSDOF 6
ENDMDL
MODEL 2
REMARK VINA RESULT:      -6.8      2.752      8.635
REMARK  Name = 
REMARK  6 active torsions:
REMARK  status: ('A' for Active; 'I' for Inactive)
REMARK    1  A    between atoms: C_2  and  O_3
REMARK    2  A    between atoms: O_3  and  C_4
REMARK    3  A    between atoms: C_7  and  C_8
REMARK    4  A    between atoms: C_17  and  N_18
REMARK    5  A    between atoms: N_18  and  C_19
REMARK    6  A    between atoms: C_27  and  C_28
REMARK                            x       y       z     vdW  Elec       q    Type
REMARK                         _______ _______ _______ _____ _____    ______ ____
ROOT
ATOM      1  C   UNL     1      35.564   4.128  14.594  0.00  0.00    +0.000 C 
ATOM      2  O   UNL     1      34.383   3.818  15.010  0.00  0.00    +0.000 OA
ATOM      3  N   UNL     1      36.477   3.095  14.666  0.00  0.00    +0.000 N 
ATOM      4  C   UNL     1      36.293   1.913  15.393  0.00  0.00    +0.000 A 
ATOM      5  C   UNL     1      35.110   1.891  16.163  0.00  0.00    +0.000 A 
ATOM      6  C   UNL     1      34.802   0.815  16.965  0.00  0.00    +0.000 A 
ATOM      7  C   UNL     1      35.675  -0.251  17.004  0.00  0.00    +0.000 A 
ATOM      8  C   UNL     1      36.836  -0.229  16.248  0.00  0.00    +0.000 A 
ATOM      9  C   UNL     1      37.087   0.879  15.464  0.00  0.00    +0.000 A 
ATOM     10  C   UNL     1      38.440   0.807  14.611  0.00  0.00    +0.000 C 
ATOM     11  C   UNL     1      37.854   1.576  13.198  0.00  0.00    +0.000 C 
ATOM     12  C   UNL     1      36.352   1.094  13.196  0.00  0.00    +0.000 C 
ATOM     13  C   UNL     1      37.820   3.091  13.940  0.00  0.00    +0.000 C 
ENDROOT
BRANCH   1  17
ATOM     14  C   UNL     1      35.765   8.181  13.212  0.00  0.00    +0.000 A 
ATOM     15  C   UNL     1      34.841   7.292  12.709  0.00  0.00    +0.000 A 
ATOM     16  C   UNL     1      34.821   6.005  13.165  0.00  0.00    +0.000 A 
ATOM     17  C   UNL     1      35.699   5.498  14.141  0.00  0.00    +0.000 A 
ATOM     18  C   UNL     1      36.603   6.418  14.616  0.00  0.00    +0.000 A 
ATOM     19  C   UNL     1      36.648   7.716  14.177  0.00  0.00    +0.000 A 
BRANCH  14  20
ATOM     20  O   UNL     1      35.788   9.480  12.754  0.00  0.00    +0.000 OA
BRANCH  20  22
ATOM     21  C   UNL     1      34.047  10.978  13.283  0.00  0.00    +0.000 C 
ATOM     22  C   UNL     1      34.625  10.084  12.229  0.00  0.00    +0.000 C 
ENDBRANCH  20  22
ENDBRANCH  14  20
ENDBRANCH   1  17
BRANCH  13  23
ATOM     23  C   UNL     1      37.346   3.832  12.540  0.00  0.00    +0.000 C 
ATOM     24  C   UNL     1      38.505   4.446  11.902  0.00  0.00    +0.000 C 
ENDBRANCH  13  23
BRANCH  10  25
ATOM     25  N   UNL     1      38.124  -0.617  14.009  0.00  0.00    +0.000 NA
BRANCH  25  26
ATOM     26  C   UNL     1      39.217  -1.453  13.792  0.00  0.00    +0.000 A 
ATOM     27  C   UNL     1      40.117  -1.635  14.821  0.00  0.00    +0.000 A 
ATOM     28  C   UNL     1      41.190  -2.457  14.604  0.00  0.00    +0.000 A 
ATOM     29  C   UNL     1      41.367  -3.079  13.408  0.00  0.00    +0.000 A 
ATOM     30  C   UNL     1      40.474  -2.906  12.370  0.00  0.00    +0.000 A 
ATOM     31  C   UNL     1      39.394  -2.072  12.599  0.00  0.00    +0.000 A 
ENDBRANCH  25  26
ENDBRANCH  10  25
TORSDOF 6
ENDMDL
MODEL 3
REMARK VINA RESULT:      -6.7      3.907      5.512
REMARK  Name = 
REMARK  6 active torsions:
REMARK  status: ('A' for Active; 'I' for Inactive)
REMARK    1  A    between atoms: C_2  and  O_3
REMARK    2  A    between atoms: O_3  and  C_4
REMARK    3  A    between atoms: C_7  and  C_8
REMARK    4  A    between atoms: C_17  and  N_18
REMARK    5  A    between atoms: N_18  and  C_19
REMARK    6  A    between atoms: C_27  and  C_28
REMARK                            x       y       z     vdW  Elec       q    Type
REMARK                         _______ _______ _______ _____ _____    ______ ____
ROOT
ATOM      1  C   UNL     1      37.449   1.209  11.953  0.00  0.00    +0.000 C 
ATOM      2  O   UNL     1      37.306  -0.012  12.346  0.00  0.00    +0.000 OA
ATOM      3  N   UNL     1      37.404   2.139  12.973  0.00  0.00    +0.000 N 
ATOM      4  C   UNL     1      36.942   1.883  14.270  0.00  0.00    +0.000 A 
ATOM      5  C   UNL     1      36.406   0.589  14.444  0.00  0.00    +0.000 A 
ATOM      6  C   UNL     1      35.875   0.195  15.651  0.00  0.00    +0.000 A 
ATOM      7  C   UNL     1      35.874   1.092  16.698  0.00  0.00    +0.000 A 
ATOM      8  C   UNL     1      36.401   2.363  16.526  0.00  0.00    +0.000 A 
ATOM      9  C   UNL     1      36.920   2.697  15.291  0.00  0.00    +0.000 A 
ATOM     10  C   UNL     1      37.523   4.176  15.193  0.00  0.00    +0.000 C 
ATOM     11  C   UNL     1      38.857   3.806  14.185  0.00  0.00    +0.000 C 
ATOM     12  C   UNL     1      39.206   2.347  14.674  0.00  0.00    +0.000 C 
ATOM     13  C   UNL     1      37.874   3.584  12.831  0.00  0.00    +0.000 C 
ENDROOT
BRANCH   1  17
ATOM     14  C   UNL     1      38.065   1.491   7.721  0.00  0.00    +0.000 A 
ATOM     15  C   UNL     1      38.988   0.886   8.545  0.00  0.00    +0.000 A 
ATOM     16  C   UNL     1      38.760   0.831   9.891  0.00  0.00    +0.000 A 
ATOM     17  C   UNL     1      37.620   1.362  10.522  0.00  0.00    +0.000 A 
ATOM     18  C   UNL     1      36.726   1.955   9.663  0.00  0.00    +0.000 A 
ATOM     19  C   UNL     1      36.927   2.025   8.309  0.00  0.00    +0.000 A 
BRANCH  14  20
ATOM     20  O   UNL     1      38.292   1.547   6.363  0.00  0.00    +0.000 OA
BRANCH  20  22
ATOM     21  C   UNL     1      37.116  -0.259   5.410  0.00  0.00    +0.000 C 
ATOM     22  C   UNL     1      37.269   1.230   5.443  0.00  0.00    +0.000 C 
ENDBRANCH  20  22
ENDBRANCH  14  20
ENDBRANCH   1  17
BRANCH  13  23
ATOM     23  C   UNL     1      39.181   3.324  11.852  0.00  0.00    +0.000 C 
ATOM     24  C   UNL     1      39.445   4.526  11.069  0.00  0.00    +0.000 C 
ENDBRANCH  13  23
BRANCH  10  25
ATOM     25  N   UNL     1      38.415   4.026  16.486  0.00  0.00    +0.000 NA
BRANCH  25  26
ATOM     26  C   UNL     1      38.572   5.170  17.265  0.00  0.00    +0.000 A 
ATOM     27  C   UNL     1      39.148   5.039  18.511  0.00  0.00    +0.000 A 
ATOM     28  C   UNL     1      39.301   6.166  19.275  0.00  0.00    +0.000 A 
ATOM     29  C   UNL     1      38.898   7.382  18.819  0.00  0.00    +0.000 A 
ATOM     30  C   UNL     1      38.321   7.527  17.574  0.00  0.00    +0.000 A 
ATOM     31  C   UNL     1      38.170   6.382  16.811  0.00  0.00    +0.000 A 
ENDBRANCH  25  26
ENDBRANCH  10  25
TORSDOF 6
ENDMDL
MODEL 4
REMARK VINA RESULT:      -6.6      3.101      9.131
REMARK  Name = 
REMARK  6 active torsions:
REMARK  status: ('A' for Active; 'I' for Inactive)
REMARK    1  A    between atoms: C_2  and  O_3
REMARK    2  A    between atoms: O_3  and  C_4
REMARK    3  A    between atoms: C_7  and  C_8
REMARK    4  A    between atoms: C_17  and  N_18
REMARK    5  A    between atoms: N_18  and  C_19
REMARK    6  A    between atoms: C_27  and  C_28
REMARK                            x       y       z     vdW  Elec       q    Type
REMARK                         _______ _______ _______ _____ _____    ______ ____
ROOT
ATOM      1  C   UNL     1      36.720   4.880  12.952  0.00  0.00    +0.000 C 
ATOM      2  O   UNL     1      37.220   5.067  11.777  0.00  0.00    +0.000 OA
ATOM      3  N   UNL     1      36.972   3.629  13.481  0.00  0.00    +0.000 N 
ATOM      4  C   UNL     1      37.438   2.530  12.749  0.00  0.00    +0.000 A 
ATOM      5  C   UNL     1      37.538   2.765  11.360  0.00  0.00    +0.000 A 
ATOM      6  C   UNL     1      37.945   1.772  10.498  0.00  0.00    +0.000 A 
ATOM      7  C   UNL     1      38.256   0.533  11.016  0.00  0.00    +0.000 A 
ATOM      8  C   UNL     1      38.158   0.304  12.379  0.00  0.00    +0.000 A 
ATOM      9  C   UNL     1      37.745   1.341  13.191  0.00  0.00    +0.000 A 
ATOM     10  C   UNL     1      37.681   0.989  14.752  0.00  0.00    +0.000 C 
ATOM     11  C   UNL     1      38.239   2.496  15.343  0.00  0.00    +0.000 C 
ATOM     12  C   UNL     1      39.242   2.913  14.199  0.00  0.00    +0.000 C 
ATOM     13  C   UNL     1      36.793   3.274  14.954  0.00  0.00    +0.000 C 
ENDROOT
BRANCH   1  17
ATOM     14  C   UNL     1      34.424   8.107  14.591  0.00  0.00    +0.000 A 
ATOM     15  C   UNL     1      33.836   6.917  14.226  0.00  0.00    +0.000 A 
ATOM     16  C   UNL     1      34.602   5.919  13.693  0.00  0.00    +0.000 A 
ATOM     17  C   UNL     1      35.989   6.015  13.480  0.00  0.00    +0.000 A 
ATOM     18  C   UNL     1      36.534   7.219  13.858  0.00  0.00    +0.000 A 
ATOM     19  C   UNL     1      35.792   8.238  14.395  0.00  0.00    +0.000 A 
BRANCH  14  20
ATOM     20  O   UNL     1      33.654   9.116  15.130  0.00  0.00    +0.000 OA
BRANCH  20  22
ATOM     21  C   UNL     1      34.045   9.807  17.349  0.00  0.00    +0.000 C 
ATOM     22  C   UNL     1      33.149   9.018  16.444  0.00  0.00    +0.000 C 
ENDBRANCH  20  22
ENDBRANCH  14  20
ENDBRANCH   1  17
BRANCH  13  23
ATOM     23  C   UNL     1      37.312   4.697  15.616  0.00  0.00    +0.000 C 
ATOM     24  C   UNL     1      37.861   4.441  16.943  0.00  0.00    +0.000 C 
ENDBRANCH  13  23
BRANCH  10  25
ATOM     25  N   UNL     1      39.141   0.392  14.798  0.00  0.00    +0.000 NA
BRANCH  25  26
ATOM     26  C   UNL     1      39.265  -0.900  15.303  0.00  0.00    +0.000 A 
ATOM     27  C   UNL     1      40.293  -1.691  14.834  0.00  0.00    +0.000 A 
ATOM     28  C   UNL     1      40.413  -2.961  15.332  0.00  0.00    +0.000 A 
ATOM     29  C   UNL     1      39.542  -3.433  16.264  0.00  0.00    +0.000 A 
ATOM     30  C   UNL     1      38.510  -2.652  16.743  0.00  0.00    +0.000 A 
ATOM     31  C   UNL     1      38.398  -1.371  16.232  0.00  0.00    +0.000 A 
ENDBRANCH  25  26
ENDBRANCH  10  25
TORSDOF 6
ENDMDL
MODEL 5
REMARK VINA RESULT:      -6.5      2.515      4.394
REMARK  Name = 
REMARK  6 active torsions:
REMARK  status: ('A' for Active; 'I' for Inactive)
REMARK    1  A    between atoms: C_2  and  O_3
REMARK    2  A    between atoms: O_3  and  C_4
REMARK    3  A    between atoms: C_7  and  C_8
REMARK    4  A    between atoms: C_17  and  N_18
REMARK    5  A    between atoms: N_18  and  C_19
REMARK    6  A    between atoms: C_27  and  C_28
REMARK                            x       y       z     vdW  Elec       q    Type
REMARK                         _______ _______ _______ _____ _____    ______ ____
ROOT
ATOM      1  C   UNL     1      41.137  -2.510  12.416  0.00  0.00    +0.000 C 
ATOM      2  O   UNL     1      41.874  -3.021  13.343  0.00  0.00    +0.000 OA
ATOM      3  N   UNL     1      40.018  -1.849  12.885  0.00  0.00    +0.000 N 
ATOM      4  C   UNL     1      39.512  -1.956  14.186  0.00  0.00    +0.000 A 
ATOM      5  C   UNL     1      40.186  -2.901  14.989  0.00  0.00    +0.000 A 
ATOM      6  C   UNL     1      39.785  -3.152  16.282  0.00  0.00    +0.000 A 
ATOM      7  C   UNL     1      38.705  -2.458  16.785  0.00  0.00    +0.000 A 
ATOM      8  C   UNL     1      38.044  -1.530  15.996  0.00  0.00    +0.000 A 
ATOM      9  C   UNL     1      38.496  -1.324  14.708  0.00  0.00    +0.000 A 
ATOM     10  C   UNL     1      37.684  -0.221  13.879  0.00  0.00    +0.000 C 
ATOM     11  C   UNL     1      39.018   0.459  13.049  0.00  0.00    +0.000 C 
ATOM     12  C   UNL     1      40.156   0.299  14.128  0.00  0.00    +0.000 C 
ATOM     13  C   UNL     1      39.181  -0.887  12.045  0.00  0.00    +0.000 C 
ENDROOT
BRANCH   1  17
ATOM     14  C   UNL     1      42.388  -3.165   8.369  0.00  0.00    +0.000 A 
ATOM     15  C   UNL     1      41.140  -3.547   8.809  0.00  0.00    +0.000 A 
ATOM     16  C   UNL     1      40.786  -3.333  10.111  0.00  0.00    +0.000 A 
ATOM     17  C   UNL     1      41.624  -2.736  11.070  0.00  0.00    +0.000 A 
ATOM     18  C   UNL     1      42.859  -2.371  10.589  0.00  0.00    +0.000 A 
ATOM     19  C   UNL     1      43.242  -2.572   9.288  0.00  0.00    +0.000 A 
BRANCH  14  20
ATOM     20  O   UNL     1      42.747  -3.379   7.056  0.00  0.00    +0.000 OA
BRANCH  20  22
ATOM     21  C   UNL     1      43.790  -5.491   6.999  0.00  0.00    +0.000 C 
ATOM     22  C   UNL     1      42.655  -4.664   6.479  0.00  0.00    +0.000 C 
ENDBRANCH  20  22
ENDBRANCH  14  20
ENDBRANCH   1  17
BRANCH  13  23
ATOM     23  C   UNL     1      40.406  -0.176  11.191  0.00  0.00    +0.000 C 
ATOM     24  C   UNL     1      39.883   0.326   9.925  0.00  0.00    +0.000 C 
ENDBRANCH  13  23
BRANCH  10  25
ATOM     25  N   UNL     1      37.786   0.875  15.010  0.00  0.00    +0.000 NA
BRANCH  25  26
ATOM     26  C   UNL     1      36.640   1.631  15.243  0.00  0.00    +0.000 A 
ATOM     27  C   UNL     1      36.363   2.680  14.391  0.00  0.00    +0.000 A 
ATOM     28  C   UNL     1      35.236   3.422  14.623  0.00  0.00    +0.000 A 
ATOM     29  C   UNL     1      34.410   3.136  15.665  0.00  0.00    +0.000 A 
ATOM     30  C   UNL     1      34.675   2.091  16.525  0.00  0.00    +0.000 A 
ATOM     31  C   UNL     1      35.817   1.347  16.282  0.00  0.00    +0.000 A 
ENDBRANCH  25  26
ENDBRANCH  10  25
TORSDOF 6
ENDMDL
MODEL 6
REMARK VINA RESULT:      -6.5     26.674     28.616
REMARK  Name = 
REMARK  6 active torsions:
REMARK  status: ('A' for Active; 'I' for Inactive)
REMARK    1  A    between atoms: C_2  and  O_3
REMARK    2  A    between atoms: O_3  and  C_4
REMARK    3  A    between atoms: C_7  and  C_8
REMARK    4  A    between atoms: C_17  and  N_18
REMARK    5  A    between atoms: N_18  and  C_19
REMARK    6  A    between atoms: C_27  and  C_28
REMARK                            x       y       z     vdW  Elec       q    Type
REMARK                         _______ _______ _______ _____ _____    ______ ____
ROOT
ATOM      1  C   UNL     1      28.542  15.574  35.298  0.00  0.00    +0.000 C 
ATOM      2  O   UNL     1      28.021  14.393  35.309  0.00  0.00    +0.000 OA
ATOM      3  N   UNL     1      27.739  16.540  34.723  0.00  0.00    +0.000 N 
ATOM      4  C   UNL     1      26.610  16.278  33.937  0.00  0.00    +0.000 A 
ATOM      5  C   UNL     1      26.399  14.908  33.673  0.00  0.00    +0.000 A 
ATOM      6  C   UNL     1      25.353  14.488  32.883  0.00  0.00    +0.000 A 
ATOM      7  C   UNL     1      24.507  15.436  32.348  0.00  0.00    +0.000 A 
ATOM      8  C   UNL     1      24.715  16.781  32.608  0.00  0.00    +0.000 A 
ATOM      9  C   UNL     1      25.781  17.137  33.409  0.00  0.00    +0.000 A 
ATOM     10  C   UNL     1      25.930  18.710  33.670  0.00  0.00    +0.000 C 
ATOM     11  C   UNL     1      26.434  18.617  35.304  0.00  0.00    +0.000 C 
ATOM     12  C   UNL     1      25.642  17.343  35.790  0.00  0.00    +0.000 C 
ATOM     13  C   UNL     1      27.963  18.041  34.883  0.00  0.00    +0.000 C 
ENDROOT
BRANCH   1  17
ATOM     14  C   UNL     1      32.408  15.646  37.147  0.00  0.00    +0.000 A 
ATOM     15  C   UNL     1      31.289  15.229  37.832  0.00  0.00    +0.000 A 
ATOM     16  C   UNL     1      30.073  15.236  37.210  0.00  0.00    +0.000 A 
ATOM     17  C   UNL     1      29.867  15.650  35.882  0.00  0.00    +0.000 A 
ATOM     18  C   UNL     1      31.009  16.058  35.235  0.00  0.00    +0.000 A 
ATOM     19  C   UNL     1      32.243  16.062  35.833  0.00  0.00    +0.000 A 
BRANCH  14  20
ATOM     20  O   UNL     1      33.637  15.640  37.771  0.00  0.00    +0.000 OA
BRANCH  20  22
ATOM     21  C   UNL     1      34.695  13.597  37.260  0.00  0.00    +0.000 C 
ATOM     22  C   UNL     1      34.770  15.088  37.136  0.00  0.00    +0.000 C 
ENDBRANCH  20  22
ENDBRANCH  14  20
ENDBRANCH   1  17
BRANCH  13  23
ATOM     23  C   UNL     1      28.465  18.049  36.459  0.00  0.00    +0.000 C 
ATOM     24  C   UNL     1      29.332  19.201  36.683  0.00  0.00    +0.000 C 
ENDBRANCH  13  23
BRANCH  10  25
ATOM     25  N   UNL     1      24.426  18.900  34.108  0.00  0.00    +0.000 NA
BRANCH  25  26
ATOM     26  C   UNL     1      23.742  19.962  33.524  0.00  0.00    +0.000 A 
ATOM     27  C   UNL     1      23.629  21.139  34.236  0.00  0.00    +0.000 A 
ATOM     28  C   UNL     1      22.954  22.182  33.659  0.00  0.00    +0.000 A 
ATOM     29  C   UNL     1      22.410  22.065  32.418  0.00  0.00    +0.000 A 
ATOM     30  C   UNL     1      22.516  20.894  31.696  0.00  0.00    +0.000 A 
ATOM     31  C   UNL     1      23.199  19.846  32.288  0.00  0.00    +0.000 A 
ENDBRANCH  25  26
ENDBRANCH  10  25
TORSDOF 6
ENDMDL
MODEL 7
REMARK VINA RESULT:      -6.5     27.141     29.248
REMARK  Name = 
REMARK  6 active torsions:
REMARK  status: ('A' for Active; 'I' for Inactive)
REMARK    1  A    between atoms: C_2  and  O_3
REMARK    2  A    between atoms: O_3  and  C_4
REMARK    3  A    between atoms: C_7  and  C_8
REMARK    4  A    between atoms: C_17  and  N_18
REMARK    5  A    between atoms: N_18  and  C_19
REMARK    6  A    between atoms: C_27  and  C_28
REMARK                            x       y       z     vdW  Elec       q    Type
REMARK                         _______ _______ _______ _____ _____    ______ ____
ROOT
ATOM      1  C   UNL     1      28.106  15.652  35.994  0.00  0.00    +0.000 C 
ATOM      2  O   UNL     1      27.612  14.461  35.933  0.00  0.00    +0.000 OA
ATOM      3  N   UNL     1      27.400  16.593  35.271  0.00  0.00    +0.000 N 
ATOM      4  C   UNL     1      26.433  16.298  34.302  0.00  0.00    +0.000 A 
ATOM      5  C   UNL     1      26.295  14.920  34.028  0.00  0.00    +0.000 A 
ATOM      6  C   UNL     1      25.413  14.468  33.073  0.00  0.00    +0.000 A 
ATOM      7  C   UNL     1      24.658  15.392  32.381  0.00  0.00    +0.000 A 
ATOM      8  C   UNL     1      24.793  16.744  32.651  0.00  0.00    +0.000 A 
ATOM      9  C   UNL     1      25.695  17.133  33.622  0.00  0.00    +0.000 A 
ATOM     10  C   UNL     1      25.768  18.711  33.878  0.00  0.00    +0.000 C 
ATOM     11  C   UNL     1      25.976  18.651  35.576  0.00  0.00    +0.000 C 
ATOM     12  C   UNL     1      25.133  17.368  35.937  0.00  0.00    +0.000 C 
ATOM     13  C   UNL     1      27.566  18.101  35.442  0.00  0.00    +0.000 C 
ENDROOT
BRANCH   1  17
ATOM     14  C   UNL     1      31.581  15.830  38.496  0.00  0.00    +0.000 A 
ATOM     15  C   UNL     1      30.361  15.418  38.985  0.00  0.00    +0.000 A 
ATOM     16  C   UNL     1      29.274  15.390  38.157  0.00  0.00    +0.000 A 
ATOM     17  C   UNL     1      29.304  15.763  36.801  0.00  0.00    +0.000 A 
ATOM     18  C   UNL     1      30.541  16.166  36.355  0.00  0.00    +0.000 A 
ATOM     19  C   UNL     1      31.649  16.204  37.162  0.00  0.00    +0.000 A 
BRANCH  14  20
ATOM     20  O   UNL     1      32.679  15.858  39.329  0.00  0.00    +0.000 OA
BRANCH  20  22
ATOM     21  C   UNL     1      34.300  14.216  38.848  0.00  0.00    +0.000 C 
ATOM     22  C   UNL     1      33.249  14.662  39.817  0.00  0.00    +0.000 C 
ENDBRANCH  20  22
ENDBRANCH  14  20
ENDBRANCH   1  17
BRANCH  13  23
ATOM     23  C   UNL     1      27.781  18.140  37.081  0.00  0.00    +0.000 C 
ATOM     24  C   UNL     1      28.517  19.347  37.442  0.00  0.00    +0.000 C 
ENDBRANCH  13  23
BRANCH  10  25
ATOM     25  N   UNL     1      24.207  18.877  34.041  0.00  0.00    +0.000 NA
BRANCH  25  26
ATOM     26  C   UNL     1      23.638  19.997  33.441  0.00  0.00    +0.000 A 
ATOM     27  C   UNL     1      23.048  19.849  32.203  0.00  0.00    +0.000 A 
ATOM     28  C   UNL     1      22.490  20.953  31.616  0.00  0.00    +0.000 A 
ATOM     29  C   UNL     1      22.514  22.164  32.234  0.00  0.00    +0.000 A 
ATOM     30  C   UNL     1      23.100  22.326  33.473  0.00  0.00    +0.000 A 
ATOM     31  C   UNL     1      23.662  21.204  34.057  0.00  0.00    +0.000 A 
ENDBRANCH  25  26
ENDBRANCH  10  25
TORSDOF 6
ENDMDL
MODEL 8
REMARK VINA RESULT:      -6.4     25.004     28.889
REMARK  Name = 
REMARK  6 active torsions:
REMARK  status: ('A' for Active; 'I' for Inactive)
REMARK    1  A    between atoms: C_2  and  O_3
REMARK    2  A    between atoms: O_3  and  C_4
REMARK    3  A    between atoms: C_7  and  C_8
REMARK    4  A    between atoms: C_17  and  N_18
REMARK    5  A    between atoms: N_18  and  C_19
REMARK    6  A    between atoms: C_27  and  C_28
REMARK                            x       y       z     vdW  Elec       q    Type
REMARK                         _______ _______ _______ _____ _____    ______ ____
ROOT
ATOM      1  C   UNL     1      19.466 -14.522  28.168  0.00  0.00    +0.000 C 
ATOM      2  O   UNL     1      18.496 -14.523  29.019  0.00  0.00    +0.000 OA
ATOM      3  N   UNL     1      20.625 -15.112  28.632  0.00  0.00    +0.000 N 
ATOM      4  C   UNL     1      20.888 -15.413  29.974  0.00  0.00    +0.000 A 
ATOM      5  C   UNL     1      19.894 -14.961  30.870  0.00  0.00    +0.000 A 
ATOM      6  C   UNL     1      20.023 -15.145  32.228  0.00  0.00    +0.000 A 
ATOM      7  C   UNL     1      21.147 -15.783  32.705  0.00  0.00    +0.000 A 
ATOM      8  C   UNL     1      22.122 -16.227  31.825  0.00  0.00    +0.000 A 
ATOM      9  C   UNL     1      21.934 -16.013  30.475  0.00  0.00    +0.000 A 
ATOM     10  C   UNL     1      23.101 -16.577  29.535  0.00  0.00    +0.000 C 
ATOM     11  C   UNL     1      22.110 -17.113  28.247  0.00  0.00    +0.000 C 
ATOM     12  C   UNL     1      20.815 -17.559  29.030  0.00  0.00    +0.000 C 
ATOM     13  C   UNL     1      21.785 -15.538  27.736  0.00  0.00    +0.000 C 
ENDROOT
BRANCH   1  17
ATOM     14  C   UNL     1      18.718 -12.599  24.411  0.00  0.00    +0.000 A 
ATOM     15  C   UNL     1      19.617 -12.084  25.318  0.00  0.00    +0.000 A 
ATOM     16  C   UNL     1      19.815 -12.720  26.511  0.00  0.00    +0.000 A 
ATOM     17  C   UNL     1      19.150 -13.897  26.899  0.00  0.00    +0.000 A 
ATOM     18  C   UNL     1      18.262 -14.376  25.965  0.00  0.00    +0.000 A 
ATOM     19  C   UNL     1      18.042 -13.761  24.760  0.00  0.00    +0.000 A 
BRANCH  14  20
ATOM     20  O   UNL     1      18.516 -11.960  23.207  0.00  0.00    +0.000 OA
BRANCH  20  22
ATOM     21  C   UNL     1      20.291 -11.407  21.758  0.00  0.00    +0.000 C 
ATOM     22  C   UNL     1      19.190 -12.383  22.040  0.00  0.00    +0.000 C 
ENDBRANCH  20  22
ENDBRANCH  14  20
ENDBRANCH   1  17
BRANCH  13  23
ATOM     23  C   UNL     1      20.909 -16.075  26.439  0.00  0.00    +0.000 C 
ATOM     24  C   UNL     1      21.707 -15.934  25.226  0.00  0.00    +0.000 C 
ENDBRANCH  13  23
BRANCH  10  25
ATOM     25  N   UNL     1      23.092 -18.015  30.186  0.00  0.00    +0.000 NA
BRANCH  25  26
ATOM     26  C   UNL     1      24.315 -18.679  30.235  0.00  0.00    +0.000 A 
ATOM     27  C   UNL     1      24.439 -19.760  31.082  0.00  0.00    +0.000 A 
ATOM     28  C   UNL     1      25.643 -20.412  31.128  0.00  0.00    +0.000 A 
ATOM     29  C   UNL     1      26.690 -20.005  30.362  0.00  0.00    +0.000 A 
ATOM     30  C   UNL     1      26.579 -18.925  29.510  0.00  0.00    +0.000 A 
ATOM     31  C   UNL     1      25.359 -18.274  29.472  0.00  0.00    +0.000 A 
ENDBRANCH  25  26
ENDBRANCH  10  25
TORSDOF 6
ENDMDL
MODEL 9
REMARK VINA RESULT:      -6.3     22.965     25.626
REMARK  Name = 
REMARK  6 active torsions:
REMARK  status: ('A' for Active; 'I' for Inactive)
REMARK    1  A    between atoms: C_2  and  O_3
REMARK    2  A    between atoms: O_3  and  C_4
REMARK    3  A    between atoms: C_7  and  C_8
REMARK    4  A    between atoms: C_17  and  N_18
REMARK    5  A    between atoms: N_18  and  C_19
REMARK    6  A    between atoms: C_27  and  C_28
REMARK                            x       y       z     vdW  Elec       q    Type
REMARK                         _______ _______ _______ _____ _____    ______ ____
ROOT
ATOM      1  C   UNL     1      15.337  -1.519   6.121  0.00  0.00    +0.000 C 
ATOM      2  O   UNL     1      14.445  -0.820   6.738  0.00  0.00    +0.000 OA
ATOM      3  N   UNL     1      15.297  -2.869   6.413  0.00  0.00    +0.000 N 
ATOM      4  C   UNL     1      14.601  -3.435   7.488  0.00  0.00    +0.000 A 
ATOM      5  C   UNL     1      14.005  -2.488   8.349  0.00  0.00    +0.000 A 
ATOM      6  C   UNL     1      13.317  -2.883   9.474  0.00  0.00    +0.000 A 
ATOM      7  C   UNL     1      13.219  -4.230   9.749  0.00  0.00    +0.000 A 
ATOM      8  C   UNL     1      13.804  -5.159   8.904  0.00  0.00    +0.000 A 
ATOM      9  C   UNL     1      14.480  -4.699   7.791  0.00  0.00    +0.000 A 
ATOM     10  C   UNL     1      15.105  -5.843   6.863  0.00  0.00    +0.000 C 
ATOM     11  C   UNL     1      14.794  -5.100   5.353  0.00  0.00    +0.000 C 
ATOM     12  C   UNL     1      13.444  -4.346   5.662  0.00  0.00    +0.000 C 
ATOM     13  C   UNL     1      15.999  -3.941   5.585  0.00  0.00    +0.000 C 
ENDROOT
BRANCH   1  17
ATOM     14  C   UNL     1      17.752   0.881   3.517  0.00  0.00    +0.000 A 
ATOM     15  C   UNL     1      16.388   0.787   3.352  0.00  0.00    +0.000 A 
ATOM     16  C   UNL     1      15.656  -0.002   4.195  0.00  0.00    +0.000 A 
ATOM     17  C   UNL     1      16.205  -0.750   5.252  0.00  0.00    +0.000 A 
ATOM     18  C   UNL     1      17.569  -0.627   5.381  0.00  0.00    +0.000 A 
ATOM     19  C   UNL     1      18.328   0.156   4.551  0.00  0.00    +0.000 A 
BRANCH  14  20
ATOM     20  O   UNL     1      18.492   1.676   2.669  0.00  0.00    +0.000 OA
BRANCH  20  22
ATOM     21  C   UNL     1      19.773   0.435   1.130  0.00  0.00    +0.000 C 
ATOM     22  C   UNL     1      19.818   1.334   2.326  0.00  0.00    +0.000 C 
ENDBRANCH  20  22
ENDBRANCH  14  20
ENDBRANCH   1  17
BRANCH  13  23
ATOM     23  C   UNL     1      15.750  -3.295   4.083  0.00  0.00    +0.000 C 
ATOM     24  C   UNL     1      15.870  -4.347   3.079  0.00  0.00    +0.000 C 
ENDBRANCH  13  23
BRANCH  10  25
ATOM     25  N   UNL     1      13.763  -6.668   6.772  0.00  0.00    +0.000 NA
BRANCH  25  26
ATOM     26  C   UNL     1      13.786  -7.949   7.319  0.00  0.00    +0.000 A 
ATOM     27  C   UNL     1      15.009  -8.557   7.512  0.00  0.00    +0.000 A 
ATOM     28  C   UNL     1      15.028  -9.816   8.050  0.00  0.00    +0.000 A 
ATOM     29  C   UNL     1      13.874 -10.452   8.386  0.00  0.00    +0.000 A 
ATOM     30  C   UNL     1      12.644  -9.855   8.200  0.00  0.00    +0.000 A 
ATOM     31  C   UNL     1      12.636  -8.583   7.655  0.00  0.00    +0.000 A 
ENDBRANCH  25  26
ENDBRANCH  10  25
TORSDOF 6
ENDMDL
MODEL 10
REMARK VINA RESULT:      -6.2     19.546     22.932
REMARK  Name = 
REMARK  6 active torsions:
REMARK  status: ('A' for Active; 'I' for Inactive)
REMARK    1  A    between atoms: C_2  and  O_3
REMARK    2  A    between atoms: O_3  and  C_4
REMARK    3  A    between atoms: C_7  and  C_8
REMARK    4  A    between atoms: C_17  and  N_18
REMARK    5  A    between atoms: N_18  and  C_19
REMARK    6  A    between atoms: C_27  and  C_28
REMARK                            x       y       z     vdW  Elec       q    Type
REMARK                         _______ _______ _______ _____ _____    ______ ____
ROOT
ATOM      1  C   UNL     1      34.541 -13.712  26.312  0.00  0.00    +0.000 C 
ATOM      2  O   UNL     1      35.749 -13.264  26.396  0.00  0.00    +0.000 OA
ATOM      3  N   UNL     1      34.174 -14.542  27.354  0.00  0.00    +0.000 N 
ATOM      4  C   UNL     1      35.064 -15.127  28.262  0.00  0.00    +0.000 A 
ATOM      5  C   UNL     1      36.424 -14.888  27.970  0.00  0.00    +0.000 A 
ATOM      6  C   UNL     1      37.425 -15.427  28.747  0.00  0.00    +0.000 A 
ATOM      7  C   UNL     1      37.074 -16.212  29.825  0.00  0.00    +0.000 A 
ATOM      8  C   UNL     1      35.739 -16.446  30.111  0.00  0.00    +0.000 A 
ATOM      9  C   UNL     1      34.783 -15.876  29.294  0.00  0.00    +0.000 A 
ATOM     10  C   UNL     1      33.269 -16.186  29.714  0.00  0.00    +0.000 C 
ATOM     11  C   UNL     1      32.615 -14.650  29.332  0.00  0.00    +0.000 C 
ATOM     12  C   UNL     1      33.836 -13.711  29.672  0.00  0.00    +0.000 C 
ATOM     13  C   UNL     1      32.731 -14.925  27.671  0.00  0.00    +0.000 C 
ENDROOT
BRANCH   1  17
ATOM     14  C   UNL     1      32.528 -12.231  22.831  0.00  0.00    +0.000 A 
ATOM     15  C   UNL     1      33.239 -11.395  23.662  0.00  0.00    +0.000 A 
ATOM     16  C   UNL     1      33.854 -11.905  24.771  0.00  0.00    +0.000 A 
ATOM     17  C   UNL     1      33.815 -13.261  25.142  0.00  0.00    +0.000 A 
ATOM     18  C   UNL     1      33.095 -14.059  24.285  0.00  0.00    +0.000 A 
ATOM     19  C   UNL     1      32.468 -13.577  23.166  0.00  0.00    +0.000 A 
BRANCH  14  20
ATOM     20  O   UNL     1      31.907 -11.719  21.711  0.00  0.00    +0.000 OA
BRANCH  20  22
ATOM     21  C   UNL     1      29.982 -12.110  20.410  0.00  0.00    +0.000 C 
ATOM     22  C   UNL     1      31.370 -12.575  20.725  0.00  0.00    +0.000 C 
ENDBRANCH  20  22
ENDBRANCH  14  20
ENDBRANCH   1  17
BRANCH  13  23
ATOM     23  C   UNL     1      32.009 -13.479  27.320  0.00  0.00    +0.000 C 
ATOM     24  C   UNL     1      30.604 -13.534  27.709  0.00  0.00    +0.000 C 
ENDBRANCH  13  23
BRANCH  10  25
ATOM     25  N   UNL     1      33.475 -15.761  31.219  0.00  0.00    +0.000 NA
BRANCH  25  26
ATOM     26  C   UNL     1      32.855 -16.559  32.177  0.00  0.00    +0.000 A 
ATOM     27  C   UNL     1      33.649 -17.318  33.012  0.00  0.00    +0.000 A 
ATOM     28  C   UNL     1      33.036 -18.102  33.952  0.00  0.00    +0.000 A 
ATOM     29  C   UNL     1      31.680 -18.135  34.063  0.00  0.00    +0.000 A 
ATOM     30  C   UNL     1      30.875 -17.380  33.235  0.00  0.00    +0.000 A 
ATOM     31  C   UNL     1      31.504 -16.592  32.287  0.00  0.00    +0.000 A 
ENDBRANCH  25  26
ENDBRANCH  10  25
TORSDOF 6
ENDMDL
