MODEL 1
REMARK VINA RESULT:      -6.2      0.000      0.000
REMARK  Name = 
REMARK  3 active torsions:
REMARK  status: ('A' for Active; 'I' for Inactive)
REMARK    1  A    between atoms: C_4  and  C_5
REMARK    2  A    between atoms: N_13  and  C_14
REMARK    3  A    between atoms: C_14  and  C_15
REMARK                            x       y       z     vdW  Elec       q    Type
REMARK                         _______ _______ _______ _____ _____    ______ ____
ROOT
ATOM      1  O   UNL     1      26.760  25.590  24.411  0.00  0.00    +0.000 OA
ATOM      2  C   UNL     1      27.448  25.691  23.365  0.00  0.00    +0.000 C 
ATOM      3  N   UNL     1      27.720  26.876  22.680  0.00  0.00    +0.000 NA
ATOM      4  C   UNL     1      28.067  26.480  21.191  0.00  0.00    +0.000 C 
ATOM      5  C   UNL     1      28.755  25.087  21.560  0.00  0.00    +0.000 C 
ATOM      6  O   UNL     1      29.672  24.652  20.906  0.00  0.00    +0.000 OA
ATOM      7  N   UNL     1      28.082  24.619  22.675  0.00  0.00    +0.000 N 
ENDROOT
BRANCH   4   8
ATOM      8  C   UNL     1      29.499  27.332  21.207  0.00  0.00    +0.000 C 
ATOM      9  C   UNL     1      29.117  28.717  21.640  0.00  0.00    +0.000 C 
ATOM     10  C   UNL     1      27.837  29.093  20.939  0.00  0.00    +0.000 C 
ATOM     11  C   UNL     1      28.168  29.230  19.460  0.00  0.00    +0.000 C 
ATOM     12  C   UNL     1      28.770  27.964  18.906  0.00  0.00    +0.000 C 
ATOM     13  C   UNL     1      29.875  27.408  19.740  0.00  0.00    +0.000 C 
ENDBRANCH   4   8
BRANCH   7  14
ATOM     14  C   UNL     1      28.027  23.226  23.087  0.00  0.00    +0.000 C 
BRANCH  14  15
ATOM     15  C   UNL     1      28.921  22.997  24.232  0.00  0.00    +0.000 A 
ATOM     16  C   UNL     1      30.275  23.128  24.059  0.00  0.00    +0.000 A 
ATOM     17  C   UNL     1      31.112  22.920  25.102  0.00  0.00    +0.000 A 
ATOM     18  C   UNL     1      30.605  22.580  26.329  0.00  0.00    +0.000 A 
ATOM     19  C   UNL     1      29.241  22.451  26.496  0.00  0.00    +0.000 A 
ATOM     20  C   UNL     1      28.380  22.658  25.447  0.00  0.00    +0.000 A 
ATOM     21  F   UNL     1      27.047  22.534  25.599  0.00  0.00    +0.000 F 
ENDBRANCH  14  15
ENDBRANCH   7  14
TORSDOF 3
ENDMDL
MODEL 2
REMARK VINA RESULT:      -6.2     20.719     22.591
REMARK  Name = 
REMARK  3 active torsions:
REMARK  status: ('A' for Active; 'I' for Inactive)
REMARK    1  A    between atoms: C_4  and  C_5
REMARK    2  A    between atoms: N_13  and  C_14
REMARK    3  A    between atoms: C_14  and  C_15
REMARK                            x       y       z     vdW  Elec       q    Type
REMARK                         _______ _______ _______ _____ _____    ______ ____
ROOT
ATOM      1  O   UNL     1      19.708  13.646  38.230  0.00  0.00    +0.000 OA
ATOM      2  C   UNL     1      20.344  12.563  38.179  0.00  0.00    +0.000 C 
ATOM      3  N   UNL     1      21.731  12.435  38.094  0.00  0.00    +0.000 NA
ATOM      4  C   UNL     1      22.026  11.015  37.467  0.00  0.00    +0.000 C 
ATOM      5  C   UNL     1      20.763  10.293  38.124  0.00  0.00    +0.000 C 
ATOM      6  O   UNL     1      20.806   9.129  38.443  0.00  0.00    +0.000 OA
ATOM      7  N   UNL     1      19.773  11.258  38.197  0.00  0.00    +0.000 N 
ENDROOT
BRANCH   4   8
ATOM      8  C   UNL     1      23.065  10.593  38.700  0.00  0.00    +0.000 C 
ATOM      9  C   UNL     1      24.221  11.541  38.571  0.00  0.00    +0.000 C 
ATOM     10  C   UNL     1      24.550  11.684  37.108  0.00  0.00    +0.000 C 
ATOM     11  C   UNL     1      25.099  10.343  36.644  0.00  0.00    +0.000 C 
ATOM     12  C   UNL     1      24.121   9.224  36.900  0.00  0.00    +0.000 C 
ATOM     13  C   UNL     1      23.559   9.221  38.282  0.00  0.00    +0.000 C 
ENDBRANCH   4   8
BRANCH   7  14
ATOM     14  C   UNL     1      18.350  10.981  38.280  0.00  0.00    +0.000 C 
BRANCH  14  15
ATOM     15  C   UNL     1      17.798  10.734  36.939  0.00  0.00    +0.000 A 
ATOM     16  C   UNL     1      17.934   9.490  36.381  0.00  0.00    +0.000 A 
ATOM     17  C   UNL     1      17.433   9.245  35.147  0.00  0.00    +0.000 A 
ATOM     18  C   UNL     1      16.790  10.242  34.460  0.00  0.00    +0.000 A 
ATOM     19  C   UNL     1      16.657  11.492  35.029  0.00  0.00    +0.000 A 
ATOM     20  C   UNL     1      17.161  11.755  36.279  0.00  0.00    +0.000 A 
ATOM     21  F   UNL     1      17.036  12.972  36.843  0.00  0.00    +0.000 F 
ENDBRANCH  14  15
ENDBRANCH   7  14
TORSDOF 3
ENDMDL
MODEL 3
REMARK VINA RESULT:      -6.0     32.831     34.518
REMARK  Name = 
REMARK  3 active torsions:
REMARK  status: ('A' for Active; 'I' for Inactive)
REMARK    1  A    between atoms: C_4  and  C_5
REMARK    2  A    between atoms: N_13  and  C_14
REMARK    3  A    between atoms: C_14  and  C_15
REMARK                            x       y       z     vdW  Elec       q    Type
REMARK                         _______ _______ _______ _____ _____    ______ ____
ROOT
ATOM      1  O   UNL     1      19.113  -9.588  23.609  0.00  0.00    +0.000 OA
ATOM      2  C   UNL     1      20.315  -9.228  23.679  0.00  0.00    +0.000 C 
ATOM      3  N   UNL     1      21.204  -9.142  22.607  0.00  0.00    +0.000 NA
ATOM      4  C   UNL     1      22.662  -9.244  23.206  0.00  0.00    +0.000 C 
ATOM      5  C   UNL     1      22.315  -8.505  24.578  0.00  0.00    +0.000 C 
ATOM      6  O   UNL     1      23.136  -7.822  25.143  0.00  0.00    +0.000 OA
ATOM      7  N   UNL     1      21.002  -8.838  24.864  0.00  0.00    +0.000 N 
ENDROOT
BRANCH   4   8
ATOM      8  C   UNL     1      23.167  -7.854  22.440  0.00  0.00    +0.000 C 
ATOM      9  C   UNL     1      23.006  -8.141  20.976  0.00  0.00    +0.000 C 
ATOM     10  C   UNL     1      23.479  -9.548  20.719  0.00  0.00    +0.000 C 
ATOM     11  C   UNL     1      24.982  -9.560  20.951  0.00  0.00    +0.000 C 
ATOM     12  C   UNL     1      25.334  -9.086  22.338  0.00  0.00    +0.000 C 
ATOM     13  C   UNL     1      24.655  -7.817  22.731  0.00  0.00    +0.000 C 
ENDBRANCH   4   8
BRANCH   7  14
ATOM     14  C   UNL     1      20.406  -8.797  26.188  0.00  0.00    +0.000 C 
BRANCH  14  15
ATOM     15  C   UNL     1      19.694  -7.526  26.388  0.00  0.00    +0.000 A 
ATOM     16  C   UNL     1      20.199  -6.383  25.826  0.00  0.00    +0.000 A 
ATOM     17  C   UNL     1      19.556  -5.204  26.001  0.00  0.00    +0.000 A 
ATOM     18  C   UNL     1      18.402  -5.156  26.739  0.00  0.00    +0.000 A 
ATOM     19  C   UNL     1      17.900  -6.312  27.301  0.00  0.00    +0.000 A 
ATOM     20  C   UNL     1      18.541  -7.515  27.133  0.00  0.00    +0.000 A 
ATOM     21  F   UNL     1      18.059  -8.648  27.679  0.00  0.00    +0.000 F 
ENDBRANCH  14  15
ENDBRANCH   7  14
TORSDOF 3
ENDMDL
MODEL 4
REMARK VINA RESULT:      -6.0     21.009     22.866
REMARK  Name = 
REMARK  3 active torsions:
REMARK  status: ('A' for Active; 'I' for Inactive)
REMARK    1  A    between atoms: C_4  and  C_5
REMARK    2  A    between atoms: N_13  and  C_14
REMARK    3  A    between atoms: C_14  and  C_15
REMARK                            x       y       z     vdW  Elec       q    Type
REMARK                         _______ _______ _______ _____ _____    ______ ____
ROOT
ATOM      1  O   UNL     1      24.026   2.767  14.963  0.00  0.00    +0.000 OA
ATOM      2  C   UNL     1      24.647   3.420  15.838  0.00  0.00    +0.000 C 
ATOM      3  N   UNL     1      25.380   4.587  15.617  0.00  0.00    +0.000 NA
ATOM      4  C   UNL     1      26.428   4.704  16.794  0.00  0.00    +0.000 C 
ATOM      5  C   UNL     1      25.492   4.030  17.899  0.00  0.00    +0.000 C 
ATOM      6  O   UNL     1      25.552   4.367  19.057  0.00  0.00    +0.000 OA
ATOM      7  N   UNL     1      24.724   3.097  17.223  0.00  0.00    +0.000 N 
ENDROOT
BRANCH   4   8
ATOM      8  C   UNL     1      25.961   6.259  17.169  0.00  0.00    +0.000 C 
ATOM      9  C   UNL     1      26.231   7.053  15.925  0.00  0.00    +0.000 C 
ATOM     10  C   UNL     1      27.555   6.607  15.362  0.00  0.00    +0.000 C 
ATOM     11  C   UNL     1      28.627   7.055  16.344  0.00  0.00    +0.000 C 
ATOM     12  C   UNL     1      28.381   6.503  17.725  0.00  0.00    +0.000 C 
ATOM     13  C   UNL     1      26.981   6.687  18.207  0.00  0.00    +0.000 C 
ENDBRANCH   4   8
BRANCH   7  14
ATOM     14  C   UNL     1      24.084   1.947  17.839  0.00  0.00    +0.000 C 
BRANCH  14  15
ATOM     15  C   UNL     1      22.622   2.106  17.821  0.00  0.00    +0.000 A 
ATOM     16  C   UNL     1      22.069   3.248  18.340  0.00  0.00    +0.000 A 
ATOM     17  C   UNL     1      20.725   3.410  18.333  0.00  0.00    +0.000 A 
ATOM     18  C   UNL     1      19.920   2.433  17.806  0.00  0.00    +0.000 A 
ATOM     19  C   UNL     1      20.485   1.287  17.285  0.00  0.00    +0.000 A 
ATOM     20  C   UNL     1      21.847   1.108  17.286  0.00  0.00    +0.000 A 
ATOM     21  F   UNL     1      22.407  -0.007  16.780  0.00  0.00    +0.000 F 
ENDBRANCH  14  15
ENDBRANCH   7  14
TORSDOF 3
ENDMDL
MODEL 5
REMARK VINA RESULT:      -5.8     20.772     22.757
REMARK  Name = 
REMARK  3 active torsions:
REMARK  status: ('A' for Active; 'I' for Inactive)
REMARK    1  A    between atoms: C_4  and  C_5
REMARK    2  A    between atoms: N_13  and  C_14
REMARK    3  A    between atoms: C_14  and  C_15
REMARK                            x       y       z     vdW  Elec       q    Type
REMARK                         _______ _______ _______ _____ _____    ______ ____
ROOT
ATOM      1  O   UNL     1      19.329  10.316  40.362  0.00  0.00    +0.000 OA
ATOM      2  C   UNL     1      20.141  10.280  39.404  0.00  0.00    +0.000 C 
ATOM      3  N   UNL     1      21.470  10.705  39.446  0.00  0.00    +0.000 NA
ATOM      4  C   UNL     1      21.896  11.034  37.960  0.00  0.00    +0.000 C 
ATOM      5  C   UNL     1      20.985   9.907  37.288  0.00  0.00    +0.000 C 
ATOM      6  O   UNL     1      21.333   9.346  36.277  0.00  0.00    +0.000 OA
ATOM      7  N   UNL     1      19.864   9.799  38.093  0.00  0.00    +0.000 N 
ENDROOT
BRANCH   4   8
ATOM      8  C   UNL     1      23.249  10.065  38.043  0.00  0.00    +0.000 C 
ATOM      9  C   UNL     1      24.076  10.653  39.149  0.00  0.00    +0.000 C 
ATOM     10  C   UNL     1      24.033  12.153  39.021  0.00  0.00    +0.000 C 
ATOM     11  C   UNL     1      24.784  12.510  37.747  0.00  0.00    +0.000 C 
ATOM     12  C   UNL     1      24.196  11.819  36.543  0.00  0.00    +0.000 C 
ATOM     13  C   UNL     1      23.967  10.358  36.740  0.00  0.00    +0.000 C 
ENDBRANCH   4   8
BRANCH   7  14
ATOM     14  C   UNL     1      18.582   9.270  37.661  0.00  0.00    +0.000 C 
BRANCH  14  15
ATOM     15  C   UNL     1      17.983  10.149  36.644  0.00  0.00    +0.000 A 
ATOM     16  C   UNL     1      17.587  11.411  37.002  0.00  0.00    +0.000 A 
ATOM     17  C   UNL     1      17.034  12.232  36.079  0.00  0.00    +0.000 A 
ATOM     18  C   UNL     1      16.872  11.800  34.788  0.00  0.00    +0.000 A 
ATOM     19  C   UNL     1      17.273  10.528  34.436  0.00  0.00    +0.000 A 
ATOM     20  C   UNL     1      17.836   9.684  35.361  0.00  0.00    +0.000 A 
ATOM     21  F   UNL     1      18.231   8.440  35.026  0.00  0.00    +0.000 F 
ENDBRANCH  14  15
ENDBRANCH   7  14
TORSDOF 3
ENDMDL
MODEL 6
REMARK VINA RESULT:      -5.8      2.174      6.387
REMARK  Name = 
REMARK  3 active torsions:
REMARK  status: ('A' for Active; 'I' for Inactive)
REMARK    1  A    between atoms: C_4  and  C_5
REMARK    2  A    between atoms: N_13  and  C_14
REMARK    3  A    between atoms: C_14  and  C_15
REMARK                            x       y       z     vdW  Elec       q    Type
REMARK                         _______ _______ _______ _____ _____    ______ ____
ROOT
ATOM      1  O   UNL     1      25.254  24.867  25.079  0.00  0.00    +0.000 OA
ATOM      2  C   UNL     1      26.378  24.312  25.160  0.00  0.00    +0.000 C 
ATOM      3  N   UNL     1      26.996  23.887  26.337  0.00  0.00    +0.000 NA
ATOM      4  C   UNL     1      28.548  23.822  26.047  0.00  0.00    +0.000 C 
ATOM      5  C   UNL     1      28.399  23.399  24.515  0.00  0.00    +0.000 C 
ATOM      6  O   UNL     1      29.214  22.683  23.984  0.00  0.00    +0.000 OA
ATOM      7  N   UNL     1      27.239  24.008  24.067  0.00  0.00    +0.000 N 
ENDROOT
BRANCH   4   8
ATOM      8  C   UNL     1      28.671  22.254  26.597  0.00  0.00    +0.000 C 
ATOM      9  C   UNL     1      28.202  22.308  28.022  0.00  0.00    +0.000 C 
ATOM     10  C   UNL     1      28.775  23.547  28.658  0.00  0.00    +0.000 C 
ATOM     11  C   UNL     1      30.279  23.340  28.756  0.00  0.00    +0.000 C 
ATOM     12  C   UNL     1      30.890  23.059  27.407  0.00  0.00    +0.000 C 
ATOM     13  C   UNL     1      30.168  22.013  26.625  0.00  0.00    +0.000 C 
ENDBRANCH   4   8
BRANCH   7  14
ATOM     14  C   UNL     1      26.941  24.299  22.675  0.00  0.00    +0.000 C 
BRANCH  14  15
ATOM     15  C   UNL     1      27.657  25.508  22.241  0.00  0.00    +0.000 A 
ATOM     16  C   UNL     1      27.180  26.737  22.617  0.00  0.00    +0.000 A 
ATOM     17  C   UNL     1      27.826  27.861  22.226  0.00  0.00    +0.000 A 
ATOM     18  C   UNL     1      28.956  27.767  21.455  0.00  0.00    +0.000 A 
ATOM     19  C   UNL     1      29.430  26.526  21.081  0.00  0.00    +0.000 A 
ATOM     20  C   UNL     1      28.785  25.378  21.470  0.00  0.00    +0.000 A 
ATOM     21  F   UNL     1      29.240  24.162  21.110  0.00  0.00    +0.000 F 
ENDBRANCH  14  15
ENDBRANCH   7  14
TORSDOF 3
ENDMDL
MODEL 7
REMARK VINA RESULT:      -5.7      2.905      7.064
REMARK  Name = 
REMARK  3 active torsions:
REMARK  status: ('A' for Active; 'I' for Inactive)
REMARK    1  A    between atoms: C_4  and  C_5
REMARK    2  A    between atoms: N_13  and  C_14
REMARK    3  A    between atoms: C_14  and  C_15
REMARK                            x       y       z     vdW  Elec       q    Type
REMARK                         _______ _______ _______ _____ _____    ______ ____
ROOT
ATOM      1  O   UNL     1      31.370  23.096  25.552  0.00  0.00    +0.000 OA
ATOM      2  C   UNL     1      30.191  23.062  25.985  0.00  0.00    +0.000 C 
ATOM      3  N   UNL     1      29.811  23.154  27.324  0.00  0.00    +0.000 NA
ATOM      4  C   UNL     1      28.385  22.484  27.447  0.00  0.00    +0.000 C 
ATOM      5  C   UNL     1      27.886  22.922  25.994  0.00  0.00    +0.000 C 
ATOM      6  O   UNL     1      26.724  23.171  25.783  0.00  0.00    +0.000 OA
ATOM      7  N   UNL     1      29.016  22.924  25.193  0.00  0.00    +0.000 N 
ENDROOT
BRANCH   4   8
ATOM      8  C   UNL     1      27.732  23.814  28.208  0.00  0.00    +0.000 C 
ATOM      9  C   UNL     1      28.674  24.112  29.337  0.00  0.00    +0.000 C 
ATOM     10  C   UNL     1      29.079  22.806  29.969  0.00  0.00    +0.000 C 
ATOM     11  C   UNL     1      27.839  22.237  30.642  0.00  0.00    +0.000 C 
ATOM     12  C   UNL     1      26.704  22.069  29.664  0.00  0.00    +0.000 C 
ATOM     13  C   UNL     1      26.454  23.273  28.819  0.00  0.00    +0.000 C 
ENDBRANCH   4   8
BRANCH   7  14
ATOM     14  C   UNL     1      29.005  22.801  23.746  0.00  0.00    +0.000 C 
BRANCH  14  15
ATOM     15  C   UNL     1      28.755  24.111  23.124  0.00  0.00    +0.000 A 
ATOM     16  C   UNL     1      29.748  25.055  23.137  0.00  0.00    +0.000 A 
ATOM     17  C   UNL     1      29.535  26.266  22.570  0.00  0.00    +0.000 A 
ATOM     18  C   UNL     1      28.327  26.545  21.984  0.00  0.00    +0.000 A 
ATOM     19  C   UNL     1      27.333  25.588  21.975  0.00  0.00    +0.000 A 
ATOM     20  C   UNL     1      27.534  24.355  22.546  0.00  0.00    +0.000 A 
ATOM     21  F   UNL     1      26.570  23.415  22.542  0.00  0.00    +0.000 F 
ENDBRANCH  14  15
ENDBRANCH   7  14
TORSDOF 3
ENDMDL
MODEL 8
REMARK VINA RESULT:      -5.7      3.142      6.846
REMARK  Name = 
REMARK  3 active torsions:
REMARK  status: ('A' for Active; 'I' for Inactive)
REMARK    1  A    between atoms: C_4  and  C_5
REMARK    2  A    between atoms: N_13  and  C_14
REMARK    3  A    between atoms: C_14  and  C_15
REMARK                            x       y       z     vdW  Elec       q    Type
REMARK                         _______ _______ _______ _____ _____    ______ ____
ROOT
ATOM      1  O   UNL     1      24.487  25.722  25.528  0.00  0.00    +0.000 OA
ATOM      2  C   UNL     1      25.328  24.962  26.070  0.00  0.00    +0.000 C 
ATOM      3  N   UNL     1      25.591  24.880  27.438  0.00  0.00    +0.000 NA
ATOM      4  C   UNL     1      27.050  24.294  27.594  0.00  0.00    +0.000 C 
ATOM      5  C   UNL     1      26.979  23.364  26.297  0.00  0.00    +0.000 C 
ATOM      6  O   UNL     1      27.564  22.308  26.255  0.00  0.00    +0.000 OA
ATOM      7  N   UNL     1      26.175  24.038  25.394  0.00  0.00    +0.000 N 
ENDROOT
BRANCH   4   8
ATOM      8  C   UNL     1      26.548  23.093  28.634  0.00  0.00    +0.000 C 
ATOM      9  C   UNL     1      26.005  23.821  29.829  0.00  0.00    +0.000 C 
ATOM     10  C   UNL     1      26.928  24.971  30.138  0.00  0.00    +0.000 C 
ATOM     11  C   UNL     1      28.240  24.369  30.618  0.00  0.00    +0.000 C 
ATOM     12  C   UNL     1      28.826  23.428  29.596  0.00  0.00    +0.000 C 
ATOM     13  C   UNL     1      27.848  22.437  29.060  0.00  0.00    +0.000 C 
ENDBRANCH   4   8
BRANCH   7  14
ATOM     14  C   UNL     1      26.191  23.833  23.956  0.00  0.00    +0.000 C 
BRANCH  14  15
ATOM     15  C   UNL     1      27.296  24.587  23.345  0.00  0.00    +0.000 A 
ATOM     16  C   UNL     1      27.143  25.930  23.120  0.00  0.00    +0.000 A 
ATOM     17  C   UNL     1      28.149  26.640  22.558  0.00  0.00    +0.000 A 
ATOM     18  C   UNL     1      29.320  26.014  22.216  0.00  0.00    +0.000 A 
ATOM     19  C   UNL     1      29.467  24.661  22.446  0.00  0.00    +0.000 A 
ATOM     20  C   UNL     1      28.454  23.929  23.015  0.00  0.00    +0.000 A 
ATOM     21  F   UNL     1      28.588  22.608  23.243  0.00  0.00    +0.000 F 
ENDBRANCH  14  15
ENDBRANCH   7  14
TORSDOF 3
ENDMDL
MODEL 9
REMARK VINA RESULT:      -5.7      3.573      4.902
REMARK  Name = 
REMARK  3 active torsions:
REMARK  status: ('A' for Active; 'I' for Inactive)
REMARK    1  A    between atoms: C_4  and  C_5
REMARK    2  A    between atoms: N_13  and  C_14
REMARK    3  A    between atoms: C_14  and  C_15
REMARK                            x       y       z     vdW  Elec       q    Type
REMARK                         _______ _______ _______ _____ _____    ______ ____
ROOT
ATOM      1  O   UNL     1      26.530  27.381  26.731  0.00  0.00    +0.000 OA
ATOM      2  C   UNL     1      26.804  26.377  26.027  0.00  0.00    +0.000 C 
ATOM      3  N   UNL     1      27.818  26.304  25.071  0.00  0.00    +0.000 NA
ATOM      4  C   UNL     1      27.423  25.152  24.065  0.00  0.00    +0.000 C 
ATOM      5  C   UNL     1      26.692  24.242  25.155  0.00  0.00    +0.000 C 
ATOM      6  O   UNL     1      26.707  23.037  25.072  0.00  0.00    +0.000 OA
ATOM      7  N   UNL     1      26.133  25.122  26.066  0.00  0.00    +0.000 N 
ENDROOT
BRANCH   4   8
ATOM      8  C   UNL     1      28.893  24.386  24.230  0.00  0.00    +0.000 C 
ATOM      9  C   UNL     1      29.900  25.371  23.713  0.00  0.00    +0.000 C 
ATOM     10  C   UNL     1      29.337  26.009  22.470  0.00  0.00    +0.000 C 
ATOM     11  C   UNL     1      29.277  24.925  21.404  0.00  0.00    +0.000 C 
ATOM     12  C   UNL     1      28.457  23.745  21.859  0.00  0.00    +0.000 C 
ATOM     13  C   UNL     1      28.811  23.255  23.223  0.00  0.00    +0.000 C 
ENDBRANCH   4   8
BRANCH   7  14
ATOM     14  C   UNL     1      25.016  24.809  26.941  0.00  0.00    +0.000 C 
BRANCH  14  15
ATOM     15  C   UNL     1      25.495  24.555  28.309  0.00  0.00    +0.000 A 
ATOM     16  C   UNL     1      26.248  23.436  28.555  0.00  0.00    +0.000 A 
ATOM     17  C   UNL     1      26.696  23.186  29.808  0.00  0.00    +0.000 A 
ATOM     18  C   UNL     1      26.397  24.053  30.827  0.00  0.00    +0.000 A 
ATOM     19  C   UNL     1      25.639  25.178  30.571  0.00  0.00    +0.000 A 
ATOM     20  C   UNL     1      25.177  25.444  29.305  0.00  0.00    +0.000 A 
ATOM     21  F   UNL     1      24.437  26.539  29.045  0.00  0.00    +0.000 F 
ENDBRANCH  14  15
ENDBRANCH   7  14
TORSDOF 3
ENDMDL
MODEL 10
REMARK VINA RESULT:      -5.6     21.195     22.967
REMARK  Name = 
REMARK  3 active torsions:
REMARK  status: ('A' for Active; 'I' for Inactive)
REMARK    1  A    between atoms: C_4  and  C_5
REMARK    2  A    between atoms: N_13  and  C_14
REMARK    3  A    between atoms: C_14  and  C_15
REMARK                            x       y       z     vdW  Elec       q    Type
REMARK                         _______ _______ _______ _____ _____    ______ ____
ROOT
ATOM      1  O   UNL     1      24.683   3.579  13.502  0.00  0.00    +0.000 OA
ATOM      2  C   UNL     1      24.996   4.135  14.585  0.00  0.00    +0.000 C 
ATOM      3  N   UNL     1      25.971   5.121  14.743  0.00  0.00    +0.000 NA
ATOM      4  C   UNL     1      26.427   5.081  16.255  0.00  0.00    +0.000 C 
ATOM      5  C   UNL     1      25.000   4.659  16.834  0.00  0.00    +0.000 C 
ATOM      6  O   UNL     1      24.635   5.031  17.923  0.00  0.00    +0.000 OA
ATOM      7  N   UNL     1      24.417   3.868  15.858  0.00  0.00    +0.000 N 
ENDROOT
BRANCH   4   8
ATOM      8  C   UNL     1      26.168   6.714  16.465  0.00  0.00    +0.000 C 
ATOM      9  C   UNL     1      27.080   7.379  15.476  0.00  0.00    +0.000 C 
ATOM     10  C   UNL     1      28.401   6.654  15.494  0.00  0.00    +0.000 C 
ATOM     11  C   UNL     1      29.037   6.927  16.848  0.00  0.00    +0.000 C 
ATOM     12  C   UNL     1      28.138   6.499  17.981  0.00  0.00    +0.000 C 
ATOM     13  C   UNL     1      26.732   6.980  17.847  0.00  0.00    +0.000 C 
ENDBRANCH   4   8
BRANCH   7  14
ATOM     14  C   UNL     1      23.363   2.899  16.099  0.00  0.00    +0.000 C 
BRANCH  14  15
ATOM     15  C   UNL     1      23.934   1.555  16.273  0.00  0.00    +0.000 A 
ATOM     16  C   UNL     1      24.058   0.736  15.181  0.00  0.00    +0.000 A 
ATOM     17  C   UNL     1      24.581  -0.505  15.324  0.00  0.00    +0.000 A 
ATOM     18  C   UNL     1      24.987  -0.939  16.559  0.00  0.00    +0.000 A 
ATOM     19  C   UNL     1      24.859  -0.108  17.654  0.00  0.00    +0.000 A 
ATOM     20  C   UNL     1      24.329   1.153  17.524  0.00  0.00    +0.000 A 
ATOM     21  F   UNL     1      24.200   1.971  18.587  0.00  0.00    +0.000 F 
ENDBRANCH  14  15
ENDBRANCH   7  14
TORSDOF 3
ENDMDL
