MODEL 1
REMARK VINA RESULT:      -6.6      0.000      0.000
REMARK  Name = 
REMARK  3 active torsions:
REMARK  status: ('A' for Active; 'I' for Inactive)
REMARK    1  A    between atoms: C_2  and  C_13
REMARK    2  A    between atoms: N_3  and  C_4
REMARK    3  A    between atoms: C_8  and  N_9
REMARK                            x       y       z     vdW  Elec       q    Type
REMARK                         _______ _______ _______ _____ _____    ______ ____
ROOT
ATOM      1  O   UNL     1      17.262   9.260  36.286  0.00  0.00    +0.000 OA
ATOM      2  C   UNL     1      17.879  10.175  36.873  0.00  0.00    +0.000 C 
ATOM      3  N   UNL     1      17.622  11.512  36.506  0.00  0.00    +0.000 NA
ENDROOT
BRANCH   2   4
ATOM      4  C   UNL     1      18.876   9.930  37.942  0.00  0.00    +0.000 A 
ATOM      5  C   UNL     1      20.209   9.891  37.650  0.00  0.00    +0.000 A 
ATOM      6  S   UNL     1      20.938   9.597  39.160  0.00  0.00    +0.000 S 
ATOM      7  C   UNL     1      19.535   9.531  40.124  0.00  0.00    +0.000 A 
ATOM      8  C   UNL     1      18.520   9.744  39.225  0.00  0.00    +0.000 A 
ATOM      9  C   UNL     1      17.148   9.725  39.882  0.00  0.00    +0.000 C 
ATOM     10  C   UNL     1      17.093   8.395  40.623  0.00  0.00    +0.000 C 
ATOM     11  C   UNL     1      18.071   8.351  41.755  0.00  0.00    +0.000 C 
ATOM     12  C   UNL     1      19.216   9.312  41.587  0.00  0.00    +0.000 C 
ENDBRANCH   2   4
BRANCH   3  13
ATOM     13  C   UNL     1      16.668  11.806  35.478  0.00  0.00    +0.000 A 
ATOM     14  C   UNL     1      15.492  12.424  35.868  0.00  0.00    +0.000 A 
ATOM     15  C   UNL     1      14.556  12.720  34.914  0.00  0.00    +0.000 A 
ATOM     16  C   UNL     1      14.767  12.418  33.593  0.00  0.00    +0.000 A 
ATOM     17  C   UNL     1      15.947  11.793  33.182  0.00  0.00    +0.000 A 
ATOM     18  C   UNL     1      16.868  11.510  34.167  0.00  0.00    +0.000 A 
BRANCH  17  19
ATOM     19  N   UNL     1      16.163  11.482  31.822  0.00  0.00    +0.000 N 
ATOM     20  O   UNL     1      16.232  10.299  31.473  0.00  0.00    +0.000 OA
ATOM     21  O   UNL     1      16.293  12.501  30.925  0.00  0.00    +0.000 OA
ENDBRANCH  17  19
ENDBRANCH   3  13
TORSDOF 3
ENDMDL
MODEL 2
REMARK VINA RESULT:      -6.6     18.478     19.760
REMARK  Name = 
REMARK  3 active torsions:
REMARK  status: ('A' for Active; 'I' for Inactive)
REMARK    1  A    between atoms: C_2  and  C_13
REMARK    2  A    between atoms: N_3  and  C_4
REMARK    3  A    between atoms: C_8  and  N_9
REMARK                            x       y       z     vdW  Elec       q    Type
REMARK                         _______ _______ _______ _____ _____    ______ ____
ROOT
ATOM      1  O   UNL     1      30.153  24.188  28.167  0.00  0.00    +0.000 OA
ATOM      2  C   UNL     1      30.129  22.984  28.502  0.00  0.00    +0.000 C 
ATOM      3  N   UNL     1      29.725  22.023  27.553  0.00  0.00    +0.000 NA
ENDROOT
BRANCH   2   4
ATOM      4  C   UNL     1      30.504  22.507  29.854  0.00  0.00    +0.000 A 
ATOM      5  C   UNL     1      29.618  22.593  30.888  0.00  0.00    +0.000 A 
ATOM      6  S   UNL     1      30.476  21.931  32.202  0.00  0.00    +0.000 S 
ATOM      7  C   UNL     1      31.936  21.562  31.407  0.00  0.00    +0.000 A 
ATOM      8  C   UNL     1      31.709  21.972  30.117  0.00  0.00    +0.000 A 
ATOM      9  C   UNL     1      32.908  21.733  29.211  0.00  0.00    +0.000 C 
ATOM     10  C   UNL     1      34.069  22.420  29.918  0.00  0.00    +0.000 C 
ATOM     11  C   UNL     1      34.410  21.743  31.209  0.00  0.00    +0.000 C 
ATOM     12  C   UNL     1      33.268  20.951  31.782  0.00  0.00    +0.000 C 
ENDBRANCH   2   4
BRANCH   3  13
ATOM     13  C   UNL     1      29.351  22.429  26.230  0.00  0.00    +0.000 A 
ATOM     14  C   UNL     1      30.373  22.611  25.315  0.00  0.00    +0.000 A 
ATOM     15  C   UNL     1      30.056  22.999  24.041  0.00  0.00    +0.000 A 
ATOM     16  C   UNL     1      28.753  23.207  23.665  0.00  0.00    +0.000 A 
ATOM     17  C   UNL     1      27.709  23.029  24.576  0.00  0.00    +0.000 A 
ATOM     18  C   UNL     1      28.064  22.637  25.849  0.00  0.00    +0.000 A 
BRANCH  17  19
ATOM     19  N   UNL     1      26.369  23.242  24.189  0.00  0.00    +0.000 N 
ATOM     20  O   UNL     1      25.563  23.692  25.011  0.00  0.00    +0.000 OA
ATOM     21  O   UNL     1      25.995  22.944  22.911  0.00  0.00    +0.000 OA
ENDBRANCH  17  19
ENDBRANCH   3  13
TORSDOF 3
ENDMDL
MODEL 3
REMARK VINA RESULT:      -6.4      1.150      2.697
REMARK  Name = 
REMARK  3 active torsions:
REMARK  status: ('A' for Active; 'I' for Inactive)
REMARK    1  A    between atoms: C_2  and  C_13
REMARK    2  A    between atoms: N_3  and  C_4
REMARK    3  A    between atoms: C_8  and  N_9
REMARK                            x       y       z     vdW  Elec       q    Type
REMARK                         _______ _______ _______ _____ _____    ______ ____
ROOT
ATOM      1  O   UNL     1      17.378   9.341  36.358  0.00  0.00    +0.000 OA
ATOM      2  C   UNL     1      17.840  10.235  37.099  0.00  0.00    +0.000 C 
ATOM      3  N   UNL     1      17.461  11.573  36.867  0.00  0.00    +0.000 NA
ENDROOT
BRANCH   2   4
ATOM      4  C   UNL     1      18.774   9.964  38.218  0.00  0.00    +0.000 A 
ATOM      5  C   UNL     1      18.323   9.938  39.505  0.00  0.00    +0.000 A 
ATOM      6  S   UNL     1      19.723   9.592  40.411  0.00  0.00    +0.000 S 
ATOM      7  C   UNL     1      20.846   9.490  39.134  0.00  0.00    +0.000 A 
ATOM      8  C   UNL     1      20.083   9.732  38.018  0.00  0.00    +0.000 A 
ATOM      9  C   UNL     1      20.900   9.689  36.735  0.00  0.00    +0.000 C 
ATOM     10  C   UNL     1      22.040  10.671  36.971  0.00  0.00    +0.000 C 
ATOM     11  C   UNL     1      22.969  10.194  38.043  0.00  0.00    +0.000 C 
ATOM     12  C   UNL     1      22.328   9.220  38.992  0.00  0.00    +0.000 C 
ENDBRANCH   2   4
BRANCH   3  13
ATOM     13  C   UNL     1      16.560  11.891  35.799  0.00  0.00    +0.000 A 
ATOM     14  C   UNL     1      15.387  12.542  36.137  0.00  0.00    +0.000 A 
ATOM     15  C   UNL     1      14.501  12.863  35.144  0.00  0.00    +0.000 A 
ATOM     16  C   UNL     1      14.760  12.552  33.833  0.00  0.00    +0.000 A 
ATOM     17  C   UNL     1      15.940  11.894  33.474  0.00  0.00    +0.000 A 
ATOM     18  C   UNL     1      16.808  11.587  34.498  0.00  0.00    +0.000 A 
BRANCH  17  19
ATOM     19  N   UNL     1      16.206  11.575  32.125  0.00  0.00    +0.000 N 
ATOM     20  O   UNL     1      16.197  12.471  31.274  0.00  0.00    +0.000 OA
ATOM     21  O   UNL     1      16.465  10.277  31.793  0.00  0.00    +0.000 OA
ENDBRANCH  17  19
ENDBRANCH   3  13
TORSDOF 3
ENDMDL
MODEL 4
REMARK VINA RESULT:      -6.4     23.569     26.352
REMARK  Name = 
REMARK  3 active torsions:
REMARK  status: ('A' for Active; 'I' for Inactive)
REMARK    1  A    between atoms: C_2  and  C_13
REMARK    2  A    between atoms: N_3  and  C_4
REMARK    3  A    between atoms: C_8  and  N_9
REMARK                            x       y       z     vdW  Elec       q    Type
REMARK                         _______ _______ _______ _____ _____    ______ ____
ROOT
ATOM      1  O   UNL     1      29.855  25.583  19.626  0.00  0.00    +0.000 OA
ATOM      2  C   UNL     1      29.598  26.709  20.105  0.00  0.00    +0.000 C 
ATOM      3  N   UNL     1      29.045  26.786  21.400  0.00  0.00    +0.000 NA
ENDROOT
BRANCH   2   4
ATOM      4  C   UNL     1      29.843  27.978  19.380  0.00  0.00    +0.000 A 
ATOM      5  C   UNL     1      29.843  29.168  20.049  0.00  0.00    +0.000 A 
ATOM      6  S   UNL     1      30.168  30.310  18.829  0.00  0.00    +0.000 S 
ATOM      7  C   UNL     1      30.295  29.250  17.501  0.00  0.00    +0.000 A 
ATOM      8  C   UNL     1      30.077  28.014  18.057  0.00  0.00    +0.000 A 
ATOM      9  C   UNL     1      30.146  26.894  17.030  0.00  0.00    +0.000 C 
ATOM     10  C   UNL     1      29.157  27.304  15.946  0.00  0.00    +0.000 C 
ATOM     11  C   UNL     1      29.610  28.532  15.219  0.00  0.00    +0.000 C 
ATOM     12  C   UNL     1      30.565  29.375  16.017  0.00  0.00    +0.000 C 
ENDBRANCH   2   4
BRANCH   3  13
ATOM     13  C   UNL     1      28.787  25.589  22.145  0.00  0.00    +0.000 A 
ATOM     14  C   UNL     1      29.858  25.020  22.813  0.00  0.00    +0.000 A 
ATOM     15  C   UNL     1      29.651  23.876  23.535  0.00  0.00    +0.000 A 
ATOM     16  C   UNL     1      28.410  23.295  23.606  0.00  0.00    +0.000 A 
ATOM     17  C   UNL     1      27.319  23.856  22.938  0.00  0.00    +0.000 A 
ATOM     18  C   UNL     1      27.563  25.007  22.221  0.00  0.00    +0.000 A 
BRANCH  17  19
ATOM     19  N   UNL     1      26.042  23.257  23.012  0.00  0.00    +0.000 N 
ATOM     20  O   UNL     1      25.481  22.893  21.973  0.00  0.00    +0.000 OA
ATOM     21  O   UNL     1      25.458  23.097  24.234  0.00  0.00    +0.000 OA
ENDBRANCH  17  19
ENDBRANCH   3  13
TORSDOF 3
ENDMDL
MODEL 5
REMARK VINA RESULT:      -6.4     18.510     19.856
REMARK  Name = 
REMARK  3 active torsions:
REMARK  status: ('A' for Active; 'I' for Inactive)
REMARK    1  A    between atoms: C_2  and  C_13
REMARK    2  A    between atoms: N_3  and  C_4
REMARK    3  A    between atoms: C_8  and  N_9
REMARK                            x       y       z     vdW  Elec       q    Type
REMARK                         _______ _______ _______ _____ _____    ______ ____
ROOT
ATOM      1  O   UNL     1      29.013  24.431  28.033  0.00  0.00    +0.000 OA
ATOM      2  C   UNL     1      29.164  23.225  28.323  0.00  0.00    +0.000 C 
ATOM      3  N   UNL     1      28.723  22.246  27.409  0.00  0.00    +0.000 NA
ENDROOT
BRANCH   2   4
ATOM      4  C   UNL     1      29.786  22.762  29.587  0.00  0.00    +0.000 A 
ATOM      5  C   UNL     1      29.088  22.808  30.759  0.00  0.00    +0.000 A 
ATOM      6  S   UNL     1      30.186  22.181  31.900  0.00  0.00    +0.000 S 
ATOM      7  C   UNL     1      31.502  21.877  30.862  0.00  0.00    +0.000 A 
ATOM      8  C   UNL     1      31.040  22.280  29.634  0.00  0.00    +0.000 A 
ATOM      9  C   UNL     1      32.074  22.094  28.533  0.00  0.00    +0.000 C 
ATOM     10  C   UNL     1      33.309  22.829  29.037  0.00  0.00    +0.000 C 
ATOM     11  C   UNL     1      33.896  22.165  30.244  0.00  0.00    +0.000 C 
ATOM     12  C   UNL     1      32.904  21.324  30.998  0.00  0.00    +0.000 C 
ENDBRANCH   2   4
BRANCH   3  13
ATOM     13  C   UNL     1      28.114  22.638  26.172  0.00  0.00    +0.000 A 
ATOM     14  C   UNL     1      26.734  22.736  26.153  0.00  0.00    +0.000 A 
ATOM     15  C   UNL     1      26.116  23.108  24.989  0.00  0.00    +0.000 A 
ATOM     16  C   UNL     1      26.840  23.381  23.857  0.00  0.00    +0.000 A 
ATOM     17  C   UNL     1      28.233  23.287  23.858  0.00  0.00    +0.000 A 
ATOM     18  C   UNL     1      28.823  22.911  25.046  0.00  0.00    +0.000 A 
BRANCH  17  19
ATOM     19  N   UNL     1      28.977  23.569  22.692  0.00  0.00    +0.000 N 
ATOM     20  O   UNL     1      30.127  24.010  22.796  0.00  0.00    +0.000 OA
ATOM     21  O   UNL     1      28.404  23.347  21.474  0.00  0.00    +0.000 OA
ENDBRANCH  17  19
ENDBRANCH   3  13
TORSDOF 3
ENDMDL
MODEL 6
REMARK VINA RESULT:      -6.3     20.188     21.749
REMARK  Name = 
REMARK  3 active torsions:
REMARK  status: ('A' for Active; 'I' for Inactive)
REMARK    1  A    between atoms: C_2  and  C_13
REMARK    2  A    between atoms: N_3  and  C_4
REMARK    3  A    between atoms: C_8  and  N_9
REMARK                            x       y       z     vdW  Elec       q    Type
REMARK                         _______ _______ _______ _____ _____    ______ ____
ROOT
ATOM      1  O   UNL     1      31.449  22.948  24.139  0.00  0.00    +0.000 OA
ATOM      2  C   UNL     1      31.381  23.908  24.936  0.00  0.00    +0.000 C 
ATOM      3  N   UNL     1      30.298  24.805  24.828  0.00  0.00    +0.000 NA
ENDROOT
BRANCH   2   4
ATOM      4  C   UNL     1      32.384  24.159  25.998  0.00  0.00    +0.000 A 
ATOM      5  C   UNL     1      33.510  24.881  25.729  0.00  0.00    +0.000 A 
ATOM      6  S   UNL     1      34.331  24.908  27.220  0.00  0.00    +0.000 S 
ATOM      7  C   UNL     1      33.226  24.003  28.147  0.00  0.00    +0.000 A 
ATOM      8  C   UNL     1      32.230  23.700  27.252  0.00  0.00    +0.000 A 
ATOM      9  C   UNL     1      31.114  22.878  27.879  0.00  0.00    +0.000 C 
ATOM     10  C   UNL     1      31.820  21.678  28.497  0.00  0.00    +0.000 C 
ATOM     11  C   UNL     1      32.700  22.081  29.639  0.00  0.00    +0.000 C 
ATOM     12  C   UNL     1      33.127  23.521  29.579  0.00  0.00    +0.000 C 
ENDBRANCH   2   4
BRANCH   3  13
ATOM     13  C   UNL     1      29.299  24.609  23.819  0.00  0.00    +0.000 A 
ATOM     14  C   UNL     1      29.570  25.113  22.559  0.00  0.00    +0.000 A 
ATOM     15  C   UNL     1      28.640  24.946  21.569  0.00  0.00    +0.000 A 
ATOM     16  C   UNL     1      27.458  24.293  21.807  0.00  0.00    +0.000 A 
ATOM     17  C   UNL     1      27.167  23.779  23.073  0.00  0.00    +0.000 A 
ATOM     18  C   UNL     1      28.125  23.964  24.046  0.00  0.00    +0.000 A 
BRANCH  17  19
ATOM     19  N   UNL     1      25.950  23.107  23.318  0.00  0.00    +0.000 N 
ATOM     20  O   UNL     1      25.261  22.730  22.363  0.00  0.00    +0.000 OA
ATOM     21  O   UNL     1      25.563  22.892  24.608  0.00  0.00    +0.000 OA
ENDBRANCH  17  19
ENDBRANCH   3  13
TORSDOF 3
ENDMDL
MODEL 7
REMARK VINA RESULT:      -6.2     19.900     21.283
REMARK  Name = 
REMARK  3 active torsions:
REMARK  status: ('A' for Active; 'I' for Inactive)
REMARK    1  A    between atoms: C_2  and  C_13
REMARK    2  A    between atoms: N_3  and  C_4
REMARK    3  A    between atoms: C_8  and  N_9
REMARK                            x       y       z     vdW  Elec       q    Type
REMARK                         _______ _______ _______ _____ _____    ______ ____
ROOT
ATOM      1  O   UNL     1      29.994  25.441  26.066  0.00  0.00    +0.000 OA
ATOM      2  C   UNL     1      30.678  24.395  26.082  0.00  0.00    +0.000 C 
ATOM      3  N   UNL     1      30.105  23.201  25.599  0.00  0.00    +0.000 NA
ENDROOT
BRANCH   2   4
ATOM      4  C   UNL     1      32.070  24.340  26.587  0.00  0.00    +0.000 A 
ATOM      5  C   UNL     1      33.087  24.906  25.876  0.00  0.00    +0.000 A 
ATOM      6  S   UNL     1      34.461  24.601  26.835  0.00  0.00    +0.000 S 
ATOM      7  C   UNL     1      33.711  23.763  28.113  0.00  0.00    +0.000 A 
ATOM      8  C   UNL     1      32.388  23.744  27.750  0.00  0.00    +0.000 A 
ATOM      9  C   UNL     1      31.514  23.029  28.770  0.00  0.00    +0.000 C 
ATOM     10  C   UNL     1      32.162  21.661  28.940  0.00  0.00    +0.000 C 
ATOM     11  C   UNL     1      33.511  21.762  29.581  0.00  0.00    +0.000 C 
ATOM     12  C   UNL     1      34.149  23.113  29.408  0.00  0.00    +0.000 C 
ENDBRANCH   2   4
BRANCH   3  13
ATOM     13  C   UNL     1      28.762  23.197  25.099  0.00  0.00    +0.000 A 
ATOM     14  C   UNL     1      27.764  22.813  25.978  0.00  0.00    +0.000 A 
ATOM     15  C   UNL     1      26.468  22.797  25.537  0.00  0.00    +0.000 A 
ATOM     16  C   UNL     1      26.151  23.153  24.251  0.00  0.00    +0.000 A 
ATOM     17  C   UNL     1      27.145  23.542  23.351  0.00  0.00    +0.000 A 
ATOM     18  C   UNL     1      28.438  23.548  23.827  0.00  0.00    +0.000 A 
BRANCH  17  19
ATOM     19  N   UNL     1      26.817  23.909  22.027  0.00  0.00    +0.000 N 
ATOM     20  O   UNL     1      25.905  23.316  21.440  0.00  0.00    +0.000 OA
ATOM     21  O   UNL     1      27.520  24.912  21.427  0.00  0.00    +0.000 OA
ENDBRANCH  17  19
ENDBRANCH   3  13
TORSDOF 3
ENDMDL
MODEL 8
REMARK VINA RESULT:      -6.1     19.104     20.731
REMARK  Name = 
REMARK  3 active torsions:
REMARK  status: ('A' for Active; 'I' for Inactive)
REMARK    1  A    between atoms: C_2  and  C_13
REMARK    2  A    between atoms: N_3  and  C_4
REMARK    3  A    between atoms: C_8  and  N_9
REMARK                            x       y       z     vdW  Elec       q    Type
REMARK                         _______ _______ _______ _____ _____    ______ ____
ROOT
ATOM      1  O   UNL     1      27.999  24.969  26.653  0.00  0.00    +0.000 OA
ATOM      2  C   UNL     1      28.414  23.807  26.850  0.00  0.00    +0.000 C 
ATOM      3  N   UNL     1      28.352  22.875  25.794  0.00  0.00    +0.000 NA
ENDROOT
BRANCH   2   4
ATOM      4  C   UNL     1      28.972  23.349  28.145  0.00  0.00    +0.000 A 
ATOM      5  C   UNL     1      28.187  23.308  29.260  0.00  0.00    +0.000 A 
ATOM      6  S   UNL     1      29.239  22.725  30.466  0.00  0.00    +0.000 S 
ATOM      7  C   UNL     1      30.648  22.547  29.524  0.00  0.00    +0.000 A 
ATOM      8  C   UNL     1      30.250  22.955  28.275  0.00  0.00    +0.000 A 
ATOM      9  C   UNL     1      31.375  22.878  27.253  0.00  0.00    +0.000 C 
ATOM     10  C   UNL     1      32.512  23.682  27.869  0.00  0.00    +0.000 C 
ATOM     11  C   UNL     1      33.054  23.023  29.099  0.00  0.00    +0.000 C 
ATOM     12  C   UNL     1      32.072  22.090  29.752  0.00  0.00    +0.000 C 
ENDBRANCH   2   4
BRANCH   3  13
ATOM     13  C   UNL     1      27.822  23.265  24.520  0.00  0.00    +0.000 A 
ATOM     14  C   UNL     1      26.486  22.990  24.284  0.00  0.00    +0.000 A 
ATOM     15  C   UNL     1      25.943  23.347  23.079  0.00  0.00    +0.000 A 
ATOM     16  C   UNL     1      26.697  23.967  22.116  0.00  0.00    +0.000 A 
ATOM     17  C   UNL     1      28.047  24.252  22.337  0.00  0.00    +0.000 A 
ATOM     18  C   UNL     1      28.561  23.880  23.560  0.00  0.00    +0.000 A 
BRANCH  17  19
ATOM     19  N   UNL     1      28.822  24.890  21.345  0.00  0.00    +0.000 N 
ATOM     20  O   UNL     1      29.747  24.273  20.805  0.00  0.00    +0.000 OA
ATOM     21  O   UNL     1      28.530  26.179  21.008  0.00  0.00    +0.000 OA
ENDBRANCH  17  19
ENDBRANCH   3  13
TORSDOF 3
ENDMDL
MODEL 9
REMARK VINA RESULT:      -6.1      3.327      4.693
REMARK  Name = 
REMARK  3 active torsions:
REMARK  status: ('A' for Active; 'I' for Inactive)
REMARK    1  A    between atoms: C_2  and  C_13
REMARK    2  A    between atoms: N_3  and  C_4
REMARK    3  A    between atoms: C_8  and  N_9
REMARK                            x       y       z     vdW  Elec       q    Type
REMARK                         _______ _______ _______ _____ _____    ______ ____
ROOT
ATOM      1  O   UNL     1      18.861   9.595  37.275  0.00  0.00    +0.000 OA
ATOM      2  C   UNL     1      19.300  10.682  37.708  0.00  0.00    +0.000 C 
ATOM      3  N   UNL     1      18.507  11.839  37.569  0.00  0.00    +0.000 NA
ENDROOT
BRANCH   2   4
ATOM      4  C   UNL     1      20.621  10.823  38.365  0.00  0.00    +0.000 A 
ATOM      5  C   UNL     1      20.736  11.485  39.553  0.00  0.00    +0.000 A 
ATOM      6  S   UNL     1      22.399  11.382  39.906  0.00  0.00    +0.000 S 
ATOM      7  C   UNL     1      22.907  10.504  38.538  0.00  0.00    +0.000 A 
ATOM      8  C   UNL     1      21.745  10.311  37.833  0.00  0.00    +0.000 A 
ATOM      9  C   UNL     1      21.968   9.532  36.545  0.00  0.00    +0.000 C 
ATOM     10  C   UNL     1      23.055  10.304  35.810  0.00  0.00    +0.000 C 
ATOM     11  C   UNL     1      24.363  10.246  36.536  0.00  0.00    +0.000 C 
ATOM     12  C   UNL     1      24.213   9.958  38.004  0.00  0.00    +0.000 C 
ENDBRANCH   2   4
BRANCH   3  13
ATOM     13  C   UNL     1      17.221  11.760  36.941  0.00  0.00    +0.000 A 
ATOM     14  C   UNL     1      17.174  11.967  35.574  0.00  0.00    +0.000 A 
ATOM     15  C   UNL     1      15.963  11.900  34.938  0.00  0.00    +0.000 A 
ATOM     16  C   UNL     1      14.811  11.631  35.631  0.00  0.00    +0.000 A 
ATOM     17  C   UNL     1      14.840  11.419  37.012  0.00  0.00    +0.000 A 
ATOM     18  C   UNL     1      16.074  11.494  37.619  0.00  0.00    +0.000 A 
BRANCH  17  19
ATOM     19  N   UNL     1      13.653  11.142  37.725  0.00  0.00    +0.000 N 
ATOM     20  O   UNL     1      12.563  11.237  37.151  0.00  0.00    +0.000 OA
ATOM     21  O   UNL     1      13.742  10.776  39.036  0.00  0.00    +0.000 OA
ENDBRANCH  17  19
ENDBRANCH   3  13
TORSDOF 3
ENDMDL
MODEL 10
REMARK VINA RESULT:      -6.1     18.484     19.488
REMARK  Name = 
REMARK  3 active torsions:
REMARK  status: ('A' for Active; 'I' for Inactive)
REMARK    1  A    between atoms: C_2  and  C_13
REMARK    2  A    between atoms: N_3  and  C_4
REMARK    3  A    between atoms: C_8  and  N_9
REMARK                            x       y       z     vdW  Elec       q    Type
REMARK                         _______ _______ _______ _____ _____    ______ ____
ROOT
ATOM      1  O   UNL     1      26.185  26.369  27.469  0.00  0.00    +0.000 OA
ATOM      2  C   UNL     1      25.333  25.626  28.001  0.00  0.00    +0.000 C 
ATOM      3  N   UNL     1      25.231  24.289  27.566  0.00  0.00    +0.000 NA
ENDROOT
BRANCH   2   4
ATOM      4  C   UNL     1      24.414  26.077  29.073  0.00  0.00    +0.000 A 
ATOM      5  C   UNL     1      24.796  26.016  30.382  0.00  0.00    +0.000 A 
ATOM      6  S   UNL     1      23.447  26.632  31.219  0.00  0.00    +0.000 S 
ATOM      7  C   UNL     1      22.433  26.951  29.888  0.00  0.00    +0.000 A 
ATOM      8  C   UNL     1      23.189  26.561  28.810  0.00  0.00    +0.000 A 
ATOM      9  C   UNL     1      22.463  26.762  27.488  0.00  0.00    +0.000 C 
ATOM     10  C   UNL     1      21.142  26.024  27.657  0.00  0.00    +0.000 C 
ATOM     11  C   UNL     1      20.271  26.676  28.686  0.00  0.00    +0.000 C 
ATOM     12  C   UNL     1      21.042  27.507  29.674  0.00  0.00    +0.000 C 
ENDBRANCH   2   4
BRANCH   3  13
ATOM     13  C   UNL     1      26.095  23.800  26.531  0.00  0.00    +0.000 A 
ATOM     14  C   UNL     1      27.279  23.204  26.929  0.00  0.00    +0.000 A 
ATOM     15  C   UNL     1      28.130  22.725  25.970  0.00  0.00    +0.000 A 
ATOM     16  C   UNL     1      27.826  22.827  24.636  0.00  0.00    +0.000 A 
ATOM     17  C   UNL     1      26.636  23.426  24.217  0.00  0.00    +0.000 A 
ATOM     18  C   UNL     1      25.802  23.896  25.208  0.00  0.00    +0.000 A 
BRANCH  17  19
ATOM     19  N   UNL     1      26.324  23.530  22.844  0.00  0.00    +0.000 N 
ATOM     20  O   UNL     1      26.959  24.317  22.134  0.00  0.00    +0.000 OA
ATOM     21  O   UNL     1      25.323  22.755  22.334  0.00  0.00    +0.000 OA
ENDBRANCH  17  19
ENDBRANCH   3  13
TORSDOF 3
ENDMDL
