MODEL 1
REMARK VINA RESULT:      -6.3      0.000      0.000
REMARK  Name = 
REMARK  2 active torsions:
REMARK  status: ('A' for Active; 'I' for Inactive)
REMARK    1  A    between atoms: C_4  and  S_6
REMARK    2  A    between atoms: S_6  and  C_7
REMARK                            x       y       z     vdW  Elec       q    Type
REMARK                         _______ _______ _______ _____ _____    ______ ____
ROOT
ATOM      1  O   UNL     1      29.612  24.192  21.009  0.00  0.00    +0.000 OA
ATOM      2  C   UNL     1      28.672  24.176  21.864  0.00  0.00    +0.000 C 
ATOM      3  N   UNL     1      28.016  23.058  22.427  0.00  0.00    +0.000 NA
ATOM      4  C   UNL     1      27.013  23.507  23.357  0.00  0.00    +0.000 C 
ATOM      5  O   UNL     1      25.776  23.064  22.867  0.00  0.00    +0.000 OA
ATOM      6  C   UNL     1      27.082  24.970  23.331  0.00  0.00    +0.000 A 
ATOM      7  C   UNL     1      26.397  25.988  23.980  0.00  0.00    +0.000 A 
ATOM      8  C   UNL     1      26.660  27.322  23.776  0.00  0.00    +0.000 A 
ATOM      9  C   UNL     1      27.647  27.691  22.890  0.00  0.00    +0.000 A 
ATOM     10  C   UNL     1      28.340  26.711  22.234  0.00  0.00    +0.000 A 
ATOM     11  C   UNL     1      28.062  25.361  22.451  0.00  0.00    +0.000 A 
ENDROOT
BRANCH   4  12
ATOM     12  S   UNL     1      27.297  22.832  25.016  0.00  0.00    +0.000 S 
BRANCH  12  13
ATOM     13  C   UNL     1      28.565  23.830  25.825  0.00  0.00    +0.000 C 
ATOM     14  C   UNL     1      28.530  23.688  27.327  0.00  0.00    +0.000 C 
ATOM     15  C   UNL     1      29.009  22.308  27.717  0.00  0.00    +0.000 C 
ATOM     16  C   UNL     1      30.395  22.073  27.208  0.00  0.00    +0.000 C 
ATOM     17  C   UNL     1      30.555  22.308  25.745  0.00  0.00    +0.000 C 
ATOM     18  C   UNL     1      29.935  23.592  25.252  0.00  0.00    +0.000 C 
ENDBRANCH  12  13
ENDBRANCH   4  12
TORSDOF 2
ENDMDL
MODEL 2
REMARK VINA RESULT:      -5.8      3.094      5.451
REMARK  Name = 
REMARK  2 active torsions:
REMARK  status: ('A' for Active; 'I' for Inactive)
REMARK    1  A    between atoms: C_4  and  S_6
REMARK    2  A    between atoms: S_6  and  C_7
REMARK                            x       y       z     vdW  Elec       q    Type
REMARK                         _______ _______ _______ _____ _____    ______ ____
ROOT
ATOM      1  O   UNL     1      24.211  26.277  28.075  0.00  0.00    +0.000 OA
ATOM      2  C   UNL     1      25.030  25.397  27.662  0.00  0.00    +0.000 C 
ATOM      3  N   UNL     1      25.411  25.108  26.332  0.00  0.00    +0.000 NA
ATOM      4  C   UNL     1      26.370  24.034  26.330  0.00  0.00    +0.000 C 
ATOM      5  O   UNL     1      25.789  22.972  25.621  0.00  0.00    +0.000 OA
ATOM      6  C   UNL     1      26.554  23.671  27.738  0.00  0.00    +0.000 A 
ATOM      7  C   UNL     1      27.324  22.729  28.406  0.00  0.00    +0.000 A 
ATOM      8  C   UNL     1      27.318  22.586  29.774  0.00  0.00    +0.000 A 
ATOM      9  C   UNL     1      26.520  23.407  30.539  0.00  0.00    +0.000 A 
ATOM     10  C   UNL     1      25.749  24.345  29.908  0.00  0.00    +0.000 A 
ATOM     11  C   UNL     1      25.764  24.478  28.520  0.00  0.00    +0.000 A 
ENDROOT
BRANCH   4  12
ATOM     12  S   UNL     1      27.922  24.531  25.536  0.00  0.00    +0.000 S 
BRANCH  12  13
ATOM     13  C   UNL     1      28.664  23.070  24.779  0.00  0.00    +0.000 C 
ATOM     14  C   UNL     1      29.306  23.382  23.449  0.00  0.00    +0.000 C 
ATOM     15  C   UNL     1      30.551  24.212  23.669  0.00  0.00    +0.000 C 
ATOM     16  C   UNL     1      31.514  23.484  24.550  0.00  0.00    +0.000 C 
ATOM     17  C   UNL     1      30.933  23.029  25.844  0.00  0.00    +0.000 C 
ATOM     18  C   UNL     1      29.593  22.347  25.715  0.00  0.00    +0.000 C 
ENDBRANCH  12  13
ENDBRANCH   4  12
TORSDOF 2
ENDMDL
MODEL 3
REMARK VINA RESULT:      -5.6      3.043      4.323
REMARK  Name = 
REMARK  2 active torsions:
REMARK  status: ('A' for Active; 'I' for Inactive)
REMARK    1  A    between atoms: C_4  and  S_6
REMARK    2  A    between atoms: S_6  and  C_7
REMARK                            x       y       z     vdW  Elec       q    Type
REMARK                         _______ _______ _______ _____ _____    ______ ____
ROOT
ATOM      1  O   UNL     1      31.399  23.056  24.563  0.00  0.00    +0.000 OA
ATOM      2  C   UNL     1      30.247  22.992  25.096  0.00  0.00    +0.000 C 
ATOM      3  N   UNL     1      29.918  22.737  26.447  0.00  0.00    +0.000 NA
ATOM      4  C   UNL     1      28.487  22.761  26.605  0.00  0.00    +0.000 C 
ATOM      5  O   UNL     1      28.104  21.481  27.033  0.00  0.00    +0.000 OA
ATOM      6  C   UNL     1      27.950  23.039  25.271  0.00  0.00    +0.000 A 
ATOM      7  C   UNL     1      26.672  23.185  24.748  0.00  0.00    +0.000 A 
ATOM      8  C   UNL     1      26.429  23.452  23.421  0.00  0.00    +0.000 A 
ATOM      9  C   UNL     1      27.486  23.587  22.551  0.00  0.00    +0.000 A 
ATOM     10  C   UNL     1      28.758  23.448  23.036  0.00  0.00    +0.000 A 
ATOM     11  C   UNL     1      28.990  23.176  24.384  0.00  0.00    +0.000 A 
ENDROOT
BRANCH   4  12
ATOM     12  S   UNL     1      27.975  23.999  27.828  0.00  0.00    +0.000 S 
BRANCH  12  13
ATOM     13  C   UNL     1      26.296  23.607  28.361  0.00  0.00    +0.000 C 
ATOM     14  C   UNL     1      26.262  23.026  29.755  0.00  0.00    +0.000 C 
ATOM     15  C   UNL     1      26.601  24.103  30.760  0.00  0.00    +0.000 C 
ATOM     16  C   UNL     1      25.640  25.241  30.652  0.00  0.00    +0.000 C 
ATOM     17  C   UNL     1      25.515  25.805  29.278  0.00  0.00    +0.000 C 
ATOM     18  C   UNL     1      25.355  24.768  28.195  0.00  0.00    +0.000 C 
ENDBRANCH  12  13
ENDBRANCH   4  12
TORSDOF 2
ENDMDL
MODEL 4
REMARK VINA RESULT:      -5.6     32.900     34.575
REMARK  Name = 
REMARK  2 active torsions:
REMARK  status: ('A' for Active; 'I' for Inactive)
REMARK    1  A    between atoms: C_4  and  S_6
REMARK    2  A    between atoms: S_6  and  C_7
REMARK                            x       y       z     vdW  Elec       q    Type
REMARK                         _______ _______ _______ _____ _____    ______ ____
ROOT
ATOM      1  O   UNL     1      21.016  -9.199  25.001  0.00  0.00    +0.000 OA
ATOM      2  C   UNL     1      19.963  -8.891  25.644  0.00  0.00    +0.000 C 
ATOM      3  N   UNL     1      18.973  -9.751  26.171  0.00  0.00    +0.000 NA
ATOM      4  C   UNL     1      17.958  -8.970  26.827  0.00  0.00    +0.000 C 
ATOM      5  O   UNL     1      16.757  -9.205  26.142  0.00  0.00    +0.000 OA
ATOM      6  C   UNL     1      18.375  -7.575  26.670  0.00  0.00    +0.000 A 
ATOM      7  C   UNL     1      17.847  -6.352  27.062  0.00  0.00    +0.000 A 
ATOM      8  C   UNL     1      18.450  -5.148  26.783  0.00  0.00    +0.000 A 
ATOM      9  C   UNL     1      19.637  -5.129  26.084  0.00  0.00    +0.000 A 
ATOM     10  C   UNL     1      20.182  -6.318  25.685  0.00  0.00    +0.000 A 
ATOM     11  C   UNL     1      19.558  -7.532  25.974  0.00  0.00    +0.000 A 
ENDROOT
BRANCH   4  12
ATOM     12  S   UNL     1      17.778  -9.445  28.568  0.00  0.00    +0.000 S 
BRANCH  12  13
ATOM     13  C   UNL     1      19.184 -10.483  29.020  0.00  0.00    +0.000 C 
ATOM     14  C   UNL     1      20.046  -9.844  30.082  0.00  0.00    +0.000 C 
ATOM     15  C   UNL     1      19.303  -9.838  31.400  0.00  0.00    +0.000 C 
ATOM     16  C   UNL     1      18.937 -11.230  31.800  0.00  0.00    +0.000 C 
ATOM     17  C   UNL     1      18.184 -11.986  30.760  0.00  0.00    +0.000 C 
ATOM     18  C   UNL     1      18.772 -11.886  29.374  0.00  0.00    +0.000 C 
ENDBRANCH  12  13
ENDBRANCH   4  12
TORSDOF 2
ENDMDL
MODEL 5
REMARK VINA RESULT:      -5.5     31.869     33.549
REMARK  Name = 
REMARK  2 active torsions:
REMARK  status: ('A' for Active; 'I' for Inactive)
REMARK    1  A    between atoms: C_4  and  S_6
REMARK    2  A    between atoms: S_6  and  C_7
REMARK                            x       y       z     vdW  Elec       q    Type
REMARK                         _______ _______ _______ _____ _____    ______ ____
ROOT
ATOM      1  O   UNL     1      17.591  -9.353  27.821  0.00  0.00    +0.000 OA
ATOM      2  C   UNL     1      18.573  -8.945  27.125  0.00  0.00    +0.000 C 
ATOM      3  N   UNL     1      19.603  -9.706  26.528  0.00  0.00    +0.000 NA
ATOM      4  C   UNL     1      20.506  -8.829  25.829  0.00  0.00    +0.000 C 
ATOM      5  O   UNL     1      21.760  -8.965  26.442  0.00  0.00    +0.000 OA
ATOM      6  C   UNL     1      19.977  -7.479  26.035  0.00  0.00    +0.000 A 
ATOM      7  C   UNL     1      20.371  -6.209  25.636  0.00  0.00    +0.000 A 
ATOM      8  C   UNL     1      19.681  -5.067  25.970  0.00  0.00    +0.000 A 
ATOM      9  C   UNL     1      18.540  -5.163  26.735  0.00  0.00    +0.000 A 
ATOM     10  C   UNL     1      18.126  -6.401  27.143  0.00  0.00    +0.000 A 
ATOM     11  C   UNL     1      18.836  -7.551  26.798  0.00  0.00    +0.000 A 
ENDROOT
BRANCH   4  12
ATOM     12  S   UNL     1      20.626  -9.264  24.073  0.00  0.00    +0.000 S 
BRANCH  12  13
ATOM     13  C   UNL     1      22.373  -9.326  23.624  0.00  0.00    +0.000 C 
ATOM     14  C   UNL     1      22.616 -10.170  22.396  0.00  0.00    +0.000 C 
ATOM     15  C   UNL     1      22.068  -9.461  21.178  0.00  0.00    +0.000 C 
ATOM     16  C   UNL     1      22.710  -8.121  21.019  0.00  0.00    +0.000 C 
ATOM     17  C   UNL     1      22.626  -7.257  22.231  0.00  0.00    +0.000 C 
ATOM     18  C   UNL     1      22.988  -7.957  23.517  0.00  0.00    +0.000 C 
ENDBRANCH  12  13
ENDBRANCH   4  12
TORSDOF 2
ENDMDL
MODEL 6
REMARK VINA RESULT:      -5.4     19.443     21.176
REMARK  Name = 
REMARK  2 active torsions:
REMARK  status: ('A' for Active; 'I' for Inactive)
REMARK    1  A    between atoms: C_4  and  S_6
REMARK    2  A    between atoms: S_6  and  C_7
REMARK                            x       y       z     vdW  Elec       q    Type
REMARK                         _______ _______ _______ _____ _____    ______ ____
ROOT
ATOM      1  O   UNL     1      23.236  12.327  40.375  0.00  0.00    +0.000 OA
ATOM      2  C   UNL     1      22.473  11.673  39.595  0.00  0.00    +0.000 C 
ATOM      3  N   UNL     1      21.135  11.272  39.810  0.00  0.00    +0.000 NA
ATOM      4  C   UNL     1      20.659  10.554  38.656  0.00  0.00    +0.000 C 
ATOM      5  O   UNL     1      20.348   9.255  39.086  0.00  0.00    +0.000 OA
ATOM      6  C   UNL     1      21.783  10.529  37.718  0.00  0.00    +0.000 A 
ATOM      7  C   UNL     1      21.979  10.003  36.449  0.00  0.00    +0.000 A 
ATOM      8  C   UNL     1      23.165  10.120  35.761  0.00  0.00    +0.000 A 
ATOM      9  C   UNL     1      24.221  10.789  36.337  0.00  0.00    +0.000 A 
ATOM     10  C   UNL     1      24.058  11.319  37.587  0.00  0.00    +0.000 A 
ATOM     11  C   UNL     1      22.851  11.192  38.274  0.00  0.00    +0.000 A 
ENDROOT
BRANCH   4  12
ATOM     12  S   UNL     1      19.185  11.339  37.949  0.00  0.00    +0.000 S 
BRANCH  12  13
ATOM     13  C   UNL     1      17.971  10.051  37.598  0.00  0.00    +0.000 C 
ATOM     14  C   UNL     1      16.562  10.592  37.556  0.00  0.00    +0.000 C 
ATOM     15  C   UNL     1      16.385  11.448  36.322  0.00  0.00    +0.000 C 
ATOM     16  C   UNL     1      16.670  10.653  35.089  0.00  0.00    +0.000 C 
ATOM     17  C   UNL     1      17.999   9.978  35.092  0.00  0.00    +0.000 C 
ATOM     18  C   UNL     1      18.320   9.250  36.373  0.00  0.00    +0.000 C 
ENDBRANCH  12  13
ENDBRANCH   4  12
TORSDOF 2
ENDMDL
MODEL 7
REMARK VINA RESULT:      -5.4     27.804     30.599
REMARK  Name = 
REMARK  2 active torsions:
REMARK  status: ('A' for Active; 'I' for Inactive)
REMARK    1  A    between atoms: C_4  and  S_6
REMARK    2  A    between atoms: S_6  and  C_7
REMARK                            x       y       z     vdW  Elec       q    Type
REMARK                         _______ _______ _______ _____ _____    ______ ____
ROOT
ATOM      1  O   UNL     1      36.244  -6.161  35.257  0.00  0.00    +0.000 OA
ATOM      2  C   UNL     1      35.169  -5.720  34.741  0.00  0.00    +0.000 C 
ATOM      3  N   UNL     1      34.030  -5.199  35.397  0.00  0.00    +0.000 NA
ATOM      4  C   UNL     1      33.047  -4.814  34.418  0.00  0.00    +0.000 C 
ATOM      5  O   UNL     1      31.913  -5.607  34.647  0.00  0.00    +0.000 OA
ATOM      6  C   UNL     1      33.643  -5.134  33.118  0.00  0.00    +0.000 A 
ATOM      7  C   UNL     1      33.223  -5.014  31.801  0.00  0.00    +0.000 A 
ATOM      8  C   UNL     1      33.993  -5.398  30.728  0.00  0.00    +0.000 A 
ATOM      9  C   UNL     1      35.245  -5.928  30.946  0.00  0.00    +0.000 A 
ATOM     10  C   UNL     1      35.687  -6.059  32.234  0.00  0.00    +0.000 A 
ATOM     11  C   UNL     1      34.894  -5.666  33.312  0.00  0.00    +0.000 A 
ENDROOT
BRANCH   4  12
ATOM     12  S   UNL     1      32.615  -3.060  34.567  0.00  0.00    +0.000 S 
BRANCH  12  13
ATOM     13  C   UNL     1      34.123  -2.087  34.376  0.00  0.00    +0.000 C 
ATOM     14  C   UNL     1      33.960  -0.975  33.368  0.00  0.00    +0.000 C 
ATOM     15  C   UNL     1      33.043   0.088  33.931  0.00  0.00    +0.000 C 
ATOM     16  C   UNL     1      33.594   0.628  35.211  0.00  0.00    +0.000 C 
ATOM     17  C   UNL     1      33.902  -0.414  36.230  0.00  0.00    +0.000 C 
ATOM     18  C   UNL     1      34.663  -1.600  35.692  0.00  0.00    +0.000 C 
ENDBRANCH  12  13
ENDBRANCH   4  12
TORSDOF 2
ENDMDL
MODEL 8
REMARK VINA RESULT:      -5.3     29.680     31.650
REMARK  Name = 
REMARK  2 active torsions:
REMARK  status: ('A' for Active; 'I' for Inactive)
REMARK    1  A    between atoms: C_4  and  S_6
REMARK    2  A    between atoms: S_6  and  C_7
REMARK                            x       y       z     vdW  Elec       q    Type
REMARK                         _______ _______ _______ _____ _____    ______ ____
ROOT
ATOM      1  O   UNL     1      30.923  -5.967  36.054  0.00  0.00    +0.000 OA
ATOM      2  C   UNL     1      31.778  -5.780  35.132  0.00  0.00    +0.000 C 
ATOM      3  N   UNL     1      32.416  -6.742  34.318  0.00  0.00    +0.000 NA
ATOM      4  C   UNL     1      33.309  -6.081  33.402  0.00  0.00    +0.000 C 
ATOM      5  O   UNL     1      34.602  -6.540  33.693  0.00  0.00    +0.000 OA
ATOM      6  C   UNL     1      33.190  -4.653  33.704  0.00  0.00    +0.000 A 
ATOM      7  C   UNL     1      33.774  -3.500  33.195  0.00  0.00    +0.000 A 
ATOM      8  C   UNL     1      33.484  -2.240  33.664  0.00  0.00    +0.000 A 
ATOM      9  C   UNL     1      32.574  -2.089  34.686  0.00  0.00    +0.000 A 
ATOM     10  C   UNL     1      31.982  -3.206  35.208  0.00  0.00    +0.000 A 
ATOM     11  C   UNL     1      32.286  -4.478  34.722  0.00  0.00    +0.000 A 
ENDROOT
BRANCH   4  12
ATOM     12  S   UNL     1      32.892  -6.461  31.679  0.00  0.00    +0.000 S 
BRANCH  12  13
ATOM     13  C   UNL     1      34.375  -6.234  30.675  0.00  0.00    +0.000 C 
ATOM     14  C   UNL     1      34.977  -7.549  30.242  0.00  0.00    +0.000 C 
ATOM     15  C   UNL     1      34.077  -8.204  29.218  0.00  0.00    +0.000 C 
ATOM     16  C   UNL     1      33.889  -7.308  28.037  0.00  0.00    +0.000 C 
ATOM     17  C   UNL     1      33.410  -5.940  28.381  0.00  0.00    +0.000 C 
ATOM     18  C   UNL     1      34.151  -5.292  29.524  0.00  0.00    +0.000 C 
ENDBRANCH  12  13
ENDBRANCH   4  12
TORSDOF 2
ENDMDL
MODEL 9
REMARK VINA RESULT:      -5.1      2.043      2.790
REMARK  Name = 
REMARK  2 active torsions:
REMARK  status: ('A' for Active; 'I' for Inactive)
REMARK    1  A    between atoms: C_4  and  S_6
REMARK    2  A    between atoms: S_6  and  C_7
REMARK                            x       y       z     vdW  Elec       q    Type
REMARK                         _______ _______ _______ _____ _____    ______ ____
ROOT
ATOM      1  O   UNL     1      26.671  27.581  22.883  0.00  0.00    +0.000 OA
ATOM      2  C   UNL     1      26.662  26.364  23.252  0.00  0.00    +0.000 C 
ATOM      3  N   UNL     1      27.196  25.240  22.583  0.00  0.00    +0.000 NA
ATOM      4  C   UNL     1      26.962  24.057  23.371  0.00  0.00    +0.000 C 
ATOM      5  O   UNL     1      26.148  23.212  22.602  0.00  0.00    +0.000 OA
ATOM      6  C   UNL     1      26.245  24.516  24.563  0.00  0.00    +0.000 A 
ATOM      7  C   UNL     1      25.734  23.889  25.691  0.00  0.00    +0.000 A 
ATOM      8  C   UNL     1      25.085  24.565  26.698  0.00  0.00    +0.000 A 
ATOM      9  C   UNL     1      24.923  25.929  26.605  0.00  0.00    +0.000 A 
ATOM     10  C   UNL     1      25.416  26.575  25.504  0.00  0.00    +0.000 A 
ATOM     11  C   UNL     1      26.072  25.877  24.491  0.00  0.00    +0.000 A 
ENDROOT
BRANCH   4  12
ATOM     12  S   UNL     1      28.515  23.215  23.779  0.00  0.00    +0.000 S 
BRANCH  12  13
ATOM     13  C   UNL     1      29.556  24.364  24.704  0.00  0.00    +0.000 C 
ATOM     14  C   UNL     1      29.407  24.192  26.196  0.00  0.00    +0.000 C 
ATOM     15  C   UNL     1      30.035  22.884  26.621  0.00  0.00    +0.000 C 
ATOM     16  C   UNL     1      31.480  22.850  26.239  0.00  0.00    +0.000 C 
ATOM     17  C   UNL     1      31.736  23.130  24.798  0.00  0.00    +0.000 C 
ATOM     18  C   UNL     1      30.991  24.325  24.257  0.00  0.00    +0.000 C 
ENDBRANCH  12  13
ENDBRANCH   4  12
TORSDOF 2
ENDMDL
MODEL 10
REMARK VINA RESULT:      -5.0      2.937      5.720
REMARK  Name = 
REMARK  2 active torsions:
REMARK  status: ('A' for Active; 'I' for Inactive)
REMARK    1  A    between atoms: C_4  and  S_6
REMARK    2  A    between atoms: S_6  and  C_7
REMARK                            x       y       z     vdW  Elec       q    Type
REMARK                         _______ _______ _______ _____ _____    ______ ____
ROOT
ATOM      1  O   UNL     1      27.848  22.355  28.700  0.00  0.00    +0.000 OA
ATOM      2  C   UNL     1      27.577  22.746  27.522  0.00  0.00    +0.000 C 
ATOM      3  N   UNL     1      26.364  23.281  27.032  0.00  0.00    +0.000 NA
ATOM      4  C   UNL     1      26.507  23.593  25.634  0.00  0.00    +0.000 C 
ATOM      5  O   UNL     1      25.585  22.793  24.943  0.00  0.00    +0.000 OA
ATOM      6  C   UNL     1      27.878  23.212  25.286  0.00  0.00    +0.000 A 
ATOM      7  C   UNL     1      28.632  23.251  24.121  0.00  0.00    +0.000 A 
ATOM      8  C   UNL     1      29.938  22.822  24.055  0.00  0.00    +0.000 A 
ATOM      9  C   UNL     1      30.548  22.329  25.186  0.00  0.00    +0.000 A 
ATOM     10  C   UNL     1      29.830  22.278  26.350  0.00  0.00    +0.000 A 
ATOM     11  C   UNL     1      28.507  22.716  26.402  0.00  0.00    +0.000 A 
ENDROOT
BRANCH   4  12
ATOM     12  S   UNL     1      26.172  25.345  25.307  0.00  0.00    +0.000 S 
BRANCH  12  13
ATOM     13  C   UNL     1      24.651  25.799  26.165  0.00  0.00    +0.000 C 
ATOM     14  C   UNL     1      24.917  26.644  27.388  0.00  0.00    +0.000 C 
ATOM     15  C   UNL     1      25.387  28.017  26.963  0.00  0.00    +0.000 C 
ATOM     16  C   UNL     1      24.363  28.674  26.095  0.00  0.00    +0.000 C 
ATOM     17  C   UNL     1      23.947  27.858  24.919  0.00  0.00    +0.000 C 
ATOM     18  C   UNL     1      23.635  26.418  25.244  0.00  0.00    +0.000 C 
ENDBRANCH  12  13
ENDBRANCH   4  12
TORSDOF 2
ENDMDL
