MODEL 1
REMARK VINA RESULT:      -5.8      0.000      0.000
REMARK  Name = 
REMARK  5 active torsions:
REMARK  status: ('A' for Active; 'I' for Inactive)
REMARK    1  A    between atoms: C_2  and  O_3
REMARK    2  A    between atoms: O_3  and  C_4
REMARK    3  A    between atoms: C_4  and  C_6
REMARK    4  A    between atoms: C_9  and  C_10
REMARK    5  A    between atoms: N_14  and  C_15
REMARK                            x       y       z     vdW  Elec       q    Type
REMARK                         _______ _______ _______ _____ _____    ______ ____
ROOT
ATOM      1  C   UNL     1      28.483  23.755  25.217  0.00  0.00    +0.000 A 
ATOM      2  C   UNL     1      27.291  23.447  24.549  0.00  0.00    +0.000 A 
ATOM      3  C   UNL     1      26.016  22.985  25.131  0.00  0.00    +0.000 C 
ATOM      4  C   UNL     1      27.514  23.654  23.208  0.00  0.00    +0.000 A 
ATOM      5  C   UNL     1      28.806  24.075  23.087  0.00  0.00    +0.000 A 
ATOM      6  N   UNL     1      29.435  24.400  21.843  0.00  0.00    +0.000 NA
ATOM      7  N   UNL     1      29.391  24.135  24.307  0.00  0.00    +0.000 N 
ENDROOT
BRANCH   7   8
ATOM      8  C   UNL     1      30.738  24.537  24.542  0.00  0.00    +0.000 A 
ATOM      9  C   UNL     1      31.773  23.631  24.429  0.00  0.00    +0.000 A 
ATOM     10  C   UNL     1      33.089  23.953  24.642  0.00  0.00    +0.000 A 
ATOM     11  C   UNL     1      33.423  25.236  24.989  0.00  0.00    +0.000 A 
ATOM     12  C   UNL     1      34.857  25.601  25.225  0.00  0.00    +0.000 C 
ATOM     13  C   UNL     1      32.418  26.161  25.110  0.00  0.00    +0.000 A 
ATOM     14  C   UNL     1      31.111  25.807  24.890  0.00  0.00    +0.000 A 
ENDBRANCH   7   8
BRANCH   1  15
ATOM     15  C   UNL     1      28.649  23.662  26.654  0.00  0.00    +0.000 C 
ATOM     16  O   UNL     1      28.468  24.684  27.347  0.00  0.00    +0.000 OA
BRANCH  15  17
ATOM     17  O   UNL     1      29.001  22.494  27.298  0.00  0.00    +0.000 OA
BRANCH  17  19
ATOM     18  C   UNL     1      31.279  22.638  27.891  0.00  0.00    +0.000 C 
ATOM     19  C   UNL     1      30.247  21.842  27.128  0.00  0.00    +0.000 C 
ENDBRANCH  17  19
ENDBRANCH  15  17
ENDBRANCH   1  15
BRANCH   4  20
ATOM     20  C   UNL     1      26.577  23.470  22.116  0.00  0.00    +0.000 C 
ATOM     21  N   UNL     1      25.831  23.327  21.242  0.00  0.00    +0.000 NA
ENDBRANCH   4  20
TORSDOF 5
ENDMDL
MODEL 2
REMARK VINA RESULT:      -5.7     20.317     22.475
REMARK  Name = 
REMARK  5 active torsions:
REMARK  status: ('A' for Active; 'I' for Inactive)
REMARK    1  A    between atoms: C_2  and  O_3
REMARK    2  A    between atoms: O_3  and  C_4
REMARK    3  A    between atoms: C_4  and  C_6
REMARK    4  A    between atoms: C_9  and  C_10
REMARK    5  A    between atoms: N_14  and  C_15
REMARK                            x       y       z     vdW  Elec       q    Type
REMARK                         _______ _______ _______ _____ _____    ______ ____
ROOT
ATOM      1  C   UNL     1      15.770  11.634  36.679  0.00  0.00    +0.000 A 
ATOM      2  C   UNL     1      15.511  11.027  37.914  0.00  0.00    +0.000 A 
ATOM      3  C   UNL     1      16.485  10.493  38.887  0.00  0.00    +0.000 C 
ATOM      4  C   UNL     1      14.146  11.009  38.078  0.00  0.00    +0.000 A 
ATOM      5  C   UNL     1      13.611  11.593  36.967  0.00  0.00    +0.000 A 
ATOM      6  N   UNL     1      12.209  11.770  36.745  0.00  0.00    +0.000 NA
ATOM      7  N   UNL     1      14.599  11.970  36.120  0.00  0.00    +0.000 N 
ENDROOT
BRANCH   7   8
ATOM      8  C   UNL     1      14.390  12.610  34.864  0.00  0.00    +0.000 A 
ATOM      9  C   UNL     1      14.823  12.022  33.693  0.00  0.00    +0.000 A 
ATOM     10  C   UNL     1      14.654  12.586  32.454  0.00  0.00    +0.000 A 
ATOM     11  C   UNL     1      14.025  13.798  32.343  0.00  0.00    +0.000 A 
ATOM     12  C   UNL     1      13.835  14.424  30.995  0.00  0.00    +0.000 C 
ATOM     13  C   UNL     1      13.583  14.410  33.487  0.00  0.00    +0.000 A 
ATOM     14  C   UNL     1      13.767  13.820  34.713  0.00  0.00    +0.000 A 
ENDBRANCH   7   8
BRANCH   1  15
ATOM     15  C   UNL     1      17.102  11.839  36.145  0.00  0.00    +0.000 C 
ATOM     16  O   UNL     1      17.567  12.998  36.120  0.00  0.00    +0.000 OA
BRANCH  15  17
ATOM     17  O   UNL     1      17.886  10.814  35.659  0.00  0.00    +0.000 OA
BRANCH  17  19
ATOM     18  C   UNL     1      17.502   9.997  33.481  0.00  0.00    +0.000 C 
ATOM     19  C   UNL     1      17.377   9.695  34.955  0.00  0.00    +0.000 C 
ENDBRANCH  17  19
ENDBRANCH  15  17
ENDBRANCH   1  15
BRANCH   4  20
ATOM     20  C   UNL     1      13.396  10.482  39.202  0.00  0.00    +0.000 C 
ATOM     21  N   UNL     1      12.794  10.058  40.097  0.00  0.00    +0.000 NA
ENDBRANCH   4  20
TORSDOF 5
ENDMDL
MODEL 3
REMARK VINA RESULT:      -5.7     19.879     22.127
REMARK  Name = 
REMARK  5 active torsions:
REMARK  status: ('A' for Active; 'I' for Inactive)
REMARK    1  A    between atoms: C_2  and  O_3
REMARK    2  A    between atoms: O_3  and  C_4
REMARK    3  A    between atoms: C_4  and  C_6
REMARK    4  A    between atoms: C_9  and  C_10
REMARK    5  A    between atoms: N_14  and  C_15
REMARK                            x       y       z     vdW  Elec       q    Type
REMARK                         _______ _______ _______ _____ _____    ______ ____
ROOT
ATOM      1  C   UNL     1      17.607  10.843  37.847  0.00  0.00    +0.000 A 
ATOM      2  C   UNL     1      16.530  10.477  38.663  0.00  0.00    +0.000 A 
ATOM      3  C   UNL     1      15.099  10.785  38.473  0.00  0.00    +0.000 C 
ATOM      4  C   UNL     1      17.046   9.755  39.714  0.00  0.00    +0.000 A 
ATOM      5  C   UNL     1      18.394   9.695  39.523  0.00  0.00    +0.000 A 
ATOM      6  N   UNL     1      19.305   9.027  40.402  0.00  0.00    +0.000 NA
ATOM      7  N   UNL     1      18.732  10.357  38.390  0.00  0.00    +0.000 N 
ENDROOT
BRANCH   7   8
ATOM      8  C   UNL     1      20.062  10.489  37.893  0.00  0.00    +0.000 A 
ATOM      9  C   UNL     1      20.896  11.480  38.371  0.00  0.00    +0.000 A 
ATOM     10  C   UNL     1      22.184  11.661  37.935  0.00  0.00    +0.000 A 
ATOM     11  C   UNL     1      22.696  10.830  36.974  0.00  0.00    +0.000 A 
ATOM     12  C   UNL     1      24.101  11.018  36.489  0.00  0.00    +0.000 C 
ATOM     13  C   UNL     1      21.893   9.835  36.477  0.00  0.00    +0.000 A 
ATOM     14  C   UNL     1      20.608   9.679  36.934  0.00  0.00    +0.000 A 
ENDBRANCH   7   8
BRANCH   1  15
ATOM     15  C   UNL     1      17.469  11.618  36.630  0.00  0.00    +0.000 C 
ATOM     16  O   UNL     1      17.760  12.832  36.654  0.00  0.00    +0.000 OA
BRANCH  15  17
ATOM     17  O   UNL     1      17.029  11.079  35.439  0.00  0.00    +0.000 OA
BRANCH  17  19
ATOM     18  C   UNL     1      17.601   8.816  35.104  0.00  0.00    +0.000 C 
ATOM     19  C   UNL     1      17.811  10.231  34.618  0.00  0.00    +0.000 C 
ENDBRANCH  17  19
ENDBRANCH  15  17
ENDBRANCH   1  15
BRANCH   4  20
ATOM     20  C   UNL     1      16.320   9.161  40.821  0.00  0.00    +0.000 C 
ATOM     21  N   UNL     1      15.739   8.684  41.702  0.00  0.00    +0.000 NA
ENDBRANCH   4  20
TORSDOF 5
ENDMDL
MODEL 4
REMARK VINA RESULT:      -5.6     20.434     22.529
REMARK  Name = 
REMARK  5 active torsions:
REMARK  status: ('A' for Active; 'I' for Inactive)
REMARK    1  A    between atoms: C_2  and  O_3
REMARK    2  A    between atoms: O_3  and  C_4
REMARK    3  A    between atoms: C_4  and  C_6
REMARK    4  A    between atoms: C_9  and  C_10
REMARK    5  A    between atoms: N_14  and  C_15
REMARK                            x       y       z     vdW  Elec       q    Type
REMARK                         _______ _______ _______ _____ _____    ______ ____
ROOT
ATOM      1  C   UNL     1      18.258   9.853  39.495  0.00  0.00    +0.000 A 
ATOM      2  C   UNL     1      16.866   9.980  39.575  0.00  0.00    +0.000 A 
ATOM      3  C   UNL     1      15.970   9.509  40.650  0.00  0.00    +0.000 C 
ATOM      4  C   UNL     1      16.454  10.639  38.440  0.00  0.00    +0.000 A 
ATOM      5  C   UNL     1      17.576  10.897  37.709  0.00  0.00    +0.000 A 
ATOM      6  N   UNL     1      17.579  11.574  36.448  0.00  0.00    +0.000 NA
ATOM      7  N   UNL     1      18.669  10.419  38.352  0.00  0.00    +0.000 N 
ENDROOT
BRANCH   7   8
ATOM      8  C   UNL     1      20.005  10.519  37.865  0.00  0.00    +0.000 A 
ATOM      9  C   UNL     1      20.850  11.508  38.327  0.00  0.00    +0.000 A 
ATOM     10  C   UNL     1      22.144  11.659  37.900  0.00  0.00    +0.000 A 
ATOM     11  C   UNL     1      22.652  10.797  36.964  0.00  0.00    +0.000 A 
ATOM     12  C   UNL     1      24.065  10.953  36.489  0.00  0.00    +0.000 C 
ATOM     13  C   UNL     1      21.839   9.804  36.483  0.00  0.00    +0.000 A 
ATOM     14  C   UNL     1      20.548   9.678  36.931  0.00  0.00    +0.000 A 
ENDBRANCH   7   8
BRANCH   1  15
ATOM     15  C   UNL     1      19.069   9.210  40.511  0.00  0.00    +0.000 C 
ATOM     16  O   UNL     1      19.514   9.901  41.450  0.00  0.00    +0.000 OA
BRANCH  15  17
ATOM     17  O   UNL     1      19.376   7.866  40.490  0.00  0.00    +0.000 OA
BRANCH  17  19
ATOM     18  C   UNL     1      17.769   6.198  40.932  0.00  0.00    +0.000 C 
ATOM     19  C   UNL     1      18.579   6.882  39.856  0.00  0.00    +0.000 C 
ENDBRANCH  17  19
ENDBRANCH  15  17
ENDBRANCH   1  15
BRANCH   4  20
ATOM     20  C   UNL     1      15.099  11.002  38.070  0.00  0.00    +0.000 C 
ATOM     21  N   UNL     1      14.017  11.293  37.778  0.00  0.00    +0.000 NA
ENDBRANCH   4  20
TORSDOF 5
ENDMDL
MODEL 5
REMARK VINA RESULT:      -5.2      2.307      3.810
REMARK  Name = 
REMARK  5 active torsions:
REMARK  status: ('A' for Active; 'I' for Inactive)
REMARK    1  A    between atoms: C_2  and  O_3
REMARK    2  A    between atoms: O_3  and  C_4
REMARK    3  A    between atoms: C_4  and  C_6
REMARK    4  A    between atoms: C_9  and  C_10
REMARK    5  A    between atoms: N_14  and  C_15
REMARK                            x       y       z     vdW  Elec       q    Type
REMARK                         _______ _______ _______ _____ _____    ______ ____
ROOT
ATOM      1  C   UNL     1      28.461  22.978  26.935  0.00  0.00    +0.000 A 
ATOM      2  C   UNL     1      27.738  23.076  25.741  0.00  0.00    +0.000 A 
ATOM      3  C   UNL     1      26.274  23.165  25.568  0.00  0.00    +0.000 C 
ATOM      4  C   UNL     1      28.651  23.076  24.713  0.00  0.00    +0.000 A 
ATOM      5  C   UNL     1      29.885  22.981  25.287  0.00  0.00    +0.000 A 
ATOM      6  N   UNL     1      31.115  22.949  24.556  0.00  0.00    +0.000 NA
ATOM      7  N   UNL     1      29.766  22.921  26.635  0.00  0.00    +0.000 N 
ENDROOT
BRANCH   7   8
ATOM      8  C   UNL     1      30.860  22.817  27.543  0.00  0.00    +0.000 A 
ATOM      9  C   UNL     1      31.567  23.939  27.925  0.00  0.00    +0.000 A 
ATOM     10  C   UNL     1      32.629  23.907  28.793  0.00  0.00    +0.000 A 
ATOM     11  C   UNL     1      33.032  22.709  29.324  0.00  0.00    +0.000 A 
ATOM     12  C   UNL     1      34.191  22.661  30.272  0.00  0.00    +0.000 C 
ATOM     13  C   UNL     1      32.351  21.575  28.964  0.00  0.00    +0.000 A 
ATOM     14  C   UNL     1      31.293  21.640  28.093  0.00  0.00    +0.000 A 
ENDBRANCH   7   8
BRANCH   1  15
ATOM     15  C   UNL     1      27.848  22.948  28.249  0.00  0.00    +0.000 C 
ATOM     16  O   UNL     1      27.719  21.849  28.827  0.00  0.00    +0.000 OA
BRANCH  15  17
ATOM     17  O   UNL     1      27.395  24.079  28.895  0.00  0.00    +0.000 OA
BRANCH  17  19
ATOM     18  C   UNL     1      25.347  25.202  28.575  0.00  0.00    +0.000 C 
ATOM     19  C   UNL     1      26.094  24.212  29.438  0.00  0.00    +0.000 C 
ENDBRANCH  17  19
ENDBRANCH  15  17
ENDBRANCH   1  15
BRANCH   4  20
ATOM     20  C   UNL     1      28.384  23.161  23.290  0.00  0.00    +0.000 C 
ATOM     21  N   UNL     1      28.175  23.230  22.153  0.00  0.00    +0.000 NA
ENDBRANCH   4  20
TORSDOF 5
ENDMDL
MODEL 6
REMARK VINA RESULT:      -5.1      2.584      4.794
REMARK  Name = 
REMARK  5 active torsions:
REMARK  status: ('A' for Active; 'I' for Inactive)
REMARK    1  A    between atoms: C_2  and  O_3
REMARK    2  A    between atoms: O_3  and  C_4
REMARK    3  A    between atoms: C_4  and  C_6
REMARK    4  A    between atoms: C_9  and  C_10
REMARK    5  A    between atoms: N_14  and  C_15
REMARK                            x       y       z     vdW  Elec       q    Type
REMARK                         _______ _______ _______ _____ _____    ______ ____
ROOT
ATOM      1  C   UNL     1      28.318  23.450  25.786  0.00  0.00    +0.000 A 
ATOM      2  C   UNL     1      28.789  22.758  26.909  0.00  0.00    +0.000 A 
ATOM      3  C   UNL     1      27.999  22.137  27.991  0.00  0.00    +0.000 C 
ATOM      4  C   UNL     1      30.162  22.754  26.835  0.00  0.00    +0.000 A 
ATOM      5  C   UNL     1      30.494  23.426  25.696  0.00  0.00    +0.000 A 
ATOM      6  N   UNL     1      31.837  23.645  25.251  0.00  0.00    +0.000 NA
ATOM      7  N   UNL     1      29.374  23.848  25.062  0.00  0.00    +0.000 N 
ENDROOT
BRANCH   7   8
ATOM      8  C   UNL     1      29.360  24.581  23.840  0.00  0.00    +0.000 A 
ATOM      9  C   UNL     1      29.455  25.958  23.845  0.00  0.00    +0.000 A 
ATOM     10  C   UNL     1      29.447  26.722  22.706  0.00  0.00    +0.000 A 
ATOM     11  C   UNL     1      29.339  26.113  21.483  0.00  0.00    +0.000 A 
ATOM     12  C   UNL     1      29.329  26.937  20.232  0.00  0.00    +0.000 C 
ATOM     13  C   UNL     1      29.243  24.745  21.443  0.00  0.00    +0.000 A 
ATOM     14  C   UNL     1      29.254  24.009  22.601  0.00  0.00    +0.000 A 
ENDBRANCH   7   8
BRANCH   1  15
ATOM     15  C   UNL     1      26.913  23.669  25.504  0.00  0.00    +0.000 C 
ATOM     16  O   UNL     1      26.249  22.738  25.005  0.00  0.00    +0.000 OA
BRANCH  15  17
ATOM     17  O   UNL     1      26.270  24.862  25.759  0.00  0.00    +0.000 OA
BRANCH  17  19
ATOM     18  C   UNL     1      25.378  24.846  27.942  0.00  0.00    +0.000 C 
ATOM     19  C   UNL     1      26.330  25.544  26.999  0.00  0.00    +0.000 C 
ENDBRANCH  17  19
ENDBRANCH  15  17
ENDBRANCH   1  15
BRANCH   4  20
ATOM     20  C   UNL     1      31.097  22.158  27.771  0.00  0.00    +0.000 C 
ATOM     21  N   UNL     1      31.843  21.685  28.520  0.00  0.00    +0.000 NA
ENDBRANCH   4  20
TORSDOF 5
ENDMDL
MODEL 7
REMARK VINA RESULT:      -5.1     20.340     22.361
REMARK  Name = 
REMARK  5 active torsions:
REMARK  status: ('A' for Active; 'I' for Inactive)
REMARK    1  A    between atoms: C_2  and  O_3
REMARK    2  A    between atoms: O_3  and  C_4
REMARK    3  A    between atoms: C_4  and  C_6
REMARK    4  A    between atoms: C_9  and  C_10
REMARK    5  A    between atoms: N_14  and  C_15
REMARK                            x       y       z     vdW  Elec       q    Type
REMARK                         _______ _______ _______ _____ _____    ______ ____
ROOT
ATOM      1  C   UNL     1      20.147  10.915  39.011  0.00  0.00    +0.000 A 
ATOM      2  C   UNL     1      20.356  10.631  40.365  0.00  0.00    +0.000 A 
ATOM      3  C   UNL     1      21.537  10.953  41.191  0.00  0.00    +0.000 C 
ATOM      4  C   UNL     1      19.236   9.973  40.818  0.00  0.00    +0.000 A 
ATOM      5  C   UNL     1      18.385   9.873  39.757  0.00  0.00    +0.000 A 
ATOM      6  N   UNL     1      17.098   9.250  39.811  0.00  0.00    +0.000 NA
ATOM      7  N   UNL     1      18.941  10.445  38.662  0.00  0.00    +0.000 N 
ENDROOT
BRANCH   7   8
ATOM      8  C   UNL     1      18.320  10.516  37.381  0.00  0.00    +0.000 A 
ATOM      9  C   UNL     1      18.455   9.484  36.474  0.00  0.00    +0.000 A 
ATOM     10  C   UNL     1      17.885   9.491  35.227  0.00  0.00    +0.000 A 
ATOM     11  C   UNL     1      17.136  10.568  34.832  0.00  0.00    +0.000 A 
ATOM     12  C   UNL     1      16.508  10.588  33.472  0.00  0.00    +0.000 C 
ATOM     13  C   UNL     1      16.982  11.612  35.708  0.00  0.00    +0.000 A 
ATOM     14  C   UNL     1      17.566  11.575  36.950  0.00  0.00    +0.000 A 
ENDBRANCH   7   8
BRANCH   1  15
ATOM     15  C   UNL     1      21.108  11.607  38.174  0.00  0.00    +0.000 C 
ATOM     16  O   UNL     1      20.987  12.839  38.014  0.00  0.00    +0.000 OA
BRANCH  15  17
ATOM     17  O   UNL     1      22.153  10.969  37.541  0.00  0.00    +0.000 OA
BRANCH  17  19
ATOM     18  C   UNL     1      23.306   9.210  36.475  0.00  0.00    +0.000 C 
ATOM     19  C   UNL     1      21.987   9.936  36.586  0.00  0.00    +0.000 C 
ENDBRANCH  17  19
ENDBRANCH  15  17
ENDBRANCH   1  15
BRANCH   4  20
ATOM     20  C   UNL     1      18.983   9.474  42.157  0.00  0.00    +0.000 C 
ATOM     21  N   UNL     1      18.778   9.080  43.226  0.00  0.00    +0.000 NA
ENDBRANCH   4  20
TORSDOF 5
ENDMDL
MODEL 8
REMARK VINA RESULT:      -5.0      2.716      4.505
REMARK  Name = 
REMARK  5 active torsions:
REMARK  status: ('A' for Active; 'I' for Inactive)
REMARK    1  A    between atoms: C_2  and  O_3
REMARK    2  A    between atoms: O_3  and  C_4
REMARK    3  A    between atoms: C_4  and  C_6
REMARK    4  A    between atoms: C_9  and  C_10
REMARK    5  A    between atoms: N_14  and  C_15
REMARK                            x       y       z     vdW  Elec       q    Type
REMARK                         _______ _______ _______ _____ _____    ______ ____
ROOT
ATOM      1  C   UNL     1      27.666  24.291  26.308  0.00  0.00    +0.000 A 
ATOM      2  C   UNL     1      26.646  24.027  27.230  0.00  0.00    +0.000 A 
ATOM      3  C   UNL     1      25.208  24.341  27.109  0.00  0.00    +0.000 C 
ATOM      4  C   UNL     1      27.227  23.404  28.309  0.00  0.00    +0.000 A 
ATOM      5  C   UNL     1      28.558  23.301  28.031  0.00  0.00    +0.000 A 
ATOM      6  N   UNL     1      29.522  22.708  28.907  0.00  0.00    +0.000 NA
ATOM      7  N   UNL     1      28.821  23.840  26.816  0.00  0.00    +0.000 N 
ENDROOT
BRANCH   7   8
ATOM      8  C   UNL     1      30.113  23.899  26.217  0.00  0.00    +0.000 A 
ATOM      9  C   UNL     1      30.979  24.933  26.510  0.00  0.00    +0.000 A 
ATOM     10  C   UNL     1      32.234  25.048  25.968  0.00  0.00    +0.000 A 
ATOM     11  C   UNL     1      32.678  24.100  25.085  0.00  0.00    +0.000 A 
ATOM     12  C   UNL     1      34.046  24.214  24.485  0.00  0.00    +0.000 C 
ATOM     13  C   UNL     1      31.842  23.058  24.772  0.00  0.00    +0.000 A 
ATOM     14  C   UNL     1      30.592  22.972  25.331  0.00  0.00    +0.000 A 
ENDBRANCH   7   8
BRANCH   1  15
ATOM     15  C   UNL     1      27.450  24.944  25.031  0.00  0.00    +0.000 C 
ATOM     16  O   UNL     1      27.009  26.111  25.021  0.00  0.00    +0.000 OA
BRANCH  15  17
ATOM     17  O   UNL     1      27.708  24.336  23.821  0.00  0.00    +0.000 OA
BRANCH  17  19
ATOM     18  C   UNL     1      25.681  23.205  23.405  0.00  0.00    +0.000 C 
ATOM     19  C   UNL     1      26.729  24.121  22.819  0.00  0.00    +0.000 C 
ENDBRANCH  17  19
ENDBRANCH  15  17
ENDBRANCH   1  15
BRANCH   4  20
ATOM     20  C   UNL     1      26.576  22.936  29.518  0.00  0.00    +0.000 C 
ATOM     21  N   UNL     1      26.055  22.567  30.485  0.00  0.00    +0.000 NA
ENDBRANCH   4  20
TORSDOF 5
ENDMDL
MODEL 9
REMARK VINA RESULT:      -5.0     21.694     24.046
REMARK  Name = 
REMARK  5 active torsions:
REMARK  status: ('A' for Active; 'I' for Inactive)
REMARK    1  A    between atoms: C_2  and  O_3
REMARK    2  A    between atoms: O_3  and  C_4
REMARK    3  A    between atoms: C_4  and  C_6
REMARK    4  A    between atoms: C_9  and  C_10
REMARK    5  A    between atoms: N_14  and  C_15
REMARK                            x       y       z     vdW  Elec       q    Type
REMARK                         _______ _______ _______ _____ _____    ______ ____
ROOT
ATOM      1  C   UNL     1      34.379   2.820  37.086  0.00  0.00    +0.000 A 
ATOM      2  C   UNL     1      33.964   1.532  36.728  0.00  0.00    +0.000 A 
ATOM      3  C   UNL     1      33.805   0.352  37.601  0.00  0.00    +0.000 C 
ATOM      4  C   UNL     1      33.719   1.548  35.375  0.00  0.00    +0.000 A 
ATOM      5  C   UNL     1      33.982   2.815  34.944  0.00  0.00    +0.000 A 
ATOM      6  N   UNL     1      33.850   3.249  33.587  0.00  0.00    +0.000 NA
ATOM      7  N   UNL     1      34.382   3.584  35.985  0.00  0.00    +0.000 N 
ENDROOT
BRANCH   7   8
ATOM      8  C   UNL     1      34.736   4.962  35.886  0.00  0.00    +0.000 A 
ATOM      9  C   UNL     1      36.032   5.337  35.592  0.00  0.00    +0.000 A 
ATOM     10  C   UNL     1      36.437   6.643  35.484  0.00  0.00    +0.000 A 
ATOM     11  C   UNL     1      35.528   7.650  35.674  0.00  0.00    +0.000 A 
ATOM     12  C   UNL     1      35.959   9.080  35.559  0.00  0.00    +0.000 C 
ATOM     13  C   UNL     1      34.232   7.312  35.968  0.00  0.00    +0.000 A 
ATOM     14  C   UNL     1      33.858   5.996  36.069  0.00  0.00    +0.000 A 
ENDBRANCH   7   8
BRANCH   1  15
ATOM     15  C   UNL     1      34.731   3.207  38.438  0.00  0.00    +0.000 C 
ATOM     16  O   UNL     1      33.858   3.731  39.160  0.00  0.00    +0.000 OA
BRANCH  15  17
ATOM     17  O   UNL     1      35.991   3.027  38.969  0.00  0.00    +0.000 OA
BRANCH  17  19
ATOM     18  C   UNL     1      37.565   1.391  38.334  0.00  0.00    +0.000 C 
ATOM     19  C   UNL     1      37.158   2.838  38.190  0.00  0.00    +0.000 C 
ENDBRANCH  17  19
ENDBRANCH  15  17
ENDBRANCH   1  15
BRANCH   4  20
ATOM     20  C   UNL     1      33.268   0.447  34.543  0.00  0.00    +0.000 C 
ATOM     21  N   UNL     1      32.906  -0.428  33.877  0.00  0.00    +0.000 NA
ENDBRANCH   4  20
TORSDOF 5
ENDMDL
MODEL 10
REMARK VINA RESULT:      -5.0     22.427     24.860
REMARK  Name = 
REMARK  5 active torsions:
REMARK  status: ('A' for Active; 'I' for Inactive)
REMARK    1  A    between atoms: C_2  and  O_3
REMARK    2  A    between atoms: O_3  and  C_4
REMARK    3  A    between atoms: C_4  and  C_6
REMARK    4  A    between atoms: C_9  and  C_10
REMARK    5  A    between atoms: N_14  and  C_15
REMARK                            x       y       z     vdW  Elec       q    Type
REMARK                         _______ _______ _______ _____ _____    ______ ____
ROOT
ATOM      1  C   UNL     1      17.220   9.986  39.018  0.00  0.00    +0.000 A 
ATOM      2  C   UNL     1      16.789  10.631  37.852  0.00  0.00    +0.000 A 
ATOM      3  C   UNL     1      17.590  10.996  36.667  0.00  0.00    +0.000 C 
ATOM      4  C   UNL     1      15.445  10.879  38.000  0.00  0.00    +0.000 A 
ATOM      5  C   UNL     1      15.089  10.391  39.223  0.00  0.00    +0.000 A 
ATOM      6  N   UNL     1      13.765  10.451  39.762  0.00  0.00    +0.000 NA
ATOM      7  N   UNL     1      16.168   9.850  39.839  0.00  0.00    +0.000 N 
ENDROOT
BRANCH   7   8
ATOM      8  C   UNL     1      16.149   9.251  41.131  0.00  0.00    +0.000 A 
ATOM      9  C   UNL     1      15.819   7.919  41.286  0.00  0.00    +0.000 A 
ATOM     10  C   UNL     1      15.782   7.283  42.500  0.00  0.00    +0.000 A 
ATOM     11  C   UNL     1      16.083   7.983  43.639  0.00  0.00    +0.000 A 
ATOM     12  C   UNL     1      16.045   7.299  44.972  0.00  0.00    +0.000 C 
ATOM     13  C   UNL     1      16.415   9.308  43.521  0.00  0.00    +0.000 A 
ATOM     14  C   UNL     1      16.444   9.916  42.292  0.00  0.00    +0.000 A 
ENDBRANCH   7   8
BRANCH   1  15
ATOM     15  C   UNL     1      18.586   9.557  39.245  0.00  0.00    +0.000 C 
ATOM     16  O   UNL     1      18.905   8.387  38.951  0.00  0.00    +0.000 OA
BRANCH  15  17
ATOM     17  O   UNL     1      19.556  10.381  39.775  0.00  0.00    +0.000 OA
BRANCH  17  19
ATOM     18  C   UNL     1      20.217  12.435  38.823  0.00  0.00    +0.000 C 
ATOM     19  C   UNL     1      20.587  10.983  39.011  0.00  0.00    +0.000 C 
ENDBRANCH  17  19
ENDBRANCH  15  17
ENDBRANCH   1  15
BRANCH   4  20
ATOM     20  C   UNL     1      14.555  11.528  37.056  0.00  0.00    +0.000 C 
ATOM     21  N   UNL     1      13.841  12.048  36.306  0.00  0.00    +0.000 NA
ENDBRANCH   4  20
TORSDOF 5
ENDMDL
