MODEL 1
REMARK VINA RESULT:      -7.2      0.000      0.000
REMARK  Name = 
REMARK  3 active torsions:
REMARK  status: ('A' for Active; 'I' for Inactive)
REMARK    1  A    between atoms: C_4  and  N_5
REMARK    2  A    between atoms: N_5  and  N_6
REMARK    3  A    between atoms: C_7  and  C_9
REMARK                            x       y       z     vdW  Elec       q    Type
REMARK                         _______ _______ _______ _____ _____    ______ ____
ROOT
ATOM      1  N   UNL     1      16.300  11.079  33.933  0.00  0.00    +0.000 NA
ATOM      2  C   UNL     1      17.246  10.266  34.639  0.00  0.00    +0.000 C 
ATOM      3  O   UNL     1      18.089   9.642  33.920  0.00  0.00    +0.000 OA
ENDROOT
BRANCH   2   4
ATOM      4  C   UNL     1      17.232  10.165  36.100  0.00  0.00    +0.000 A 
ATOM      5  C   UNL     1      16.264  10.780  36.874  0.00  0.00    +0.000 A 
ATOM      6  C   UNL     1      16.287  10.653  38.241  0.00  0.00    +0.000 A 
ATOM      7  C   UNL     1      17.261   9.918  38.872  0.00  0.00    +0.000 A 
ATOM      8 CL   UNL     1      17.332   9.732  40.606  0.00  0.00    +0.000 Cl
ATOM      9  C   UNL     1      18.240   9.296  38.096  0.00  0.00    +0.000 A 
ATOM     10  C   UNL     1      18.220   9.422  36.718  0.00  0.00    +0.000 A 
ENDBRANCH   2   4
BRANCH   1  11
ATOM     11  N   UNL     1      16.275  11.202  32.548  0.00  0.00    +0.000 NA
BRANCH  11  15
ATOM     12  C   UNL     1      13.430  14.907  32.578  0.00  0.00    +0.000 C 
ATOM     13  C   UNL     1      13.846  13.853  31.344  0.00  0.00    +0.000 C 
ATOM     14  C   UNL     1      14.564  12.828  32.412  0.00  0.00    +0.000 C 
ATOM     15  C   UNL     1      15.527  12.136  31.828  0.00  0.00    +0.000 C 
ATOM     16  C   UNL     1      15.820  12.343  30.393  0.00  0.00    +0.000 C 
ATOM     17  C   UNL     1      15.897  13.786  30.015  0.00  0.00    +0.000 C 
ATOM     18  C   UNL     1      15.277  14.631  31.074  0.00  0.00    +0.000 C 
ENDBRANCH  11  15
ENDBRANCH   1  11
TORSDOF 3
ENDMDL
MODEL 2
REMARK VINA RESULT:      -7.1      2.665      3.615
REMARK  Name = 
REMARK  3 active torsions:
REMARK  status: ('A' for Active; 'I' for Inactive)
REMARK    1  A    between atoms: C_4  and  N_5
REMARK    2  A    between atoms: N_5  and  N_6
REMARK    3  A    between atoms: C_7  and  C_9
REMARK                            x       y       z     vdW  Elec       q    Type
REMARK                         _______ _______ _______ _____ _____    ______ ____
ROOT
ATOM      1  N   UNL     1      14.394  12.622  35.493  0.00  0.00    +0.000 NA
ATOM      2  C   UNL     1      13.583  12.291  36.627  0.00  0.00    +0.000 C 
ATOM      3  O   UNL     1      12.394  12.740  36.610  0.00  0.00    +0.000 OA
ENDROOT
BRANCH   2   4
ATOM      4  C   UNL     1      14.103  11.486  37.735  0.00  0.00    +0.000 A 
ATOM      5  C   UNL     1      15.451  11.210  37.878  0.00  0.00    +0.000 A 
ATOM      6  C   UNL     1      15.895  10.455  38.935  0.00  0.00    +0.000 A 
ATOM      7  C   UNL     1      15.022   9.959  39.873  0.00  0.00    +0.000 A 
ATOM      8 CL   UNL     1      15.539   8.992  41.231  0.00  0.00    +0.000 Cl
ATOM      9  C   UNL     1      13.660  10.235  39.733  0.00  0.00    +0.000 A 
ATOM     10  C   UNL     1      13.210  10.995  38.668  0.00  0.00    +0.000 A 
ENDBRANCH   2   4
BRANCH   1  11
ATOM     11  N   UNL     1      13.943  13.384  34.421  0.00  0.00    +0.000 NA
BRANCH  11  15
ATOM     12  C   UNL     1      15.965  10.824  31.079  0.00  0.00    +0.000 C 
ATOM     13  C   UNL     1      15.635  12.464  31.155  0.00  0.00    +0.000 C 
ATOM     14  C   UNL     1      15.263  12.353  32.754  0.00  0.00    +0.000 C 
ATOM     15  C   UNL     1      14.401  13.290  33.105  0.00  0.00    +0.000 C 
ATOM     16  C   UNL     1      13.913  14.260  32.100  0.00  0.00    +0.000 C 
ATOM     17  C   UNL     1      13.504  13.615  30.817  0.00  0.00    +0.000 C 
ATOM     18  C   UNL     1      14.056  12.232  30.736  0.00  0.00    +0.000 C 
ENDBRANCH  11  15
ENDBRANCH   1  11
TORSDOF 3
ENDMDL
MODEL 3
REMARK VINA RESULT:      -6.8      2.013      2.630
REMARK  Name = 
REMARK  3 active torsions:
REMARK  status: ('A' for Active; 'I' for Inactive)
REMARK    1  A    between atoms: C_4  and  N_5
REMARK    2  A    between atoms: N_5  and  N_6
REMARK    3  A    between atoms: C_7  and  C_9
REMARK                            x       y       z     vdW  Elec       q    Type
REMARK                         _______ _______ _______ _____ _____    ______ ____
ROOT
ATOM      1  N   UNL     1      16.358  11.550  35.823  0.00  0.00    +0.000 NA
ATOM      2  C   UNL     1      16.106  11.002  37.124  0.00  0.00    +0.000 C 
ATOM      3  O   UNL     1      14.916  11.118  37.555  0.00  0.00    +0.000 OA
ENDROOT
BRANCH   2   4
ATOM      4  C   UNL     1      17.164  10.353  37.901  0.00  0.00    +0.000 A 
ATOM      5  C   UNL     1      16.978   9.948  39.210  0.00  0.00    +0.000 A 
ATOM      6  C   UNL     1      17.997   9.338  39.899  0.00  0.00    +0.000 A 
ATOM      7  C   UNL     1      19.219   9.114  39.312  0.00  0.00    +0.000 A 
ATOM      8 CL   UNL     1      20.545   8.346  40.148  0.00  0.00    +0.000 Cl
ATOM      9  C   UNL     1      19.412   9.521  37.990  0.00  0.00    +0.000 A 
ATOM     10  C   UNL     1      18.387  10.136  37.294  0.00  0.00    +0.000 A 
ENDBRANCH   2   4
BRANCH   1  11
ATOM     11  N   UNL     1      15.385  12.176  35.051  0.00  0.00    +0.000 NA
BRANCH  11  15
ATOM     12  C   UNL     1      14.351  13.801  30.796  0.00  0.00    +0.000 C 
ATOM     13  C   UNL     1      14.325  12.243  31.411  0.00  0.00    +0.000 C 
ATOM     14  C   UNL     1      14.516  12.807  32.945  0.00  0.00    +0.000 C 
ATOM     15  C   UNL     1      15.118  11.910  33.707  0.00  0.00    +0.000 C 
ATOM     16  C   UNL     1      15.515  10.603  33.137  0.00  0.00    +0.000 C 
ATOM     17  C   UNL     1      16.200  10.726  31.816  0.00  0.00    +0.000 C 
ATOM     18  C   UNL     1      15.958  12.076  31.232  0.00  0.00    +0.000 C 
ENDBRANCH  11  15
ENDBRANCH   1  11
TORSDOF 3
ENDMDL
MODEL 4
REMARK VINA RESULT:      -6.7      3.285      7.724
REMARK  Name = 
REMARK  3 active torsions:
REMARK  status: ('A' for Active; 'I' for Inactive)
REMARK    1  A    between atoms: C_4  and  N_5
REMARK    2  A    between atoms: N_5  and  N_6
REMARK    3  A    between atoms: C_7  and  C_9
REMARK                            x       y       z     vdW  Elec       q    Type
REMARK                         _______ _______ _______ _____ _____    ______ ____
ROOT
ATOM      1  N   UNL     1      18.009  10.222  36.737  0.00  0.00    +0.000 NA
ATOM      2  C   UNL     1      17.493   9.721  35.497  0.00  0.00    +0.000 C 
ATOM      3  O   UNL     1      17.792   8.518  35.217  0.00  0.00    +0.000 OA
ENDROOT
BRANCH   2   4
ATOM      4  C   UNL     1      16.676  10.554  34.613  0.00  0.00    +0.000 A 
ATOM      5  C   UNL     1      15.750  11.460  35.098  0.00  0.00    +0.000 A 
ATOM      6  C   UNL     1      15.009  12.225  34.231  0.00  0.00    +0.000 A 
ATOM      7  C   UNL     1      15.166  12.114  32.871  0.00  0.00    +0.000 A 
ATOM      8 CL   UNL     1      14.245  13.062  31.731  0.00  0.00    +0.000 Cl
ATOM      9  C   UNL     1      16.100  11.201  32.376  0.00  0.00    +0.000 A 
ATOM     10  C   UNL     1      16.847  10.429  33.247  0.00  0.00    +0.000 A 
ENDBRANCH   2   4
BRANCH   1  11
ATOM     11  N   UNL     1      18.791   9.469  37.606  0.00  0.00    +0.000 NA
BRANCH  11  15
ATOM     12  C   UNL     1      15.640   9.287  41.049  0.00  0.00    +0.000 C 
ATOM     13  C   UNL     1      17.314   9.261  41.092  0.00  0.00    +0.000 C 
ATOM     14  C   UNL     1      17.398   9.683  39.504  0.00  0.00    +0.000 C 
ATOM     15  C   UNL     1      18.510   9.228  38.952  0.00  0.00    +0.000 C 
ATOM     16  C   UNL     1      19.477   8.458  39.765  0.00  0.00    +0.000 C 
ATOM     17  C   UNL     1      18.828   7.404  40.601  0.00  0.00    +0.000 C 
ATOM     18  C   UNL     1      17.363   7.657  40.704  0.00  0.00    +0.000 C 
ENDBRANCH  11  15
ENDBRANCH   1  11
TORSDOF 3
ENDMDL
MODEL 5
REMARK VINA RESULT:      -6.7      3.503      7.355
REMARK  Name = 
REMARK  3 active torsions:
REMARK  status: ('A' for Active; 'I' for Inactive)
REMARK    1  A    between atoms: C_4  and  N_5
REMARK    2  A    between atoms: N_5  and  N_6
REMARK    3  A    between atoms: C_7  and  C_9
REMARK                            x       y       z     vdW  Elec       q    Type
REMARK                         _______ _______ _______ _____ _____    ______ ____
ROOT
ATOM      1  N   UNL     1      17.215  10.453  36.442  0.00  0.00    +0.000 NA
ATOM      2  C   UNL     1      17.183  10.068  35.061  0.00  0.00    +0.000 C 
ATOM      3  O   UNL     1      17.842   9.024  34.760  0.00  0.00    +0.000 OA
ENDROOT
BRANCH   2   4
ATOM      4  C   UNL     1      16.438  10.842  34.066  0.00  0.00    +0.000 A 
ATOM      5  C   UNL     1      16.608  10.657  32.706  0.00  0.00    +0.000 A 
ATOM      6  C   UNL     1      15.883  11.402  31.809  0.00  0.00    +0.000 A 
ATOM      7  C   UNL     1      14.975  12.342  32.233  0.00  0.00    +0.000 A 
ATOM      8 CL   UNL     1      14.034  13.315  31.131  0.00  0.00    +0.000 Cl
ATOM      9  C   UNL     1      14.800  12.533  33.605  0.00  0.00    +0.000 A 
ATOM     10  C   UNL     1      15.529  11.784  34.511  0.00  0.00    +0.000 A 
ENDBRANCH   2   4
BRANCH   1  11
ATOM     11  N   UNL     1      17.911   9.750  37.419  0.00  0.00    +0.000 NA
BRANCH  11  15
ATOM     12  C   UNL     1      22.456  10.358  36.530  0.00  0.00    +0.000 C 
ATOM     13  C   UNL     1      21.631  10.223  37.981  0.00  0.00    +0.000 C 
ATOM     14  C   UNL     1      20.265   9.739  37.203  0.00  0.00    +0.000 C 
ATOM     15  C   UNL     1      19.187  10.064  37.893  0.00  0.00    +0.000 C 
ATOM     16  C   UNL     1      19.322  10.765  39.189  0.00  0.00    +0.000 C 
ATOM     17  C   UNL     1      20.285  11.905  39.138  0.00  0.00    +0.000 C 
ATOM     18  C   UNL     1      21.146  11.800  37.926  0.00  0.00    +0.000 C 
ENDBRANCH  11  15
ENDBRANCH   1  11
TORSDOF 3
ENDMDL
MODEL 6
REMARK VINA RESULT:      -6.4     19.932     21.046
REMARK  Name = 
REMARK  3 active torsions:
REMARK  status: ('A' for Active; 'I' for Inactive)
REMARK    1  A    between atoms: C_4  and  N_5
REMARK    2  A    between atoms: N_5  and  N_6
REMARK    3  A    between atoms: C_7  and  C_9
REMARK                            x       y       z     vdW  Elec       q    Type
REMARK                         _______ _______ _______ _____ _____    ______ ____
ROOT
ATOM      1  N   UNL     1      33.578   2.283  34.588  0.00  0.00    +0.000 NA
ATOM      2  C   UNL     1      33.655   1.246  33.602  0.00  0.00    +0.000 C 
ATOM      3  O   UNL     1      34.049   1.605  32.448  0.00  0.00    +0.000 OA
ENDROOT
BRANCH   2   4
ATOM      4  C   UNL     1      33.297  -0.139  33.915  0.00  0.00    +0.000 A 
ATOM      5  C   UNL     1      33.902  -1.218  33.294  0.00  0.00    +0.000 A 
ATOM      6  C   UNL     1      33.538  -2.500  33.624  0.00  0.00    +0.000 A 
ATOM      7  C   UNL     1      32.573  -2.746  34.571  0.00  0.00    +0.000 A 
ATOM      8 CL   UNL     1      32.076  -4.357  35.019  0.00  0.00    +0.000 Cl
ATOM      9  C   UNL     1      31.960  -1.660  35.200  0.00  0.00    +0.000 A 
ATOM     10  C   UNL     1      32.324  -0.368  34.870  0.00  0.00    +0.000 A 
ENDBRANCH   2   4
BRANCH   1  11
ATOM     11  N   UNL     1      33.905   3.611  34.335  0.00  0.00    +0.000 NA
BRANCH  11  15
ATOM     12  C   UNL     1      36.919   4.035  37.878  0.00  0.00    +0.000 C 
ATOM     13  C   UNL     1      35.942   5.170  37.128  0.00  0.00    +0.000 C 
ATOM     14  C   UNL     1      35.125   3.989  36.324  0.00  0.00    +0.000 C 
ATOM     15  C   UNL     1      34.637   4.444  35.184  0.00  0.00    +0.000 C 
ATOM     16  C   UNL     1      34.859   5.854  34.795  0.00  0.00    +0.000 C 
ATOM     17  C   UNL     1      36.273   6.296  34.983  0.00  0.00    +0.000 C 
ATOM     18  C   UNL     1      36.998   5.343  35.870  0.00  0.00    +0.000 C 
ENDBRANCH  11  15
ENDBRANCH   1  11
TORSDOF 3
ENDMDL
MODEL 7
REMARK VINA RESULT:      -6.4     20.547     22.940
REMARK  Name = 
REMARK  3 active torsions:
REMARK  status: ('A' for Active; 'I' for Inactive)
REMARK    1  A    between atoms: C_4  and  N_5
REMARK    2  A    between atoms: N_5  and  N_6
REMARK    3  A    between atoms: C_7  and  C_9
REMARK                            x       y       z     vdW  Elec       q    Type
REMARK                         _______ _______ _______ _____ _____    ______ ____
ROOT
ATOM      1  N   UNL     1      33.557  -3.032  33.153  0.00  0.00    +0.000 NA
ATOM      2  C   UNL     1      34.052  -2.114  34.136  0.00  0.00    +0.000 C 
ATOM      3  O   UNL     1      34.618  -2.635  35.148  0.00  0.00    +0.000 OA
ENDROOT
BRANCH   2   4
ATOM      4  C   UNL     1      33.906  -0.665  33.976  0.00  0.00    +0.000 A 
ATOM      5  C   UNL     1      33.537   0.161  35.022  0.00  0.00    +0.000 A 
ATOM      6  C   UNL     1      33.417   1.515  34.827  0.00  0.00    +0.000 A 
ATOM      7  C   UNL     1      33.660   2.081  33.599  0.00  0.00    +0.000 A 
ATOM      8 CL   UNL     1      33.517   3.795  33.302  0.00  0.00    +0.000 Cl
ATOM      9  C   UNL     1      34.032   1.251  32.539  0.00  0.00    +0.000 A 
ATOM     10  C   UNL     1      34.153  -0.113  32.733  0.00  0.00    +0.000 A 
ENDBRANCH   2   4
BRANCH   1  11
ATOM     11  N   UNL     1      33.672  -4.414  33.264  0.00  0.00    +0.000 NA
BRANCH  11  15
ATOM     12  C   UNL     1      30.721  -7.045  30.779  0.00  0.00    +0.000 C 
ATOM     13  C   UNL     1      32.394  -7.051  30.858  0.00  0.00    +0.000 C 
ATOM     14  C   UNL     1      32.371  -6.054  32.168  0.00  0.00    +0.000 C 
ATOM     15  C   UNL     1      33.475  -5.332  32.231  0.00  0.00    +0.000 C 
ATOM     16  C   UNL     1      34.525  -5.495  31.201  0.00  0.00    +0.000 C 
ATOM     17  C   UNL     1      33.981  -5.514  29.810  0.00  0.00    +0.000 C 
ATOM     18  C   UNL     1      32.511  -5.761  29.835  0.00  0.00    +0.000 C 
ENDBRANCH  11  15
ENDBRANCH   1  11
TORSDOF 3
ENDMDL
MODEL 8
REMARK VINA RESULT:      -6.3      4.503      7.647
REMARK  Name = 
REMARK  3 active torsions:
REMARK  status: ('A' for Active; 'I' for Inactive)
REMARK    1  A    between atoms: C_4  and  N_5
REMARK    2  A    between atoms: N_5  and  N_6
REMARK    3  A    between atoms: C_7  and  C_9
REMARK                            x       y       z     vdW  Elec       q    Type
REMARK                         _______ _______ _______ _____ _____    ______ ____
ROOT
ATOM      1  N   UNL     1      19.522  11.260  38.073  0.00  0.00    +0.000 NA
ATOM      2  C   UNL     1      18.330  10.472  37.963  0.00  0.00    +0.000 C 
ATOM      3  O   UNL     1      18.458   9.232  38.212  0.00  0.00    +0.000 OA
ENDROOT
BRANCH   2   4
ATOM      4  C   UNL     1      17.048  11.069  37.581  0.00  0.00    +0.000 A 
ATOM      5  C   UNL     1      15.850  10.670  38.146  0.00  0.00    +0.000 A 
ATOM      6  C   UNL     1      14.672  11.262  37.761  0.00  0.00    +0.000 A 
ATOM      7  C   UNL     1      14.651  12.258  36.816  0.00  0.00    +0.000 A 
ATOM      8 CL   UNL     1      13.179  13.037  36.293  0.00  0.00    +0.000 Cl
ATOM      9  C   UNL     1      15.858  12.664  36.242  0.00  0.00    +0.000 A 
ATOM     10  C   UNL     1      17.046  12.069  36.627  0.00  0.00    +0.000 A 
ENDBRANCH   2   4
BRANCH   1  11
ATOM     11  N   UNL     1      20.760  10.736  38.429  0.00  0.00    +0.000 NA
BRANCH  11  15
ATOM     12  C   UNL     1      25.276  11.820  37.927  0.00  0.00    +0.000 C 
ATOM     13  C   UNL     1      24.132  11.336  36.802  0.00  0.00    +0.000 C 
ATOM     14  C   UNL     1      22.919  11.538  37.895  0.00  0.00    +0.000 C 
ATOM     15  C   UNL     1      21.904  10.735  37.627  0.00  0.00    +0.000 C 
ATOM     16  C   UNL     1      21.969   9.824  36.463  0.00  0.00    +0.000 C 
ATOM     17  C   UNL     1      23.267   9.091  36.367  0.00  0.00    +0.000 C 
ATOM     18  C   UNL     1      24.295   9.748  37.223  0.00  0.00    +0.000 C 
ENDBRANCH  11  15
ENDBRANCH   1  11
TORSDOF 3
ENDMDL
MODEL 9
REMARK VINA RESULT:      -6.1     27.647     29.633
REMARK  Name = 
REMARK  3 active torsions:
REMARK  status: ('A' for Active; 'I' for Inactive)
REMARK    1  A    between atoms: C_4  and  N_5
REMARK    2  A    between atoms: N_5  and  N_6
REMARK    3  A    between atoms: C_7  and  C_9
REMARK                            x       y       z     vdW  Elec       q    Type
REMARK                         _______ _______ _______ _____ _____    ______ ____
ROOT
ATOM      1  N   UNL     1      31.014  20.660  11.344  0.00  0.00    +0.000 NA
ATOM      2  C   UNL     1      32.111  20.849  10.440  0.00  0.00    +0.000 C 
ATOM      3  O   UNL     1      31.838  21.451   9.354  0.00  0.00    +0.000 OA
ENDROOT
BRANCH   2   4
ATOM      4  C   UNL     1      33.458  20.371  10.757  0.00  0.00    +0.000 A 
ATOM      5  C   UNL     1      33.940  20.324  12.052  0.00  0.00    +0.000 A 
ATOM      6  C   UNL     1      35.209  19.863  12.303  0.00  0.00    +0.000 A 
ATOM      7  C   UNL     1      36.026  19.436  11.285  0.00  0.00    +0.000 A 
ATOM      8 CL   UNL     1      37.646  18.845  11.555  0.00  0.00    +0.000 Cl
ATOM      9  C   UNL     1      35.544  19.481   9.975  0.00  0.00    +0.000 A 
ATOM     10  C   UNL     1      34.267  19.946   9.719  0.00  0.00    +0.000 A 
ENDBRANCH   2   4
BRANCH   1  11
ATOM     11  N   UNL     1      29.719  21.095  11.083  0.00  0.00    +0.000 NA
BRANCH  11  15
ATOM     12  C   UNL     1      25.822  23.381  12.268  0.00  0.00    +0.000 C 
ATOM     13  C   UNL     1      27.405  23.911  12.129  0.00  0.00    +0.000 C 
ATOM     14  C   UNL     1      27.849  22.507  11.395  0.00  0.00    +0.000 C 
ATOM     15  C   UNL     1      29.125  22.243  11.613  0.00  0.00    +0.000 C 
ATOM     16  C   UNL     1      29.944  23.171  12.424  0.00  0.00    +0.000 C 
ATOM     17  C   UNL     1      29.266  23.599  13.684  0.00  0.00    +0.000 C 
ATOM     18  C   UNL     1      27.807  23.304  13.610  0.00  0.00    +0.000 C 
ENDBRANCH  11  15
ENDBRANCH   1  11
TORSDOF 3
ENDMDL
MODEL 10
REMARK VINA RESULT:      -6.1      3.042      4.578
REMARK  Name = 
REMARK  3 active torsions:
REMARK  status: ('A' for Active; 'I' for Inactive)
REMARK    1  A    between atoms: C_4  and  N_5
REMARK    2  A    between atoms: N_5  and  N_6
REMARK    3  A    between atoms: C_7  and  C_9
REMARK                            x       y       z     vdW  Elec       q    Type
REMARK                         _______ _______ _______ _____ _____    ______ ____
ROOT
ATOM      1  N   UNL     1      17.448   9.976  37.745  0.00  0.00    +0.000 NA
ATOM      2  C   UNL     1      18.206   9.282  38.744  0.00  0.00    +0.000 C 
ATOM      3  O   UNL     1      19.451   9.167  38.516  0.00  0.00    +0.000 OA
ENDROOT
BRANCH   2   4
ATOM      4  C   UNL     1      17.574   8.739  39.948  0.00  0.00    +0.000 A 
ATOM      5  C   UNL     1      17.927   7.513  40.481  0.00  0.00    +0.000 A 
ATOM      6  C   UNL     1      17.311   7.046  41.615  0.00  0.00    +0.000 A 
ATOM      7  C   UNL     1      16.336   7.778  42.248  0.00  0.00    +0.000 A 
ATOM      8 CL   UNL     1      15.522   7.224  43.690  0.00  0.00    +0.000 Cl
ATOM      9  C   UNL     1      15.975   9.017  41.715  0.00  0.00    +0.000 A 
ATOM     10  C   UNL     1      16.594   9.489  40.572  0.00  0.00    +0.000 A 
ENDBRANCH   2   4
BRANCH   1  11
ATOM     11  N   UNL     1      18.005  10.505  36.586  0.00  0.00    +0.000 NA
BRANCH  11  15
ATOM     12  C   UNL     1      16.103  10.546  32.320  0.00  0.00    +0.000 C 
ATOM     13  C   UNL     1      16.431  11.795  33.386  0.00  0.00    +0.000 C 
ATOM     14  C   UNL     1      17.323  10.795  34.341  0.00  0.00    +0.000 C 
ATOM     15  C   UNL     1      17.312  11.206  35.597  0.00  0.00    +0.000 C 
ATOM     16  C   UNL     1      16.563  12.426  35.968  0.00  0.00    +0.000 C 
ATOM     17  C   UNL     1      15.190  12.470  35.382  0.00  0.00    +0.000 C 
ATOM     18  C   UNL     1      15.072  11.484  34.271  0.00  0.00    +0.000 C 
ENDBRANCH  11  15
ENDBRANCH   1  11
TORSDOF 3
ENDMDL
