MODEL 1
REMARK VINA RESULT:      -7.7      0.000      0.000
REMARK  Name = 
REMARK  3 active torsions:
REMARK  status: ('A' for Active; 'I' for Inactive)
REMARK    1  A    between atoms: N_2  and  C_4
REMARK    2  A    between atoms: C_7  and  N_8
REMARK    3  A    between atoms: C_10  and  C_11
REMARK                            x       y       z     vdW  Elec       q    Type
REMARK                         _______ _______ _______ _____ _____    ______ ____
ROOT
ATOM      1  N   UNL     1      16.025  11.354  35.276  0.00  0.00    +0.000 N 
ATOM      2  N   UNL     1      16.063  11.356  33.957  0.00  0.00    +0.000 NA
ATOM      3  C   UNL     1      15.154  12.191  33.394  0.00  0.00    +0.000 A 
ATOM      4  C   UNL     1      14.473  12.769  34.514  0.00  0.00    +0.000 A 
ATOM      5  C   UNL     1      15.015  12.256  35.609  0.00  0.00    +0.000 A 
ATOM      6  N   UNL     1      14.326  12.819  36.753  0.00  0.00    +0.000 NA
ATOM      7  C   UNL     1      12.998  13.250  36.244  0.00  0.00    +0.000 C 
ATOM      8  C   UNL     1      13.359  13.701  34.809  0.00  0.00    +0.000 C 
ENDROOT
BRANCH   1  12
ATOM      9  C   UNL     1      18.462   9.453  38.093  0.00  0.00    +0.000 A 
ATOM     10  C   UNL     1      18.794   9.477  36.737  0.00  0.00    +0.000 A 
ATOM     11  C   UNL     1      17.941  10.107  35.876  0.00  0.00    +0.000 A 
ATOM     12  C   UNL     1      16.752  10.719  36.287  0.00  0.00    +0.000 A 
ATOM     13  C   UNL     1      16.448  10.676  37.597  0.00  0.00    +0.000 A 
ATOM     14  C   UNL     1      17.323  10.032  38.523  0.00  0.00    +0.000 A 
BRANCH   9  16
ATOM     15  O   UNL     1      20.524   9.192  39.058  0.00  0.00    +0.000 OA
ATOM     16  N   UNL     1      19.368   8.821  38.987  0.00  0.00    +0.000 N 
ATOM     17  O   UNL     1      18.958   7.766  39.776  0.00  0.00    +0.000 OA
ENDBRANCH   9  16
ENDBRANCH   1  12
BRANCH   3  18
ATOM     18  C   UNL     1      14.874  12.555  32.070  0.00  0.00    +0.000 C 
ATOM     19  C   UNL     1      14.154  13.540  31.371  0.00  0.00    +0.000 C 
ATOM     20  C   UNL     1      15.484  13.758  30.484  0.00  0.00    +0.000 C 
ATOM     21  C   UNL     1      15.865  12.330  31.010  0.00  0.00    +0.000 C 
ENDBRANCH   3  18
TORSDOF 3
ENDMDL
MODEL 2
REMARK VINA RESULT:      -6.9      3.624      7.493
REMARK  Name = 
REMARK  3 active torsions:
REMARK  status: ('A' for Active; 'I' for Inactive)
REMARK    1  A    between atoms: N_2  and  C_4
REMARK    2  A    between atoms: C_7  and  N_8
REMARK    3  A    between atoms: C_10  and  C_11
REMARK                            x       y       z     vdW  Elec       q    Type
REMARK                         _______ _______ _______ _____ _____    ______ ____
ROOT
ATOM      1  N   UNL     1      17.111  10.367  37.545  0.00  0.00    +0.000 N 
ATOM      2  N   UNL     1      16.459   9.940  38.609  0.00  0.00    +0.000 NA
ATOM      3  C   UNL     1      17.266   9.687  39.670  0.00  0.00    +0.000 A 
ATOM      4  C   UNL     1      18.579   9.998  39.188  0.00  0.00    +0.000 A 
ATOM      5  C   UNL     1      18.451  10.401  37.932  0.00  0.00    +0.000 A 
ATOM      6  N   UNL     1      19.773  10.704  37.424  0.00  0.00    +0.000 NA
ATOM      7  C   UNL     1      20.713   9.923  38.270  0.00  0.00    +0.000 C 
ATOM      8  C   UNL     1      19.991   9.967  39.637  0.00  0.00    +0.000 C 
ENDROOT
BRANCH   1  12
ATOM      9  C   UNL     1      16.148  11.328  33.590  0.00  0.00    +0.000 A 
ATOM     10  C   UNL     1      17.083  10.337  33.895  0.00  0.00    +0.000 A 
ATOM     11  C   UNL     1      17.354  10.088  35.210  0.00  0.00    +0.000 A 
ATOM     12  C   UNL     1      16.747  10.785  36.262  0.00  0.00    +0.000 A 
ATOM     13  C   UNL     1      15.856  11.742  35.944  0.00  0.00    +0.000 A 
ATOM     14  C   UNL     1      15.545  12.018  34.579  0.00  0.00    +0.000 A 
BRANCH   9  16
ATOM     15  O   UNL     1      15.345  12.611  31.869  0.00  0.00    +0.000 OA
ATOM     16  N   UNL     1      15.850  11.561  32.220  0.00  0.00    +0.000 N 
ATOM     17  O   UNL     1      16.111  10.597  31.269  0.00  0.00    +0.000 OA
ENDBRANCH   9  16
ENDBRANCH   1  12
BRANCH   3  18
ATOM     18  C   UNL     1      17.022   9.282  40.989  0.00  0.00    +0.000 C 
ATOM     19  C   UNL     1      16.185   9.625  42.066  0.00  0.00    +0.000 C 
ATOM     20  C   UNL     1      15.845   8.052  42.187  0.00  0.00    +0.000 C 
ATOM     21  C   UNL     1      17.176   7.874  41.377  0.00  0.00    +0.000 C 
ENDBRANCH   3  18
TORSDOF 3
ENDMDL
MODEL 3
REMARK VINA RESULT:      -6.9     18.803     20.766
REMARK  Name = 
REMARK  3 active torsions:
REMARK  status: ('A' for Active; 'I' for Inactive)
REMARK    1  A    between atoms: N_2  and  C_4
REMARK    2  A    between atoms: C_7  and  N_8
REMARK    3  A    between atoms: C_10  and  C_11
REMARK                            x       y       z     vdW  Elec       q    Type
REMARK                         _______ _______ _______ _____ _____    ______ ____
ROOT
ATOM      1  N   UNL     1      33.528   0.931  34.932  0.00  0.00    +0.000 N 
ATOM      2  N   UNL     1      33.443   2.045  34.230  0.00  0.00    +0.000 NA
ATOM      3  C   UNL     1      33.769   3.154  34.940  0.00  0.00    +0.000 A 
ATOM      4  C   UNL     1      34.093   2.649  36.242  0.00  0.00    +0.000 A 
ATOM      5  C   UNL     1      33.944   1.334  36.200  0.00  0.00    +0.000 A 
ATOM      6  N   UNL     1      34.252   0.808  37.515  0.00  0.00    +0.000 NA
ATOM      7  C   UNL     1      34.041   1.941  38.454  0.00  0.00    +0.000 C 
ATOM      8  C   UNL     1      34.488   3.139  37.584  0.00  0.00    +0.000 C 
ENDROOT
BRANCH   1  12
ATOM      9  C   UNL     1      32.673  -3.111  34.276  0.00  0.00    +0.000 A 
ATOM     10  C   UNL     1      32.004  -2.371  35.254  0.00  0.00    +0.000 A 
ATOM     11  C   UNL     1      32.348  -1.059  35.417  0.00  0.00    +0.000 A 
ATOM     12  C   UNL     1      33.340  -0.428  34.660  0.00  0.00    +0.000 A 
ATOM     13  C   UNL     1      33.978  -1.162  33.729  0.00  0.00    +0.000 A 
ATOM     14  C   UNL     1      33.636  -2.533  33.529  0.00  0.00    +0.000 A 
BRANCH   9  16
ATOM     15  O   UNL     1      31.568  -5.019  34.900  0.00  0.00    +0.000 OA
ATOM     16  N   UNL     1      32.291  -4.467  34.092  0.00  0.00    +0.000 N 
ATOM     17  O   UNL     1      32.746  -5.185  33.006  0.00  0.00    +0.000 OA
ENDBRANCH   9  16
ENDBRANCH   1  12
BRANCH   3  18
ATOM     18  C   UNL     1      33.876   4.511  34.608  0.00  0.00    +0.000 C 
ATOM     19  C   UNL     1      33.044   5.634  34.457  0.00  0.00    +0.000 C 
ATOM     20  C   UNL     1      34.093   6.428  35.391  0.00  0.00    +0.000 C 
ATOM     21  C   UNL     1      35.074   5.276  34.977  0.00  0.00    +0.000 C 
ENDBRANCH   3  18
TORSDOF 3
ENDMDL
MODEL 4
REMARK VINA RESULT:      -6.9     28.473     31.097
REMARK  Name = 
REMARK  3 active torsions:
REMARK  status: ('A' for Active; 'I' for Inactive)
REMARK    1  A    between atoms: N_2  and  C_4
REMARK    2  A    between atoms: C_7  and  N_8
REMARK    3  A    between atoms: C_10  and  C_11
REMARK                            x       y       z     vdW  Elec       q    Type
REMARK                         _______ _______ _______ _____ _____    ______ ____
ROOT
ATOM      1  N   UNL     1      31.814  21.504  11.454  0.00  0.00    +0.000 N 
ATOM      2  N   UNL     1      32.652  20.682  12.056  0.00  0.00    +0.000 NA
ATOM      3  C   UNL     1      33.813  20.505  11.377  0.00  0.00    +0.000 A 
ATOM      4  C   UNL     1      33.660  21.322  10.210  0.00  0.00    +0.000 A 
ATOM      5  C   UNL     1      32.471  21.900  10.290  0.00  0.00    +0.000 A 
ATOM      6  N   UNL     1      32.294  22.719   9.107  0.00  0.00    +0.000 NA
ATOM      7  C   UNL     1      33.204  22.141   8.084  0.00  0.00    +0.000 C 
ATOM      8  C   UNL     1      34.385  21.670   8.965  0.00  0.00    +0.000 C 
ENDROOT
BRANCH   1  12
ATOM      9  C   UNL     1      27.906  22.820  12.150  0.00  0.00    +0.000 A 
ATOM     10  C   UNL     1      28.216  21.989  11.072  0.00  0.00    +0.000 A 
ATOM     11  C   UNL     1      29.517  21.611  10.903  0.00  0.00    +0.000 A 
ATOM     12  C   UNL     1      30.551  22.024  11.751  0.00  0.00    +0.000 A 
ATOM     13  C   UNL     1      30.230  22.832  12.779  0.00  0.00    +0.000 A 
ATOM     14  C   UNL     1      28.877  23.237  12.986  0.00  0.00    +0.000 A 
BRANCH   9  16
ATOM     15  O   UNL     1      25.895  22.701  13.243  0.00  0.00    +0.000 OA
ATOM     16  N   UNL     1      26.545  23.186  12.337  0.00  0.00    +0.000 N 
ATOM     17  O   UNL     1      25.934  24.084  11.485  0.00  0.00    +0.000 OA
ENDBRANCH   9  16
ENDBRANCH   1  12
BRANCH   3  18
ATOM     18  C   UNL     1      34.986  19.788  11.649  0.00  0.00    +0.000 C 
ATOM     19  C   UNL     1      36.181  19.426  11.004  0.00  0.00    +0.000 C 
ATOM     20  C   UNL     1      36.950  19.956  12.319  0.00  0.00    +0.000 C 
ATOM     21  C   UNL     1      35.551  19.771  13.005  0.00  0.00    +0.000 C 
ENDBRANCH   3  18
TORSDOF 3
ENDMDL
MODEL 5
REMARK VINA RESULT:      -6.9      3.600      5.658
REMARK  Name = 
REMARK  3 active torsions:
REMARK  status: ('A' for Active; 'I' for Inactive)
REMARK    1  A    between atoms: N_2  and  C_4
REMARK    2  A    between atoms: C_7  and  N_8
REMARK    3  A    between atoms: C_10  and  C_11
REMARK                            x       y       z     vdW  Elec       q    Type
REMARK                         _______ _______ _______ _____ _____    ______ ____
ROOT
ATOM      1  N   UNL     1      18.986  10.698  37.903  0.00  0.00    +0.000 N 
ATOM      2  N   UNL     1      17.941  11.036  37.172  0.00  0.00    +0.000 NA
ATOM      3  C   UNL     1      16.755  10.739  37.759  0.00  0.00    +0.000 A 
ATOM      4  C   UNL     1      17.126  10.140  39.007  0.00  0.00    +0.000 A 
ATOM      5  C   UNL     1      18.449  10.136  39.061  0.00  0.00    +0.000 A 
ATOM      6  N   UNL     1      18.842   9.518  40.311  0.00  0.00    +0.000 NA
ATOM      7  C   UNL     1      17.691   8.667  40.713  0.00  0.00    +0.000 C 
ATOM      8  C   UNL     1      16.502   9.509  40.194  0.00  0.00    +0.000 C 
ENDROOT
BRANCH   1  12
ATOM      9  C   UNL     1      23.109  10.872  37.224  0.00  0.00    +0.000 A 
ATOM     10  C   UNL     1      22.313   9.884  36.640  0.00  0.00    +0.000 A 
ATOM     11  C   UNL     1      20.976   9.885  36.920  0.00  0.00    +0.000 A 
ATOM     12  C   UNL     1      20.372  10.821  37.766  0.00  0.00    +0.000 A 
ATOM     13  C   UNL     1      21.160  11.759  38.324  0.00  0.00    +0.000 A 
ATOM     14  C   UNL     1      22.559  11.789  38.045  0.00  0.00    +0.000 A 
BRANCH   9  16
ATOM     15  O   UNL     1      25.289  11.454  37.629  0.00  0.00    +0.000 OA
ATOM     16  N   UNL     1      24.494  10.883  36.906  0.00  0.00    +0.000 N 
ATOM     17  O   UNL     1      24.959  10.262  35.765  0.00  0.00    +0.000 OA
ENDBRANCH   9  16
ENDBRANCH   1  12
BRANCH   3  18
ATOM     18  C   UNL     1      15.419  10.958  37.394  0.00  0.00    +0.000 C 
ATOM     19  C   UNL     1      14.190  11.261  38.004  0.00  0.00    +0.000 C 
ATOM     20  C   UNL     1      14.024  12.421  36.895  0.00  0.00    +0.000 C 
ATOM     21  C   UNL     1      15.093  11.585  36.107  0.00  0.00    +0.000 C 
ENDBRANCH   3  18
TORSDOF 3
ENDMDL
MODEL 6
REMARK VINA RESULT:      -6.8      3.993      6.861
REMARK  Name = 
REMARK  3 active torsions:
REMARK  status: ('A' for Active; 'I' for Inactive)
REMARK    1  A    between atoms: N_2  and  C_4
REMARK    2  A    between atoms: C_7  and  N_8
REMARK    3  A    between atoms: C_10  and  C_11
REMARK                            x       y       z     vdW  Elec       q    Type
REMARK                         _______ _______ _______ _____ _____    ______ ____
ROOT
ATOM      1  N   UNL     1      19.035  10.191  38.561  0.00  0.00    +0.000 N 
ATOM      2  N   UNL     1      18.618   9.626  39.678  0.00  0.00    +0.000 NA
ATOM      3  C   UNL     1      17.271   9.672  39.832  0.00  0.00    +0.000 A 
ATOM      4  C   UNL     1      16.810  10.355  38.660  0.00  0.00    +0.000 A 
ATOM      5  C   UNL     1      17.877  10.642  37.929  0.00  0.00    +0.000 A 
ATOM      6  N   UNL     1      17.430  11.348  36.746  0.00  0.00    +0.000 NA
ATOM      7  C   UNL     1      16.115  11.940  37.109  0.00  0.00    +0.000 C 
ATOM      8  C   UNL     1      15.552  10.856  38.058  0.00  0.00    +0.000 C 
ENDROOT
BRANCH   1  12
ATOM      9  C   UNL     1      22.853  10.865  36.992  0.00  0.00    +0.000 A 
ATOM     10  C   UNL     1      22.375  11.587  38.087  0.00  0.00    +0.000 A 
ATOM     11  C   UNL     1      21.113  11.319  38.535  0.00  0.00    +0.000 A 
ATOM     12  C   UNL     1      20.278  10.364  37.944  0.00  0.00    +0.000 A 
ATOM     13  C   UNL     1      20.756   9.686  36.884  0.00  0.00    +0.000 A 
ATOM     14  C   UNL     1      22.074   9.938  36.398  0.00  0.00    +0.000 A 
BRANCH   9  16
ATOM     15  O   UNL     1      24.762  10.330  35.842  0.00  0.00    +0.000 OA
ATOM     16  N   UNL     1      24.178  11.129  36.550  0.00  0.00    +0.000 N 
ATOM     17  O   UNL     1      24.829  12.285  36.928  0.00  0.00    +0.000 OA
ENDBRANCH   9  16
ENDBRANCH   1  12
BRANCH   3  18
ATOM     18  C   UNL     1      16.396   9.167  40.805  0.00  0.00    +0.000 C 
ATOM     19  C   UNL     1      15.821   7.941  41.178  0.00  0.00    +0.000 C 
ATOM     20  C   UNL     1      16.294   8.277  42.684  0.00  0.00    +0.000 C 
ATOM     21  C   UNL     1      16.364   9.751  42.152  0.00  0.00    +0.000 C 
ENDBRANCH   3  18
TORSDOF 3
ENDMDL
MODEL 7
REMARK VINA RESULT:      -6.7     21.924     23.441
REMARK  Name = 
REMARK  3 active torsions:
REMARK  status: ('A' for Active; 'I' for Inactive)
REMARK    1  A    between atoms: N_2  and  C_4
REMARK    2  A    between atoms: C_7  and  N_8
REMARK    3  A    between atoms: C_10  and  C_11
REMARK                            x       y       z     vdW  Elec       q    Type
REMARK                         _______ _______ _______ _____ _____    ______ ____
ROOT
ATOM      1  N   UNL     1      22.477  -7.831  24.792  0.00  0.00    +0.000 N 
ATOM      2  N   UNL     1      21.537  -6.906  24.746  0.00  0.00    +0.000 NA
ATOM      3  C   UNL     1      20.472  -7.183  25.539  0.00  0.00    +0.000 A 
ATOM      4  C   UNL     1      20.805  -8.439  26.142  0.00  0.00    +0.000 A 
ATOM      5  C   UNL     1      21.997  -8.790  25.683  0.00  0.00    +0.000 A 
ATOM      6  N   UNL     1      22.342 -10.069  26.271  0.00  0.00    +0.000 NA
ATOM      7  C   UNL     1      21.048 -10.693  26.652  0.00  0.00    +0.000 C 
ATOM      8  C   UNL     1      20.224  -9.449  27.058  0.00  0.00    +0.000 C 
ENDROOT
BRANCH   1  12
ATOM      9  C   UNL     1      26.308  -7.984  23.120  0.00  0.00    +0.000 A 
ATOM     10  C   UNL     1      25.645  -6.771  23.320  0.00  0.00    +0.000 A 
ATOM     11  C   UNL     1      24.391  -6.803  23.860  0.00  0.00    +0.000 A 
ATOM     12  C   UNL     1      23.739  -7.990  24.211  0.00  0.00    +0.000 A 
ATOM     13  C   UNL     1      24.393  -9.148  24.001  0.00  0.00    +0.000 A 
ATOM     14  C   UNL     1      25.708  -9.147  23.447  0.00  0.00    +0.000 A 
BRANCH   9  16
ATOM     15  O   UNL     1      28.354  -8.912  22.665  0.00  0.00    +0.000 OA
ATOM     16  N   UNL     1      27.624  -7.942  22.584  0.00  0.00    +0.000 N 
ATOM     17  O   UNL     1      28.101  -6.798  21.980  0.00  0.00    +0.000 OA
ENDBRANCH   9  16
ENDBRANCH   1  12
BRANCH   3  18
ATOM     18  C   UNL     1      19.296  -6.486  25.847  0.00  0.00    +0.000 C 
ATOM     19  C   UNL     1      18.056  -6.719  26.468  0.00  0.00    +0.000 C 
ATOM     20  C   UNL     1      18.328  -5.375  27.318  0.00  0.00    +0.000 C 
ATOM     21  C   UNL     1      19.342  -5.053  26.165  0.00  0.00    +0.000 C 
ENDBRANCH   3  18
TORSDOF 3
ENDMDL
MODEL 8
REMARK VINA RESULT:      -6.7     18.465     19.960
REMARK  Name = 
REMARK  3 active torsions:
REMARK  status: ('A' for Active; 'I' for Inactive)
REMARK    1  A    between atoms: N_2  and  C_4
REMARK    2  A    between atoms: C_7  and  N_8
REMARK    3  A    between atoms: C_10  and  C_11
REMARK                            x       y       z     vdW  Elec       q    Type
REMARK                         _______ _______ _______ _____ _____    ______ ____
ROOT
ATOM      1  N   UNL     1      34.489   5.882  35.665  0.00  0.00    +0.000 N 
ATOM      2  N   UNL     1      33.854   7.039  35.670  0.00  0.00    +0.000 NA
ATOM      3  C   UNL     1      34.607   8.063  36.144  0.00  0.00    +0.000 A 
ATOM      4  C   UNL     1      35.860   7.450  36.473  0.00  0.00    +0.000 A 
ATOM      5  C   UNL     1      35.756   6.163  36.173  0.00  0.00    +0.000 A 
ATOM      6  N   UNL     1      37.011   5.524  36.515  0.00  0.00    +0.000 NA
ATOM      7  C   UNL     1      37.637   6.399  37.540  0.00  0.00    +0.000 C 
ATOM      8  C   UNL     1      37.174   7.796  37.064  0.00  0.00    +0.000 C 
ENDROOT
BRANCH   1  12
ATOM      9  C   UNL     1      33.592   2.100  34.122  0.00  0.00    +0.000 A 
ATOM     10  C   UNL     1      33.536   3.247  33.326  0.00  0.00    +0.000 A 
ATOM     11  C   UNL     1      33.831   4.448  33.905  0.00  0.00    +0.000 A 
ATOM     12  C   UNL     1      34.175   4.583  35.255  0.00  0.00    +0.000 A 
ATOM     13  C   UNL     1      34.215   3.466  36.004  0.00  0.00    +0.000 A 
ATOM     14  C   UNL     1      33.920   2.195  35.426  0.00  0.00    +0.000 A 
BRANCH   9  16
ATOM     15  O   UNL     1      32.439   0.127  33.948  0.00  0.00    +0.000 OA
ATOM     16  N   UNL     1      33.312   0.850  33.506  0.00  0.00    +0.000 N 
ATOM     17  O   UNL     1      34.035   0.428  32.409  0.00  0.00    +0.000 OA
ENDBRANCH   9  16
ENDBRANCH   1  12
BRANCH   3  18
ATOM     18  C   UNL     1      34.382   9.440  36.280  0.00  0.00    +0.000 C 
ATOM     19  C   UNL     1      34.111  10.375  37.294  0.00  0.00    +0.000 C 
ATOM     20  C   UNL     1      35.297  11.270  36.665  0.00  0.00    +0.000 C 
ATOM     21  C   UNL     1      35.051  10.395  35.387  0.00  0.00    +0.000 C 
ENDBRANCH   3  18
TORSDOF 3
ENDMDL
MODEL 9
REMARK VINA RESULT:      -6.6     21.241     22.731
REMARK  Name = 
REMARK  3 active torsions:
REMARK  status: ('A' for Active; 'I' for Inactive)
REMARK    1  A    between atoms: N_2  and  C_4
REMARK    2  A    between atoms: C_7  and  N_8
REMARK    3  A    between atoms: C_10  and  C_11
REMARK                            x       y       z     vdW  Elec       q    Type
REMARK                         _______ _______ _______ _____ _____    ______ ____
ROOT
ATOM      1  N   UNL     1      20.760  -7.896  25.998  0.00  0.00    +0.000 N 
ATOM      2  N   UNL     1      20.175  -8.854  26.692  0.00  0.00    +0.000 NA
ATOM      3  C   UNL     1      18.980  -8.484  27.218  0.00  0.00    +0.000 A 
ATOM      4  C   UNL     1      18.819  -7.126  26.791  0.00  0.00    +0.000 A 
ATOM      5  C   UNL     1      19.885  -6.813  26.070  0.00  0.00    +0.000 A 
ATOM      6  N   UNL     1      19.745  -5.435  25.643  0.00  0.00    +0.000 NA
ATOM      7  C   UNL     1      18.818  -4.808  26.622  0.00  0.00    +0.000 C 
ATOM      8  C   UNL     1      17.876  -5.992  26.941  0.00  0.00    +0.000 C 
ENDROOT
BRANCH   1  12
ATOM      9  C   UNL     1      24.285  -7.913  23.748  0.00  0.00    +0.000 A 
ATOM     10  C   UNL     1      23.816  -9.066  24.380  0.00  0.00    +0.000 A 
ATOM     11  C   UNL     1      22.663  -8.979  25.108  0.00  0.00    +0.000 A 
ATOM     12  C   UNL     1      21.939  -7.790  25.256  0.00  0.00    +0.000 A 
ATOM     13  C   UNL     1      22.415  -6.689  24.645  0.00  0.00    +0.000 A 
ATOM     14  C   UNL     1      23.612  -6.751  23.870  0.00  0.00    +0.000 A 
BRANCH   9  16
ATOM     15  O   UNL     1      26.300  -7.129  22.988  0.00  0.00    +0.000 OA
ATOM     16  N   UNL     1      25.469  -8.017  22.969  0.00  0.00    +0.000 N 
ATOM     17  O   UNL     1      25.688  -9.117  22.166  0.00  0.00    +0.000 OA
ENDBRANCH   9  16
ENDBRANCH   1  12
BRANCH   3  18
ATOM     18  C   UNL     1      18.003  -9.164  27.958  0.00  0.00    +0.000 C 
ATOM     19  C   UNL     1      17.011 -10.140  27.760  0.00  0.00    +0.000 C 
ATOM     20  C   UNL     1      17.614 -10.891  29.054  0.00  0.00    +0.000 C 
ATOM     21  C   UNL     1      18.230  -9.484  29.373  0.00  0.00    +0.000 C 
ENDBRANCH   3  18
TORSDOF 3
ENDMDL
MODEL 10
REMARK VINA RESULT:      -6.4     18.384     20.520
REMARK  Name = 
REMARK  3 active torsions:
REMARK  status: ('A' for Active; 'I' for Inactive)
REMARK    1  A    between atoms: N_2  and  C_4
REMARK    2  A    between atoms: C_7  and  N_8
REMARK    3  A    between atoms: C_10  and  C_11
REMARK                            x       y       z     vdW  Elec       q    Type
REMARK                         _______ _______ _______ _____ _____    ______ ____
ROOT
ATOM      1  N   UNL     1      29.445  23.332  27.613  0.00  0.00    +0.000 N 
ATOM      2  N   UNL     1      30.499  23.283  28.407  0.00  0.00    +0.000 NA
ATOM      3  C   UNL     1      30.194  22.938  29.683  0.00  0.00    +0.000 A 
ATOM      4  C   UNL     1      28.773  22.757  29.665  0.00  0.00    +0.000 A 
ATOM      5  C   UNL     1      28.365  22.993  28.427  0.00  0.00    +0.000 A 
ATOM      6  N   UNL     1      26.925  22.829  28.394  0.00  0.00    +0.000 NA
ATOM      7  C   UNL     1      26.470  23.036  29.794  0.00  0.00    +0.000 C 
ATOM      8  C   UNL     1      27.656  22.439  30.585  0.00  0.00    +0.000 C 
ENDROOT
BRANCH   1  12
ATOM      9  C   UNL     1      28.890  23.783  23.493  0.00  0.00    +0.000 A 
ATOM     10  C   UNL     1      29.549  22.672  24.025  0.00  0.00    +0.000 A 
ATOM     11  C   UNL     1      29.702  22.602  25.380  0.00  0.00    +0.000 A 
ATOM     12  C   UNL     1      29.240  23.591  26.255  0.00  0.00    +0.000 A 
ATOM     13  C   UNL     1      28.616  24.656  25.720  0.00  0.00    +0.000 A 
ATOM     14  C   UNL     1      28.432  24.754  24.308  0.00  0.00    +0.000 A 
BRANCH   9  16
ATOM     15  O   UNL     1      27.656  23.484  21.585  0.00  0.00    +0.000 OA
ATOM     16  N   UNL     1      28.707  23.836  22.084  0.00  0.00    +0.000 N 
ATOM     17  O   UNL     1      29.724  24.270  21.259  0.00  0.00    +0.000 OA
ENDBRANCH   9  16
ENDBRANCH   1  12
BRANCH   3  18
ATOM     18  C   UNL     1      30.970  22.711  30.829  0.00  0.00    +0.000 C 
ATOM     19  C   UNL     1      30.961  23.037  32.196  0.00  0.00    +0.000 C 
ATOM     20  C   UNL     1      31.217  21.470  32.481  0.00  0.00    +0.000 C 
ATOM     21  C   UNL     1      31.707  21.452  30.991  0.00  0.00    +0.000 C 
ENDBRANCH   3  18
TORSDOF 3
ENDMDL
