MODEL 1
REMARK VINA RESULT:      -8.2      0.000      0.000
REMARK  Name = 
REMARK  7 active torsions:
REMARK  status: ('A' for Active; 'I' for Inactive)
REMARK    1  A    between atoms: C_2  and  O_3
REMARK    2  A    between atoms: O_3  and  C_4
REMARK    3  A    between atoms: C_7  and  N_8
REMARK    4  A    between atoms: C_9  and  C_11
REMARK    5  A    between atoms: C_11  and  N_12
REMARK    6  A    between atoms: C_11  and  C_21
REMARK    7  A    between atoms: C_13  and  C_15
REMARK                            x       y       z     vdW  Elec       q    Type
REMARK                         _______ _______ _______ _____ _____    ______ ____
ROOT
ATOM      1  C   UNL     1      36.830   0.111  14.227  0.00  0.00    +0.000 C 
ENDROOT
BRANCH   1   2
ATOM      2  C   UNL     1      36.407  -0.594  15.621  0.00  0.00    +0.000 C 
ATOM      3  C   UNL     1      37.651  -1.026  16.305  0.00  0.00    +0.000 C 
ATOM      4  C   UNL     1      37.292  -1.561  17.652  0.00  0.00    +0.000 C 
ATOM      5  C   UNL     1      36.567  -2.883  17.352  0.00  0.00    +0.000 C 
ATOM      6  C   UNL     1      35.417  -2.634  16.434  0.00  0.00    +0.000 C 
ATOM      7  C   UNL     1      34.402  -1.759  17.169  0.00  0.00    +0.000 C 
ATOM      8  C   UNL     1      35.066  -0.438  17.583  0.00  0.00    +0.000 C 
ATOM      9  C   UNL     1      36.304  -0.714  18.414  0.00  0.00    +0.000 C 
ATOM     10  C   UNL     1      35.486   0.271  16.355  0.00  0.00    +0.000 C 
ATOM     11  C   UNL     1      35.746  -1.921  15.170  0.00  0.00    +0.000 C 
ENDBRANCH   1   2
BRANCH   1  13
ATOM     12  N   UNL     1      37.208   2.493  15.179  0.00  0.00    +0.000 NA
ATOM     13  C   UNL     1      37.725   1.242  14.973  0.00  0.00    +0.000 C 
ATOM     14  O   UNL     1      38.865   0.878  15.319  0.00  0.00    +0.000 OA
BRANCH  12  18
ATOM     15  C   UNL     1      39.263   5.492  17.335  0.00  0.00    +0.000 A 
ATOM     16  C   UNL     1      39.537   5.269  15.998  0.00  0.00    +0.000 A 
ATOM     17  C   UNL     1      38.893   4.297  15.261  0.00  0.00    +0.000 A 
ATOM     18  C   UNL     1      37.958   3.521  15.843  0.00  0.00    +0.000 A 
ATOM     19  C   UNL     1      37.674   3.730  17.179  0.00  0.00    +0.000 A 
ATOM     20  C   UNL     1      38.302   4.694  17.937  0.00  0.00    +0.000 A 
BRANCH  15  21
ATOM     21  O   UNL     1      39.921   6.482  18.069  0.00  0.00    +0.000 OA
BRANCH  21  23
ATOM     22  C   UNL     1      41.063   6.404  20.133  0.00  0.00    +0.000 C 
ATOM     23  C   UNL     1      39.738   6.532  19.460  0.00  0.00    +0.000 C 
ENDBRANCH  21  23
ENDBRANCH  15  21
ENDBRANCH  12  18
ENDBRANCH   1  13
BRANCH   1  24
ATOM     24  N   UNL     1      37.930  -0.726  13.673  0.00  0.00    +0.000 NA
ATOM     25  C   UNL     1      38.516  -0.817  12.488  0.00  0.00    +0.000 C 
ATOM     26  O   UNL     1      38.189  -0.125  11.541  0.00  0.00    +0.000 OA
BRANCH  25  27
ATOM     27  C   UNL     1      39.618  -1.787  12.266  0.00  0.00    +0.000 A 
ATOM     28  C   UNL     1      39.963  -2.150  10.969  0.00  0.00    +0.000 A 
ATOM     29  C   UNL     1      40.978  -3.037  10.679  0.00  0.00    +0.000 A 
ATOM     30  C   UNL     1      41.660  -3.567  11.752  0.00  0.00    +0.000 A 
ATOM     31  C   UNL     1      41.341  -3.226  13.038  0.00  0.00    +0.000 A 
ATOM     32  C   UNL     1      40.324  -2.340  13.288  0.00  0.00    +0.000 A 
ENDBRANCH  25  27
ENDBRANCH   1  24
TORSDOF 7
ENDMDL
MODEL 2
REMARK VINA RESULT:      -8.1      3.102      5.694
REMARK  Name = 
REMARK  7 active torsions:
REMARK  status: ('A' for Active; 'I' for Inactive)
REMARK    1  A    between atoms: C_2  and  O_3
REMARK    2  A    between atoms: O_3  and  C_4
REMARK    3  A    between atoms: C_7  and  N_8
REMARK    4  A    between atoms: C_9  and  C_11
REMARK    5  A    between atoms: C_11  and  N_12
REMARK    6  A    between atoms: C_11  and  C_21
REMARK    7  A    between atoms: C_13  and  C_15
REMARK                            x       y       z     vdW  Elec       q    Type
REMARK                         _______ _______ _______ _____ _____    ______ ____
ROOT
ATOM      1  C   UNL     1      38.010  -1.314  16.115  0.00  0.00    +0.000 C 
ENDROOT
BRANCH   1   2
ATOM      2  C   UNL     1      39.122  -1.367  14.941  0.00  0.00    +0.000 C 
ATOM      3  C   UNL     1      38.493  -1.993  13.751  0.00  0.00    +0.000 C 
ATOM      4  C   UNL     1      39.461  -1.932  12.615  0.00  0.00    +0.000 C 
ATOM      5  C   UNL     1      40.565  -2.927  13.006  0.00  0.00    +0.000 C 
ATOM      6  C   UNL     1      41.123  -2.568  14.343  0.00  0.00    +0.000 C 
ATOM      7  C   UNL     1      41.811  -1.209  14.221  0.00  0.00    +0.000 C 
ATOM      8  C   UNL     1      40.794  -0.157  13.753  0.00  0.00    +0.000 C 
ATOM      9  C   UNL     1      40.148  -0.599  12.455  0.00  0.00    +0.000 C 
ATOM     10  C   UNL     1      39.735  -0.050  14.779  0.00  0.00    +0.000 C 
ATOM     11  C   UNL     1      40.126  -2.435  15.440  0.00  0.00    +0.000 C 
ENDBRANCH   1   2
BRANCH   1  13
ATOM     12  N   UNL     1      37.394   1.187  15.829  0.00  0.00    +0.000 NA
ATOM     13  C   UNL     1      37.196  -0.100  15.407  0.00  0.00    +0.000 C 
ATOM     14  O   UNL     1      36.420  -0.438  14.494  0.00  0.00    +0.000 OA
BRANCH  12  18
ATOM     15  C   UNL     1      35.588   4.514  13.947  0.00  0.00    +0.000 A 
ATOM     16  C   UNL     1      34.896   3.771  14.886  0.00  0.00    +0.000 A 
ATOM     17  C   UNL     1      35.447   2.676  15.519  0.00  0.00    +0.000 A 
ATOM     18  C   UNL     1      36.705   2.294  15.227  0.00  0.00    +0.000 A 
ATOM     19  C   UNL     1      37.409   3.024  14.289  0.00  0.00    +0.000 A 
ATOM     20  C   UNL     1      36.883   4.122  13.643  0.00  0.00    +0.000 A 
BRANCH  15  21
ATOM     21  O   UNL     1      35.018   5.622  13.316  0.00  0.00    +0.000 OA
BRANCH  21  23
ATOM     22  C   UNL     1      33.665   7.286  14.300  0.00  0.00    +0.000 C 
ATOM     23  C   UNL     1      35.056   6.867  13.963  0.00  0.00    +0.000 C 
ENDBRANCH  21  23
ENDBRANCH  15  21
ENDBRANCH  12  18
ENDBRANCH   1  13
BRANCH   1  24
ATOM     24  N   UNL     1      37.064  -2.428  15.821  0.00  0.00    +0.000 NA
ATOM     25  C   UNL     1      36.842  -3.617  16.359  0.00  0.00    +0.000 C 
ATOM     26  O   UNL     1      37.473  -4.034  17.313  0.00  0.00    +0.000 OA
BRANCH  25  27
ATOM     27  C   UNL     1      35.790  -4.508  15.805  0.00  0.00    +0.000 A 
ATOM     28  C   UNL     1      34.909  -4.018  14.847  0.00  0.00    +0.000 A 
ATOM     29  C   UNL     1      33.912  -4.783  14.279  0.00  0.00    +0.000 A 
ATOM     30  C   UNL     1      33.815  -6.089  14.706  0.00  0.00    +0.000 A 
ATOM     31  C   UNL     1      34.671  -6.595  15.647  0.00  0.00    +0.000 A 
ATOM     32  C   UNL     1      35.650  -5.805  16.191  0.00  0.00    +0.000 A 
ENDBRANCH  25  27
ENDBRANCH   1  24
TORSDOF 7
ENDMDL
MODEL 3
REMARK VINA RESULT:      -7.6      1.198      1.592
REMARK  Name = 
REMARK  7 active torsions:
REMARK  status: ('A' for Active; 'I' for Inactive)
REMARK    1  A    between atoms: C_2  and  O_3
REMARK    2  A    between atoms: O_3  and  C_4
REMARK    3  A    between atoms: C_7  and  N_8
REMARK    4  A    between atoms: C_9  and  C_11
REMARK    5  A    between atoms: C_11  and  N_12
REMARK    6  A    between atoms: C_11  and  C_21
REMARK    7  A    between atoms: C_13  and  C_15
REMARK                            x       y       z     vdW  Elec       q    Type
REMARK                         _______ _______ _______ _____ _____    ______ ____
ROOT
ATOM      1  C   UNL     1      36.712  -0.055  14.189  0.00  0.00    +0.000 C 
ENDROOT
BRANCH   1   2
ATOM      2  C   UNL     1      36.226  -0.508  15.664  0.00  0.00    +0.000 C 
ATOM      3  C   UNL     1      37.438  -0.797  16.470  0.00  0.00    +0.000 C 
ATOM      4  C   UNL     1      37.018  -1.090  17.873  0.00  0.00    +0.000 C 
ATOM      5  C   UNL     1      36.312  -2.452  17.779  0.00  0.00    +0.000 C 
ATOM      6  C   UNL     1      35.206  -2.384  16.780  0.00  0.00    +0.000 C 
ATOM      7  C   UNL     1      34.154  -1.406  17.300  0.00  0.00    +0.000 C 
ATOM      8  C   UNL     1      34.793  -0.024  17.503  0.00  0.00    +0.000 C 
ATOM      9  C   UNL     1      35.991  -0.133  18.426  0.00  0.00    +0.000 C 
ATOM     10  C   UNL     1      35.269   0.462  16.190  0.00  0.00    +0.000 C 
ATOM     11  C   UNL     1      35.593  -1.902  15.425  0.00  0.00    +0.000 C 
ENDBRANCH   1   2
BRANCH   1  13
ATOM     12  N   UNL     1      38.097   1.786  15.377  0.00  0.00    +0.000 NA
ATOM     13  C   UNL     1      36.976   1.478  14.653  0.00  0.00    +0.000 C 
ATOM     14  O   UNL     1      36.107   2.299  14.304  0.00  0.00    +0.000 OA
BRANCH  12  18
ATOM     15  C   UNL     1      39.107   5.748  16.447  0.00  0.00    +0.000 A 
ATOM     16  C   UNL     1      38.213   5.017  17.207  0.00  0.00    +0.000 A 
ATOM     17  C   UNL     1      37.852   3.724  16.889  0.00  0.00    +0.000 A 
ATOM     18  C   UNL     1      38.377   3.129  15.800  0.00  0.00    +0.000 A 
ATOM     19  C   UNL     1      39.271   3.847  15.030  0.00  0.00    +0.000 A 
ATOM     20  C   UNL     1      39.648   5.139  15.325  0.00  0.00    +0.000 A 
BRANCH  15  21
ATOM     21  O   UNL     1      39.465   7.057  16.783  0.00  0.00    +0.000 OA
BRANCH  21  23
ATOM     22  C   UNL     1      41.211   6.662  18.321  0.00  0.00    +0.000 C 
ATOM     23  C   UNL     1      39.897   7.330  18.090  0.00  0.00    +0.000 C 
ENDBRANCH  21  23
ENDBRANCH  15  21
ENDBRANCH  12  18
ENDBRANCH   1  13
BRANCH   1  24
ATOM     24  N   UNL     1      38.127  -0.509  14.076  0.00  0.00    +0.000 NA
ATOM     25  C   UNL     1      38.942  -0.752  13.061  0.00  0.00    +0.000 C 
ATOM     26  O   UNL     1      38.600  -0.620  11.900  0.00  0.00    +0.000 OA
BRANCH  25  27
ATOM     27  C   UNL     1      40.335  -1.205  13.306  0.00  0.00    +0.000 A 
ATOM     28  C   UNL     1      40.786  -2.385  12.726  0.00  0.00    +0.000 A 
ATOM     29  C   UNL     1      42.066  -2.869  12.898  0.00  0.00    +0.000 A 
ATOM     30  C   UNL     1      42.909  -2.119  13.688  0.00  0.00    +0.000 A 
ATOM     31  C   UNL     1      42.489  -0.952  14.270  0.00  0.00    +0.000 A 
ATOM     32  C   UNL     1      41.208  -0.503  14.077  0.00  0.00    +0.000 A 
ENDBRANCH  25  27
ENDBRANCH   1  24
TORSDOF 7
ENDMDL
MODEL 4
REMARK VINA RESULT:      -7.5      3.043      8.317
REMARK  Name = 
REMARK  7 active torsions:
REMARK  status: ('A' for Active; 'I' for Inactive)
REMARK    1  A    between atoms: C_2  and  O_3
REMARK    2  A    between atoms: O_3  and  C_4
REMARK    3  A    between atoms: C_7  and  N_8
REMARK    4  A    between atoms: C_9  and  C_11
REMARK    5  A    between atoms: C_11  and  N_12
REMARK    6  A    between atoms: C_11  and  C_21
REMARK    7  A    between atoms: C_13  and  C_15
REMARK                            x       y       z     vdW  Elec       q    Type
REMARK                         _______ _______ _______ _____ _____    ______ ____
ROOT
ATOM      1  C   UNL     1      37.182   4.810  15.440  0.00  0.00    +0.000 C 
ENDROOT
BRANCH   1   2
ATOM      2  C   UNL     1      37.967   4.308  14.117  0.00  0.00    +0.000 C 
ATOM      3  C   UNL     1      39.188   3.589  14.561  0.00  0.00    +0.000 C 
ATOM      4  C   UNL     1      39.859   3.004  13.361  0.00  0.00    +0.000 C 
ATOM      5  C   UNL     1      40.411   4.224  12.607  0.00  0.00    +0.000 C 
ATOM      6  C   UNL     1      39.308   5.186  12.318  0.00  0.00    +0.000 C 
ATOM      7  C   UNL     1      38.327   4.513  11.359  0.00  0.00    +0.000 C 
ATOM      8  C   UNL     1      37.779   3.229  12.002  0.00  0.00    +0.000 C 
ATOM      9  C   UNL     1      38.922   2.316  12.400  0.00  0.00    +0.000 C 
ATOM     10  C   UNL     1      37.044   3.605  13.229  0.00  0.00    +0.000 C 
ATOM     11  C   UNL     1      38.509   5.620  13.497  0.00  0.00    +0.000 C 
ENDBRANCH   1   2
BRANCH   1  13
ATOM     12  N   UNL     1      35.929   2.541  15.381  0.00  0.00    +0.000 NA
ATOM     13  C   UNL     1      36.915   3.295  15.960  0.00  0.00    +0.000 C 
ATOM     14  O   UNL     1      37.654   2.908  16.884  0.00  0.00    +0.000 OA
BRANCH  12  18
ATOM     15  C   UNL     1      35.262  -1.506  16.401  0.00  0.00    +0.000 A 
ATOM     16  C   UNL     1      34.675  -0.488  17.130  0.00  0.00    +0.000 A 
ATOM     17  C   UNL     1      34.872   0.845  16.833  0.00  0.00    +0.000 A 
ATOM     18  C   UNL     1      35.663   1.194  15.800  0.00  0.00    +0.000 A 
ATOM     19  C   UNL     1      36.258   0.188  15.064  0.00  0.00    +0.000 A 
ATOM     20  C   UNL     1      36.078  -1.150  15.338  0.00  0.00    +0.000 A 
BRANCH  15  21
ATOM     21  O   UNL     1      35.053  -2.852  16.712  0.00  0.00    +0.000 OA
BRANCH  21  23
ATOM     22  C   UNL     1      36.902  -4.317  16.654  0.00  0.00    +0.000 C 
ATOM     23  C   UNL     1      35.687  -3.835  15.937  0.00  0.00    +0.000 C 
ENDBRANCH  21  23
ENDBRANCH  15  21
ENDBRANCH  12  18
ENDBRANCH   1  13
BRANCH   1  24
ATOM     24  N   UNL     1      38.243   5.202  16.410  0.00  0.00    +0.000 NA
ATOM     25  C   UNL     1      38.536   6.321  17.056  0.00  0.00    +0.000 C 
ATOM     26  O   UNL     1      37.884   7.341  16.929  0.00  0.00    +0.000 OA
BRANCH  25  27
ATOM     27  C   UNL     1      39.698   6.373  17.979  0.00  0.00    +0.000 A 
ATOM     28  C   UNL     1      40.985   6.460  17.459  0.00  0.00    +0.000 A 
ATOM     29  C   UNL     1      42.115   6.521  18.249  0.00  0.00    +0.000 A 
ATOM     30  C   UNL     1      41.918   6.494  19.612  0.00  0.00    +0.000 A 
ATOM     31  C   UNL     1      40.661   6.410  20.148  0.00  0.00    +0.000 A 
ATOM     32  C   UNL     1      39.561   6.350  19.332  0.00  0.00    +0.000 A 
ENDBRANCH  25  27
ENDBRANCH   1  24
TORSDOF 7
ENDMDL
MODEL 5
REMARK VINA RESULT:      -7.5      3.033      5.847
REMARK  Name = 
REMARK  7 active torsions:
REMARK  status: ('A' for Active; 'I' for Inactive)
REMARK    1  A    between atoms: C_2  and  O_3
REMARK    2  A    between atoms: O_3  and  C_4
REMARK    3  A    between atoms: C_7  and  N_8
REMARK    4  A    between atoms: C_9  and  C_11
REMARK    5  A    between atoms: C_11  and  N_12
REMARK    6  A    between atoms: C_11  and  C_21
REMARK    7  A    between atoms: C_13  and  C_15
REMARK                            x       y       z     vdW  Elec       q    Type
REMARK                         _______ _______ _______ _____ _____    ______ ____
ROOT
ATOM      1  C   UNL     1      38.279  -1.301  15.902  0.00  0.00    +0.000 C 
ENDROOT
BRANCH   1   2
ATOM      2  C   UNL     1      39.353  -1.491  14.706  0.00  0.00    +0.000 C 
ATOM      3  C   UNL     1      40.320  -2.535  15.129  0.00  0.00    +0.000 C 
ATOM      4  C   UNL     1      41.242  -2.820  13.988  0.00  0.00    +0.000 C 
ATOM      5  C   UNL     1      42.103  -1.553  13.875  0.00  0.00    +0.000 C 
ATOM      6  C   UNL     1      41.229  -0.355  13.708  0.00  0.00    +0.000 C 
ATOM      7  C   UNL     1      40.497  -0.483  12.372  0.00  0.00    +0.000 C 
ATOM      8  C   UNL     1      39.665  -1.774  12.362  0.00  0.00    +0.000 C 
ATOM      9  C   UNL     1      40.552  -2.968  12.655  0.00  0.00    +0.000 C 
ATOM     10  C   UNL     1      38.654  -1.679  13.437  0.00  0.00    +0.000 C 
ATOM     11  C   UNL     1      40.176  -0.179  14.746  0.00  0.00    +0.000 C 
ENDBRANCH   1   2
BRANCH   1  13
ATOM     12  N   UNL     1      37.935   1.214  15.379  0.00  0.00    +0.000 NA
ATOM     13  C   UNL     1      37.530  -0.073  15.149  0.00  0.00    +0.000 C 
ATOM     14  O   UNL     1      36.605  -0.401  14.383  0.00  0.00    +0.000 OA
BRANCH  12  18
ATOM     15  C   UNL     1      35.912   4.494  13.642  0.00  0.00    +0.000 A 
ATOM     16  C   UNL     1      36.979   3.899  12.995  0.00  0.00    +0.000 A 
ATOM     17  C   UNL     1      37.669   2.831  13.530  0.00  0.00    +0.000 A 
ATOM     18  C   UNL     1      37.310   2.331  14.728  0.00  0.00    +0.000 A 
ATOM     19  C   UNL     1      36.247   2.917  15.389  0.00  0.00    +0.000 A 
ATOM     20  C   UNL     1      35.541   3.983  14.877  0.00  0.00    +0.000 A 
BRANCH  15  21
ATOM     21  O   UNL     1      35.221   5.575  13.087  0.00  0.00    +0.000 OA
BRANCH  21  23
ATOM     22  C   UNL     1      33.410   7.087  13.075  0.00  0.00    +0.000 C 
ATOM     23  C   UNL     1      34.399   6.353  13.916  0.00  0.00    +0.000 C 
ENDBRANCH  21  23
ENDBRANCH  15  21
ENDBRANCH  12  18
ENDBRANCH   1  13
BRANCH   1  24
ATOM     24  N   UNL     1      37.254  -2.361  15.692  0.00  0.00    +0.000 NA
ATOM     25  C   UNL     1      36.348  -2.938  16.467  0.00  0.00    +0.000 C 
ATOM     26  O   UNL     1      36.203  -2.640  17.639  0.00  0.00    +0.000 OA
BRANCH  25  27
ATOM     27  C   UNL     1      35.455  -3.993  15.924  0.00  0.00    +0.000 A 
ATOM     28  C   UNL     1      35.756  -5.331  16.153  0.00  0.00    +0.000 A 
ATOM     29  C   UNL     1      34.974  -6.369  15.690  0.00  0.00    +0.000 A 
ATOM     30  C   UNL     1      33.850  -6.024  14.973  0.00  0.00    +0.000 A 
ATOM     31  C   UNL     1      33.532  -4.714  14.735  0.00  0.00    +0.000 A 
ATOM     32  C   UNL     1      34.334  -3.708  15.210  0.00  0.00    +0.000 A 
ENDBRANCH  25  27
ENDBRANCH   1  24
TORSDOF 7
ENDMDL
MODEL 6
REMARK VINA RESULT:      -7.3      2.277      7.431
REMARK  Name = 
REMARK  7 active torsions:
REMARK  status: ('A' for Active; 'I' for Inactive)
REMARK    1  A    between atoms: C_2  and  O_3
REMARK    2  A    between atoms: O_3  and  C_4
REMARK    3  A    between atoms: C_7  and  N_8
REMARK    4  A    between atoms: C_9  and  C_11
REMARK    5  A    between atoms: C_11  and  N_12
REMARK    6  A    between atoms: C_11  and  C_21
REMARK    7  A    between atoms: C_13  and  C_15
REMARK                            x       y       z     vdW  Elec       q    Type
REMARK                         _______ _______ _______ _____ _____    ______ ____
ROOT
ATOM      1  C   UNL     1      38.350   2.417  13.199  0.00  0.00    +0.000 C 
ENDROOT
BRANCH   1   2
ATOM      2  C   UNL     1      39.374   1.165  13.140  0.00  0.00    +0.000 C 
ATOM      3  C   UNL     1      39.783   0.850  14.532  0.00  0.00    +0.000 C 
ATOM      4  C   UNL     1      40.626  -0.383  14.513  0.00  0.00    +0.000 C 
ATOM      5  C   UNL     1      41.934   0.064  13.844  0.00  0.00    +0.000 C 
ATOM      6  C   UNL     1      41.644   0.662  12.508  0.00  0.00    +0.000 C 
ATOM      7  C   UNL     1      41.070  -0.434  11.610  0.00  0.00    +0.000 C 
ATOM      8  C   UNL     1      39.792  -1.002  12.244  0.00  0.00    +0.000 C 
ATOM      9  C   UNL     1      40.081  -1.493  13.649  0.00  0.00    +0.000 C 
ATOM     10  C   UNL     1      38.799   0.090  12.336  0.00  0.00    +0.000 C 
ATOM     11  C   UNL     1      40.650   1.770  12.502  0.00  0.00    +0.000 C 
ENDBRANCH   1   2
BRANCH   1  13
ATOM     12  N   UNL     1      37.285   1.274  15.268  0.00  0.00    +0.000 NA
ATOM     13  C   UNL     1      37.192   1.544  13.929  0.00  0.00    +0.000 C 
ATOM     14  O   UNL     1      36.263   1.167  13.191  0.00  0.00    +0.000 OA
BRANCH  12  18
ATOM     15  C   UNL     1      34.407  -1.165  17.173  0.00  0.00    +0.000 A 
ATOM     16  C   UNL     1      34.386   0.208  17.332  0.00  0.00    +0.000 A 
ATOM     17  C   UNL     1      35.310   1.038  16.733  0.00  0.00    +0.000 A 
ATOM     18  C   UNL     1      36.281   0.516  15.959  0.00  0.00    +0.000 A 
ATOM     19  C   UNL     1      36.316  -0.855  15.792  0.00  0.00    +0.000 A 
ATOM     20  C   UNL     1      35.406  -1.706  16.378  0.00  0.00    +0.000 A 
BRANCH  15  21
ATOM     21  O   UNL     1      33.463  -1.994  17.785  0.00  0.00    +0.000 OA
BRANCH  21  23
ATOM     22  C   UNL     1      31.110  -2.100  17.627  0.00  0.00    +0.000 C 
ATOM     23  C   UNL     1      32.408  -2.507  17.014  0.00  0.00    +0.000 C 
ENDBRANCH  21  23
ENDBRANCH  15  21
ENDBRANCH  12  18
ENDBRANCH   1  13
BRANCH   1  24
ATOM     24  N   UNL     1      38.788   3.238  14.362  0.00  0.00    +0.000 NA
ATOM     25  C   UNL     1      38.844   4.539  14.607  0.00  0.00    +0.000 C 
ATOM     26  O   UNL     1      38.493   5.374  13.793  0.00  0.00    +0.000 OA
BRANCH  25  27
ATOM     27  C   UNL     1      39.347   5.038  15.912  0.00  0.00    +0.000 A 
ATOM     28  C   UNL     1      40.500   5.815  15.951  0.00  0.00    +0.000 A 
ATOM     29  C   UNL     1      41.027   6.323  17.121  0.00  0.00    +0.000 A 
ATOM     30  C   UNL     1      40.351   6.025  18.283  0.00  0.00    +0.000 A 
ATOM     31  C   UNL     1      39.213   5.263  18.271  0.00  0.00    +0.000 A 
ATOM     32  C   UNL     1      38.719   4.774  17.089  0.00  0.00    +0.000 A 
ENDBRANCH  25  27
ENDBRANCH   1  24
TORSDOF 7
ENDMDL
MODEL 7
REMARK VINA RESULT:      -7.3      2.906      6.068
REMARK  Name = 
REMARK  7 active torsions:
REMARK  status: ('A' for Active; 'I' for Inactive)
REMARK    1  A    between atoms: C_2  and  O_3
REMARK    2  A    between atoms: O_3  and  C_4
REMARK    3  A    between atoms: C_7  and  N_8
REMARK    4  A    between atoms: C_9  and  C_11
REMARK    5  A    between atoms: C_11  and  N_12
REMARK    6  A    between atoms: C_11  and  C_21
REMARK    7  A    between atoms: C_13  and  C_15
REMARK                            x       y       z     vdW  Elec       q    Type
REMARK                         _______ _______ _______ _____ _____    ______ ____
ROOT
ATOM      1  C   UNL     1      38.872   3.485  15.259  0.00  0.00    +0.000 C 
ENDROOT
BRANCH   1   2
ATOM      2  C   UNL     1      38.034   4.544  14.369  0.00  0.00    +0.000 C 
ATOM      3  C   UNL     1      36.679   4.662  14.963  0.00  0.00    +0.000 C 
ATOM      4  C   UNL     1      35.932   5.732  14.236  0.00  0.00    +0.000 C 
ATOM      5  C   UNL     1      35.666   5.129  12.848  0.00  0.00    +0.000 C 
ATOM      6  C   UNL     1      36.953   4.709  12.221  0.00  0.00    +0.000 C 
ATOM      7  C   UNL     1      37.796   5.960  11.978  0.00  0.00    +0.000 C 
ATOM      8  C   UNL     1      38.047   6.679  13.312  0.00  0.00    +0.000 C 
ATOM      9  C   UNL     1      36.729   6.990  13.993  0.00  0.00    +0.000 C 
ATOM     10  C   UNL     1      38.813   5.768  14.190  0.00  0.00    +0.000 C 
ATOM     11  C   UNL     1      37.795   3.790  13.037  0.00  0.00    +0.000 C 
ENDBRANCH   1   2
BRANCH   1  13
ATOM     12  N   UNL     1      39.414   5.491  16.807  0.00  0.00    +0.000 NA
ATOM     13  C   UNL     1      38.683   4.349  16.620  0.00  0.00    +0.000 C 
ATOM     14  O   UNL     1      37.854   3.895  17.430  0.00  0.00    +0.000 OA
BRANCH  12  18
ATOM     15  C   UNL     1      38.836   8.001  20.159  0.00  0.00    +0.000 A 
ATOM     16  C   UNL     1      39.813   7.021  20.169  0.00  0.00    +0.000 A 
ATOM     17  C   UNL     1      40.029   6.179  19.099  0.00  0.00    +0.000 A 
ATOM     18  C   UNL     1      39.273   6.293  17.990  0.00  0.00    +0.000 A 
ATOM     19  C   UNL     1      38.292   7.266  17.965  0.00  0.00    +0.000 A 
ATOM     20  C   UNL     1      38.056   8.120  19.019  0.00  0.00    +0.000 A 
BRANCH  15  21
ATOM     21  O   UNL     1      38.629   8.849  21.250  0.00  0.00    +0.000 OA
BRANCH  21  23
ATOM     22  C   UNL     1      39.985  10.751  20.913  0.00  0.00    +0.000 C 
ATOM     23  C   UNL     1      38.591  10.235  21.036  0.00  0.00    +0.000 C 
ENDBRANCH  21  23
ENDBRANCH  15  21
ENDBRANCH  12  18
ENDBRANCH   1  13
BRANCH   1  24
ATOM     24  N   UNL     1      37.925   2.374  15.557  0.00  0.00    +0.000 NA
ATOM     25  C   UNL     1      37.971   1.058  15.417  0.00  0.00    +0.000 C 
ATOM     26  O   UNL     1      38.938   0.480  14.956  0.00  0.00    +0.000 OA
BRANCH  25  27
ATOM     27  C   UNL     1      36.817   0.218  15.828  0.00  0.00    +0.000 A 
ATOM     28  C   UNL     1      36.732  -1.097  15.384  0.00  0.00    +0.000 A 
ATOM     29  C   UNL     1      35.698  -1.944  15.727  0.00  0.00    +0.000 A 
ATOM     30  C   UNL     1      34.723  -1.426  16.550  0.00  0.00    +0.000 A 
ATOM     31  C   UNL     1      34.784  -0.135  17.001  0.00  0.00    +0.000 A 
ATOM     32  C   UNL     1      35.827   0.678  16.639  0.00  0.00    +0.000 A 
ENDBRANCH  25  27
ENDBRANCH   1  24
TORSDOF 7
ENDMDL
MODEL 8
REMARK VINA RESULT:      -7.3      3.078      3.700
REMARK  Name = 
REMARK  7 active torsions:
REMARK  status: ('A' for Active; 'I' for Inactive)
REMARK    1  A    between atoms: C_2  and  O_3
REMARK    2  A    between atoms: O_3  and  C_4
REMARK    3  A    between atoms: C_7  and  N_8
REMARK    4  A    between atoms: C_9  and  C_11
REMARK    5  A    between atoms: C_11  and  N_12
REMARK    6  A    between atoms: C_11  and  C_21
REMARK    7  A    between atoms: C_13  and  C_15
REMARK                            x       y       z     vdW  Elec       q    Type
REMARK                         _______ _______ _______ _____ _____    ______ ____
ROOT
ATOM      1  C   UNL     1      38.073  -1.622  13.677  0.00  0.00    +0.000 C 
ENDROOT
BRANCH   1   2
ATOM      2  C   UNL     1      37.527  -1.994  15.154  0.00  0.00    +0.000 C 
ATOM      3  C   UNL     1      38.615  -1.711  16.122  0.00  0.00    +0.000 C 
ATOM      4  C   UNL     1      38.090  -1.924  17.504  0.00  0.00    +0.000 C 
ATOM      5  C   UNL     1      37.901  -3.445  17.606  0.00  0.00    +0.000 C 
ATOM      6  C   UNL     1      37.016  -3.923  16.504  0.00  0.00    +0.000 C 
ATOM      7  C   UNL     1      35.629  -3.317  16.710  0.00  0.00    +0.000 C 
ATOM      8  C   UNL     1      35.731  -1.784  16.704  0.00  0.00    +0.000 C 
ATOM      9  C   UNL     1      36.728  -1.323  17.749  0.00  0.00    +0.000 C 
ATOM     10  C   UNL     1      36.229  -1.361  15.378  0.00  0.00    +0.000 C 
ATOM     11  C   UNL     1      37.439  -3.541  15.129  0.00  0.00    +0.000 C 
ENDBRANCH   1   2
BRANCH   1  13
ATOM     12  N   UNL     1      36.727   0.574  13.380  0.00  0.00    +0.000 NA
ATOM     13  C   UNL     1      37.841  -0.031  13.899  0.00  0.00    +0.000 C 
ATOM     14  O   UNL     1      38.726   0.552  14.553  0.00  0.00    +0.000 OA
BRANCH  12  18
ATOM     15  C   UNL     1      35.786   4.638  14.059  0.00  0.00    +0.000 A 
ATOM     16  C   UNL     1      36.735   4.280  13.119  0.00  0.00    +0.000 A 
ATOM     17  C   UNL     1      37.075   2.966  12.872  0.00  0.00    +0.000 A 
ATOM     18  C   UNL     1      36.474   1.975  13.559  0.00  0.00    +0.000 A 
ATOM     19  C   UNL     1      35.526   2.317  14.504  0.00  0.00    +0.000 A 
ATOM     20  C   UNL     1      35.167   3.620  14.770  0.00  0.00    +0.000 A 
BRANCH  15  21
ATOM     21  O   UNL     1      35.450   5.973  14.298  0.00  0.00    +0.000 OA
BRANCH  21  23
ATOM     22  C   UNL     1      34.034   6.913  12.661  0.00  0.00    +0.000 C 
ATOM     23  C   UNL     1      34.134   6.397  14.056  0.00  0.00    +0.000 C 
ENDBRANCH  21  23
ENDBRANCH  15  21
ENDBRANCH  12  18
ENDBRANCH   1  13
BRANCH   1  24
ATOM     24  N   UNL     1      39.559  -1.655  13.779  0.00  0.00    +0.000 NA
ATOM     25  C   UNL     1      40.524  -2.197  13.051  0.00  0.00    +0.000 C 
ATOM     26  O   UNL     1      40.300  -2.843  12.043  0.00  0.00    +0.000 OA
BRANCH  25  27
ATOM     27  C   UNL     1      41.946  -2.033  13.445  0.00  0.00    +0.000 A 
ATOM     28  C   UNL     1      42.917  -2.842  12.865  0.00  0.00    +0.000 A 
ATOM     29  C   UNL     1      44.259  -2.746  13.172  0.00  0.00    +0.000 A 
ATOM     30  C   UNL     1      44.614  -1.793  14.099  0.00  0.00    +0.000 A 
ATOM     31  C   UNL     1      43.677  -0.984  14.684  0.00  0.00    +0.000 A 
ATOM     32  C   UNL     1      42.352  -1.108  14.355  0.00  0.00    +0.000 A 
ENDBRANCH  25  27
ENDBRANCH   1  24
TORSDOF 7
ENDMDL
MODEL 9
REMARK VINA RESULT:      -7.1      4.114      7.404
REMARK  Name = 
REMARK  7 active torsions:
REMARK  status: ('A' for Active; 'I' for Inactive)
REMARK    1  A    between atoms: C_2  and  O_3
REMARK    2  A    between atoms: O_3  and  C_4
REMARK    3  A    between atoms: C_7  and  N_8
REMARK    4  A    between atoms: C_9  and  C_11
REMARK    5  A    between atoms: C_11  and  N_12
REMARK    6  A    between atoms: C_11  and  C_21
REMARK    7  A    between atoms: C_13  and  C_15
REMARK                            x       y       z     vdW  Elec       q    Type
REMARK                         _______ _______ _______ _____ _____    ______ ____
ROOT
ATOM      1  C   UNL     1      38.809   4.346  14.492  0.00  0.00    +0.000 C 
ENDROOT
BRANCH   1   2
ATOM      2  C   UNL     1      37.528   3.431  14.865  0.00  0.00    +0.000 C 
ATOM      3  C   UNL     1      37.244   3.619  16.310  0.00  0.00    +0.000 C 
ATOM      4  C   UNL     1      35.987   2.885  16.647  0.00  0.00    +0.000 C 
ATOM      5  C   UNL     1      36.377   1.402  16.545  0.00  0.00    +0.000 C 
ATOM      6  C   UNL     1      36.942   1.117  15.193  0.00  0.00    +0.000 C 
ATOM      7  C   UNL     1      35.835   1.330  14.160  0.00  0.00    +0.000 C 
ATOM      8  C   UNL     1      35.324   2.776  14.245  0.00  0.00    +0.000 C 
ATOM      9  C   UNL     1      34.867   3.086  15.657  0.00  0.00    +0.000 C 
ATOM     10  C   UNL     1      36.445   3.682  13.917  0.00  0.00    +0.000 C 
ATOM     11  C   UNL     1      38.077   1.985  14.775  0.00  0.00    +0.000 C 
ENDBRANCH   1   2
BRANCH   1  13
ATOM     12  N   UNL     1      37.272   6.388  14.924  0.00  0.00    +0.000 NA
ATOM     13  C   UNL     1      37.886   5.587  13.999  0.00  0.00    +0.000 C 
ATOM     14  O   UNL     1      37.798   5.730  12.765  0.00  0.00    +0.000 OA
BRANCH  12  18
ATOM     15  C   UNL     1      34.675   9.506  13.739  0.00  0.00    +0.000 A 
ATOM     16  C   UNL     1      36.020   9.748  13.949  0.00  0.00    +0.000 A 
ATOM     17  C   UNL     1      36.899   8.760  14.342  0.00  0.00    +0.000 A 
ATOM     18  C   UNL     1      36.454   7.503  14.535  0.00  0.00    +0.000 A 
ATOM     19  C   UNL     1      35.113   7.246  14.332  0.00  0.00    +0.000 A 
ATOM     20  C   UNL     1      34.214   8.213  13.940  0.00  0.00    +0.000 A 
BRANCH  15  21
ATOM     21  O   UNL     1      33.795  10.516  13.340  0.00  0.00    +0.000 OA
BRANCH  21  23
ATOM     22  C   UNL     1      33.517  12.288  14.873  0.00  0.00    +0.000 C 
ATOM     23  C   UNL     1      34.139  11.853  13.589  0.00  0.00    +0.000 C 
ENDBRANCH  21  23
ENDBRANCH  15  21
ENDBRANCH  12  18
ENDBRANCH   1  13
BRANCH   1  24
ATOM     24  N   UNL     1      39.286   4.913  15.785  0.00  0.00    +0.000 NA
ATOM     25  C   UNL     1      40.310   5.677  16.137  0.00  0.00    +0.000 C 
ATOM     26  O   UNL     1      41.130   6.085  15.335  0.00  0.00    +0.000 OA
BRANCH  25  27
ATOM     27  C   UNL     1      40.499   6.072  17.556  0.00  0.00    +0.000 A 
ATOM     28  C   UNL     1      41.767   6.418  18.009  0.00  0.00    +0.000 A 
ATOM     29  C   UNL     1      42.024   6.804  19.308  0.00  0.00    +0.000 A 
ATOM     30  C   UNL     1      40.948   6.837  20.167  0.00  0.00    +0.000 A 
ATOM     31  C   UNL     1      39.690   6.502  19.746  0.00  0.00    +0.000 A 
ATOM     32  C   UNL     1      39.472   6.122  18.446  0.00  0.00    +0.000 A 
ENDBRANCH  25  27
ENDBRANCH   1  24
TORSDOF 7
ENDMDL
MODEL 10
REMARK VINA RESULT:      -7.1      1.493      2.337
REMARK  Name = 
REMARK  7 active torsions:
REMARK  status: ('A' for Active; 'I' for Inactive)
REMARK    1  A    between atoms: C_2  and  O_3
REMARK    2  A    between atoms: O_3  and  C_4
REMARK    3  A    between atoms: C_7  and  N_8
REMARK    4  A    between atoms: C_9  and  C_11
REMARK    5  A    between atoms: C_11  and  N_12
REMARK    6  A    between atoms: C_11  and  C_21
REMARK    7  A    between atoms: C_13  and  C_15
REMARK                            x       y       z     vdW  Elec       q    Type
REMARK                         _______ _______ _______ _____ _____    ______ ____
ROOT
ATOM      1  C   UNL     1      38.494  -0.557  13.349  0.00  0.00    +0.000 C 
ENDROOT
BRANCH   1   2
ATOM      2  C   UNL     1      37.780  -1.344  14.569  0.00  0.00    +0.000 C 
ATOM      3  C   UNL     1      37.184  -2.587  14.018  0.00  0.00    +0.000 C 
ATOM      4  C   UNL     1      36.633  -3.393  15.149  0.00  0.00    +0.000 C 
ATOM      5  C   UNL     1      35.414  -2.588  15.626  0.00  0.00    +0.000 C 
ATOM      6  C   UNL     1      35.827  -1.196  15.973  0.00  0.00    +0.000 C 
ATOM      7  C   UNL     1      36.775  -1.265  17.169  0.00  0.00    +0.000 C 
ATOM      8  C   UNL     1      37.997  -2.125  16.809  0.00  0.00    +0.000 C 
ATOM      9  C   UNL     1      37.550  -3.496  16.342  0.00  0.00    +0.000 C 
ATOM     10  C   UNL     1      38.708  -1.469  15.691  0.00  0.00    +0.000 C 
ATOM     11  C   UNL     1      36.555  -0.457  14.905  0.00  0.00    +0.000 C 
ENDBRANCH   1   2
BRANCH   1  13
ATOM     12  N   UNL     1      38.089   1.845  14.235  0.00  0.00    +0.000 NA
ATOM     13  C   UNL     1      38.868   0.720  14.280  0.00  0.00    +0.000 C 
ATOM     14  O   UNL     1      39.875   0.581  14.998  0.00  0.00    +0.000 OA
BRANCH  12  18
ATOM     15  C   UNL     1      38.714   5.180  16.756  0.00  0.00    +0.000 A 
ATOM     16  C   UNL     1      39.511   4.976  15.644  0.00  0.00    +0.000 A 
ATOM     17  C   UNL     1      39.343   3.897  14.800  0.00  0.00    +0.000 A 
ATOM     18  C   UNL     1      38.374   2.995  15.047  0.00  0.00    +0.000 A 
ATOM     19  C   UNL     1      37.572   3.184  16.156  0.00  0.00    +0.000 A 
ATOM     20  C   UNL     1      37.717   4.252  17.013  0.00  0.00    +0.000 A 
BRANCH  15  21
ATOM     21  O   UNL     1      38.894   6.278  17.601  0.00  0.00    +0.000 OA
BRANCH  21  23
ATOM     22  C   UNL     1      40.541   6.157  19.287  0.00  0.00    +0.000 C 
ATOM     23  C   UNL     1      39.087   6.055  18.973  0.00  0.00    +0.000 C 
ENDBRANCH  21  23
ENDBRANCH  15  21
ENDBRANCH  12  18
ENDBRANCH   1  13
BRANCH   1  24
ATOM     24  N   UNL     1      39.852  -1.158  13.226  0.00  0.00    +0.000 NA
ATOM     25  C   UNL     1      40.409  -2.018  12.387  0.00  0.00    +0.000 C 
ATOM     26  O   UNL     1      39.800  -2.516  11.458  0.00  0.00    +0.000 OA
BRANCH  25  27
ATOM     27  C   UNL     1      41.830  -2.416  12.552  0.00  0.00    +0.000 A 
ATOM     28  C   UNL     1      42.579  -1.876  13.591  0.00  0.00    +0.000 A 
ATOM     29  C   UNL     1      43.900  -2.200  13.816  0.00  0.00    +0.000 A 
ATOM     30  C   UNL     1      44.470  -3.107  12.950  0.00  0.00    +0.000 A 
ATOM     31  C   UNL     1      43.754  -3.655  11.920  0.00  0.00    +0.000 A 
ATOM     32  C   UNL     1      42.442  -3.307  11.726  0.00  0.00    +0.000 A 
ENDBRANCH  25  27
ENDBRANCH   1  24
TORSDOF 7
ENDMDL
