MODEL 1
REMARK VINA RESULT:      -7.4      0.000      0.000
REMARK  Name = 
REMARK  2 active torsions:
REMARK  status: ('A' for Active; 'I' for Inactive)
REMARK    1  A    between atoms: O_2  and  C_3
REMARK    2  A    between atoms: C_8  and  C_9
REMARK                            x       y       z     vdW  Elec       q    Type
REMARK                         _______ _______ _______ _____ _____    ______ ____
ROOT
ATOM      1  C   UNL     1      18.771   9.743  37.319  0.00  0.00    +0.000 A 
ATOM      2  C   UNL     1      19.927   9.727  36.577  0.00  0.00    +0.000 A 
ATOM      3  C   UNL     1      21.161   9.959  37.155  0.00  0.00    +0.000 A 
ATOM      4  C   UNL     1      21.274  10.217  38.524  0.00  0.00    +0.000 A 
ATOM      5  C   UNL     1      20.128  10.231  39.254  0.00  0.00    +0.000 A 
ATOM      6  C   UNL     1      18.893  10.003  38.694  0.00  0.00    +0.000 A 
ATOM      7  C   UNL     1      22.644  10.450  39.038  0.00  0.00    +0.000 C 
ATOM      8  C   UNL     1      23.495   9.281  38.581  0.00  0.00    +0.000 C 
ATOM      9  C   UNL     1      23.392   9.027  37.108  0.00  0.00    +0.000 C 
ATOM     10  C   UNL     1      22.436   9.955  36.390  0.00  0.00    +0.000 C 
ENDROOT
BRANCH   6  11
ATOM     11  C   UNL     1      17.642   9.972  39.421  0.00  0.00    +0.000 C 
ATOM     12  C   UNL     1      17.222   8.951  40.130  0.00  0.00    +0.000 C 
ATOM     13  C   UNL     1      15.962   8.876  40.877  0.00  0.00    +0.000 C 
ATOM     14  O   UNL     1      15.098   9.786  40.930  0.00  0.00    +0.000 OA
ATOM     15  N   UNL     1      15.905   7.624  41.508  0.00  0.00    +0.000 NA
ATOM     16  C   UNL     1      17.089   6.930  41.171  0.00  0.00    +0.000 A 
ATOM     17  C   UNL     1      17.497   5.651  41.556  0.00  0.00    +0.000 A 
ATOM     18  C   UNL     1      18.693   5.162  41.120  0.00  0.00    +0.000 A 
ATOM     19  C   UNL     1      19.508   5.935  40.291  0.00  0.00    +0.000 A 
ATOM     20  C   UNL     1      19.121   7.196  39.903  0.00  0.00    +0.000 A 
ATOM     21  C   UNL     1      17.907   7.677  40.352  0.00  0.00    +0.000 A 
ENDBRANCH   6  11
BRANCH   1  23
ATOM     22  C   UNL     1      17.470   9.096  35.379  0.00  0.00    +0.000 C 
ATOM     23  O   UNL     1      17.541   9.510  36.730  0.00  0.00    +0.000 OA
ENDBRANCH   1  23
TORSDOF 2
ENDMDL
MODEL 2
REMARK VINA RESULT:      -7.1     18.288     21.408
REMARK  Name = 
REMARK  2 active torsions:
REMARK  status: ('A' for Active; 'I' for Inactive)
REMARK    1  A    between atoms: O_2  and  C_3
REMARK    2  A    between atoms: C_8  and  C_9
REMARK                            x       y       z     vdW  Elec       q    Type
REMARK                         _______ _______ _______ _____ _____    ______ ____
ROOT
ATOM      1  C   UNL     1      30.072  22.511  27.919  0.00  0.00    +0.000 A 
ATOM      2  C   UNL     1      31.001  22.781  26.944  0.00  0.00    +0.000 A 
ATOM      3  C   UNL     1      30.637  22.925  25.618  0.00  0.00    +0.000 A 
ATOM      4  C   UNL     1      29.302  22.801  25.224  0.00  0.00    +0.000 A 
ATOM      5  C   UNL     1      28.386  22.535  26.192  0.00  0.00    +0.000 A 
ATOM      6  C   UNL     1      28.732  22.388  27.515  0.00  0.00    +0.000 A 
ATOM      7  C   UNL     1      29.024  22.977  23.779  0.00  0.00    +0.000 C 
ATOM      8  C   UNL     1      29.647  24.295  23.363  0.00  0.00    +0.000 C 
ATOM      9  C   UNL     1      31.087  24.411  23.763  0.00  0.00    +0.000 C 
ATOM     10  C   UNL     1      31.608  23.215  24.531  0.00  0.00    +0.000 C 
ENDROOT
BRANCH   6  11
ATOM     11  C   UNL     1      27.802  22.135  28.595  0.00  0.00    +0.000 C 
ATOM     12  C   UNL     1      27.191  23.072  29.280  0.00  0.00    +0.000 C 
ATOM     13  C   UNL     1      26.247  22.862  30.383  0.00  0.00    +0.000 C 
ATOM     14  O   UNL     1      25.902  21.743  30.835  0.00  0.00    +0.000 OA
ATOM     15  N   UNL     1      25.811  24.120  30.828  0.00  0.00    +0.000 NA
ATOM     16  C   UNL     1      26.458  25.093  30.034  0.00  0.00    +0.000 A 
ATOM     17  C   UNL     1      26.351  26.484  30.089  0.00  0.00    +0.000 A 
ATOM     18  C   UNL     1      27.065  27.254  29.219  0.00  0.00    +0.000 A 
ATOM     19  C   UNL     1      27.903  26.654  28.276  0.00  0.00    +0.000 A 
ATOM     20  C   UNL     1      28.021  25.287  28.209  0.00  0.00    +0.000 A 
ATOM     21  C   UNL     1      27.291  24.521  29.096  0.00  0.00    +0.000 A 
ENDBRANCH   6  11
BRANCH   1  23
ATOM     22  C   UNL     1      31.000  23.464  29.944  0.00  0.00    +0.000 C 
ATOM     23  O   UNL     1      30.447  22.367  29.243  0.00  0.00    +0.000 OA
ENDBRANCH   1  23
TORSDOF 2
ENDMDL
MODEL 3
REMARK VINA RESULT:      -7.1     19.760     21.773
REMARK  Name = 
REMARK  2 active torsions:
REMARK  status: ('A' for Active; 'I' for Inactive)
REMARK    1  A    between atoms: O_2  and  C_3
REMARK    2  A    between atoms: C_8  and  C_9
REMARK                            x       y       z     vdW  Elec       q    Type
REMARK                         _______ _______ _______ _____ _____    ______ ____
ROOT
ATOM      1  C   UNL     1      16.730  -9.309  27.022  0.00  0.00    +0.000 A 
ATOM      2  C   UNL     1      16.538 -10.624  27.369  0.00  0.00    +0.000 A 
ATOM      3  C   UNL     1      17.149 -11.176  28.480  0.00  0.00    +0.000 A 
ATOM      4  C   UNL     1      17.987 -10.407  29.292  0.00  0.00    +0.000 A 
ATOM      5  C   UNL     1      18.173  -9.107  28.946  0.00  0.00    +0.000 A 
ATOM      6  C   UNL     1      17.573  -8.543  27.844  0.00  0.00    +0.000 A 
ATOM      7  C   UNL     1      18.587 -11.099  30.457  0.00  0.00    +0.000 C 
ATOM      8  C   UNL     1      17.452 -11.751  31.222  0.00  0.00    +0.000 C 
ATOM      9  C   UNL     1      16.574 -12.597  30.350  0.00  0.00    +0.000 C 
ATOM     10  C   UNL     1      16.972 -12.594  28.890  0.00  0.00    +0.000 C 
ENDROOT
BRANCH   6  11
ATOM     11  C   UNL     1      17.706  -7.159  27.441  0.00  0.00    +0.000 C 
ATOM     12  C   UNL     1      18.709  -6.684  26.742  0.00  0.00    +0.000 C 
ATOM     13  C   UNL     1      18.885  -5.291  26.317  0.00  0.00    +0.000 C 
ATOM     14  O   UNL     1      18.096  -4.351  26.579  0.00  0.00    +0.000 OA
ATOM     15  N   UNL     1      20.077  -5.209  25.580  0.00  0.00    +0.000 NA
ATOM     16  C   UNL     1      20.635  -6.506  25.540  0.00  0.00    +0.000 A 
ATOM     17  C   UNL     1      21.812  -6.937  24.925  0.00  0.00    +0.000 A 
ATOM     18  C   UNL     1      22.176  -8.249  25.000  0.00  0.00    +0.000 A 
ATOM     19  C   UNL     1      21.375  -9.160  25.691  0.00  0.00    +0.000 A 
ATOM     20  C   UNL     1      20.214  -8.753  26.303  0.00  0.00    +0.000 A 
ATOM     21  C   UNL     1      19.859  -7.422  26.217  0.00  0.00    +0.000 A 
ENDBRANCH   6  11
BRANCH   1  23
ATOM     22  C   UNL     1      14.715  -8.890  25.743  0.00  0.00    +0.000 C 
ATOM     23  O   UNL     1      16.114  -8.766  25.908  0.00  0.00    +0.000 OA
ENDBRANCH   1  23
TORSDOF 2
ENDMDL
MODEL 4
REMARK VINA RESULT:      -7.0     21.607     23.354
REMARK  Name = 
REMARK  2 active torsions:
REMARK  status: ('A' for Active; 'I' for Inactive)
REMARK    1  A    between atoms: O_2  and  C_3
REMARK    2  A    between atoms: C_8  and  C_9
REMARK                            x       y       z     vdW  Elec       q    Type
REMARK                         _______ _______ _______ _____ _____    ______ ____
ROOT
ATOM      1  C   UNL     1      30.763  25.301  26.010  0.00  0.00    +0.000 A 
ATOM      2  C   UNL     1      31.059  25.307  27.351  0.00  0.00    +0.000 A 
ATOM      3  C   UNL     1      31.289  24.134  28.047  0.00  0.00    +0.000 A 
ATOM      4  C   UNL     1      31.229  22.896  27.403  0.00  0.00    +0.000 A 
ATOM      5  C   UNL     1      30.936  22.895  26.076  0.00  0.00    +0.000 A 
ATOM      6  C   UNL     1      30.704  24.051  25.370  0.00  0.00    +0.000 A 
ATOM      7  C   UNL     1      31.494  21.705  28.244  0.00  0.00    +0.000 C 
ATOM      8  C   UNL     1      32.814  21.944  28.951  0.00  0.00    +0.000 C 
ATOM      9  C   UNL     1      32.862  23.261  29.663  0.00  0.00    +0.000 C 
ATOM     10  C   UNL     1      31.609  24.095  29.498  0.00  0.00    +0.000 C 
ENDROOT
BRANCH   6  11
ATOM     11  C   UNL     1      30.421  24.118  23.952  0.00  0.00    +0.000 C 
ATOM     12  C   UNL     1      29.236  23.921  23.424  0.00  0.00    +0.000 C 
ATOM     13  C   UNL     1      28.906  23.975  21.996  0.00  0.00    +0.000 C 
ATOM     14  O   UNL     1      29.725  24.207  21.074  0.00  0.00    +0.000 OA
ATOM     15  N   UNL     1      27.532  23.722  21.858  0.00  0.00    +0.000 NA
ATOM     16  C   UNL     1      27.011  23.516  23.155  0.00  0.00    +0.000 A 
ATOM     17  C   UNL     1      25.699  23.236  23.540  0.00  0.00    +0.000 A 
ATOM     18  C   UNL     1      25.399  23.075  24.861  0.00  0.00    +0.000 A 
ATOM     19  C   UNL     1      26.401  23.188  25.826  0.00  0.00    +0.000 A 
ATOM     20  C   UNL     1      27.698  23.463  25.465  0.00  0.00    +0.000 A 
ATOM     21  C   UNL     1      27.985  23.624  24.124  0.00  0.00    +0.000 A 
ENDBRANCH   6  11
BRANCH   1  23
ATOM     22  C   UNL     1      29.395  27.263  25.623  0.00  0.00    +0.000 C 
ATOM     23  O   UNL     1      30.534  26.480  25.323  0.00  0.00    +0.000 OA
ENDBRANCH   1  23
TORSDOF 2
ENDMDL
MODEL 5
REMARK VINA RESULT:      -7.0     20.551     22.853
REMARK  Name = 
REMARK  2 active torsions:
REMARK  status: ('A' for Active; 'I' for Inactive)
REMARK    1  A    between atoms: O_2  and  C_3
REMARK    2  A    between atoms: C_8  and  C_9
REMARK                            x       y       z     vdW  Elec       q    Type
REMARK                         _______ _______ _______ _____ _____    ______ ____
ROOT
ATOM      1  C   UNL     1      26.872  23.379  27.109  0.00  0.00    +0.000 A 
ATOM      2  C   UNL     1      27.541  23.485  28.304  0.00  0.00    +0.000 A 
ATOM      3  C   UNL     1      28.836  23.024  28.452  0.00  0.00    +0.000 A 
ATOM      4  C   UNL     1      29.512  22.431  27.382  0.00  0.00    +0.000 A 
ATOM      5  C   UNL     1      28.846  22.329  26.202  0.00  0.00    +0.000 A 
ATOM      6  C   UNL     1      27.559  22.782  26.038  0.00  0.00    +0.000 A 
ATOM      7  C   UNL     1      30.896  21.974  27.652  0.00  0.00    +0.000 C 
ATOM      8  C   UNL     1      31.644  23.150  28.250  0.00  0.00    +0.000 C 
ATOM      9  C   UNL     1      30.928  23.763  29.414  0.00  0.00    +0.000 C 
ATOM     10  C   UNL     1      29.596  23.116  29.727  0.00  0.00    +0.000 C 
ENDROOT
BRANCH   6  11
ATOM     11  C   UNL     1      26.809  22.731  24.801  0.00  0.00    +0.000 C 
ATOM     12  C   UNL     1      27.009  23.531  23.781  0.00  0.00    +0.000 C 
ATOM     13  C   UNL     1      26.271  23.517  22.513  0.00  0.00    +0.000 C 
ATOM     14  O   UNL     1      25.328  22.737  22.235  0.00  0.00    +0.000 OA
ATOM     15  N   UNL     1      26.806  24.519  21.688  0.00  0.00    +0.000 NA
ATOM     16  C   UNL     1      27.847  25.145  22.410  0.00  0.00    +0.000 A 
ATOM     17  C   UNL     1      28.680  26.194  22.017  0.00  0.00    +0.000 A 
ATOM     18  C   UNL     1      29.638  26.655  22.870  0.00  0.00    +0.000 A 
ATOM     19  C   UNL     1      29.786  26.082  24.135  0.00  0.00    +0.000 A 
ATOM     20  C   UNL     1      28.973  25.049  24.538  0.00  0.00    +0.000 A 
ATOM     21  C   UNL     1      28.009  24.593  23.662  0.00  0.00    +0.000 A 
ENDBRANCH   6  11
BRANCH   1  23
ATOM     22  C   UNL     1      25.316  25.233  26.999  0.00  0.00    +0.000 C 
ATOM     23  O   UNL     1      25.576  23.843  26.972  0.00  0.00    +0.000 OA
ENDBRANCH   1  23
TORSDOF 2
ENDMDL
MODEL 6
REMARK VINA RESULT:      -6.9     19.648     23.129
REMARK  Name = 
REMARK  2 active torsions:
REMARK  status: ('A' for Active; 'I' for Inactive)
REMARK    1  A    between atoms: O_2  and  C_3
REMARK    2  A    between atoms: C_8  and  C_9
REMARK                            x       y       z     vdW  Elec       q    Type
REMARK                         _______ _______ _______ _____ _____    ______ ____
ROOT
ATOM      1  C   UNL     1      28.782  22.645  25.928  0.00  0.00    +0.000 A 
ATOM      2  C   UNL     1      29.199  22.551  27.233  0.00  0.00    +0.000 A 
ATOM      3  C   UNL     1      28.376  22.915  28.284  0.00  0.00    +0.000 A 
ATOM      4  C   UNL     1      27.085  23.393  28.049  0.00  0.00    +0.000 A 
ATOM      5  C   UNL     1      26.677  23.484  26.756  0.00  0.00    +0.000 A 
ATOM      6  C   UNL     1      27.482  23.127  25.701  0.00  0.00    +0.000 A 
ATOM      7  C   UNL     1      26.290  23.753  29.247  0.00  0.00    +0.000 C 
ATOM      8  C   UNL     1      26.321  22.556  30.178  0.00  0.00    +0.000 C 
ATOM      9  C   UNL     1      27.711  22.065  30.448  0.00  0.00    +0.000 C 
ATOM     10  C   UNL     1      28.787  22.832  29.710  0.00  0.00    +0.000 C 
ENDROOT
BRANCH   6  11
ATOM     11  C   UNL     1      27.095  23.170  24.307  0.00  0.00    +0.000 C 
ATOM     12  C   UNL     1      27.378  24.157  23.490  0.00  0.00    +0.000 C 
ATOM     13  C   UNL     1      27.003  24.243  22.075  0.00  0.00    +0.000 C 
ATOM     14  O   UNL     1      26.341  23.380  21.449  0.00  0.00    +0.000 OA
ATOM     15  N   UNL     1      27.511  25.448  21.563  0.00  0.00    +0.000 NA
ATOM     16  C   UNL     1      28.185  26.101  22.620  0.00  0.00    +0.000 A 
ATOM     17  C   UNL     1      28.858  27.324  22.609  0.00  0.00    +0.000 A 
ATOM     18  C   UNL     1      29.454  27.780  23.747  0.00  0.00    +0.000 A 
ATOM     19  C   UNL     1      29.392  27.027  24.922  0.00  0.00    +0.000 A 
ATOM     20  C   UNL     1      28.733  25.822  24.950  0.00  0.00    +0.000 A 
ATOM     21  C   UNL     1      28.136  25.373  23.789  0.00  0.00    +0.000 A 
ENDBRANCH   6  11
BRANCH   1  23
ATOM     22  C   UNL     1      30.940  22.766  24.832  0.00  0.00    +0.000 C 
ATOM     23  O   UNL     1      29.613  22.279  24.884  0.00  0.00    +0.000 OA
ENDBRANCH   1  23
TORSDOF 2
ENDMDL
MODEL 7
REMARK VINA RESULT:      -6.9     19.542     22.288
REMARK  Name = 
REMARK  2 active torsions:
REMARK  status: ('A' for Active; 'I' for Inactive)
REMARK    1  A    between atoms: O_2  and  C_3
REMARK    2  A    between atoms: C_8  and  C_9
REMARK                            x       y       z     vdW  Elec       q    Type
REMARK                         _______ _______ _______ _____ _____    ______ ____
ROOT
ATOM      1  C   UNL     1      25.062  24.972  26.872  0.00  0.00    +0.000 A 
ATOM      2  C   UNL     1      25.178  25.370  28.181  0.00  0.00    +0.000 A 
ATOM      3  C   UNL     1      25.897  24.629  29.101  0.00  0.00    +0.000 A 
ATOM      4  C   UNL     1      26.534  23.444  28.725  0.00  0.00    +0.000 A 
ATOM      5  C   UNL     1      26.417  23.055  27.429  0.00  0.00    +0.000 A 
ATOM      6  C   UNL     1      25.705  23.779  26.502  0.00  0.00    +0.000 A 
ATOM      7  C   UNL     1      27.278  22.732  29.791  0.00  0.00    +0.000 C 
ATOM      8  C   UNL     1      28.219  23.738  30.426  0.00  0.00    +0.000 C 
ATOM      9  C   UNL     1      27.524  24.995  30.852  0.00  0.00    +0.000 C 
ATOM     10  C   UNL     1      26.046  25.021  30.527  0.00  0.00    +0.000 C 
ENDROOT
BRANCH   6  11
ATOM     11  C   UNL     1      25.570  23.436  25.102  0.00  0.00    +0.000 C 
ATOM     12  C   UNL     1      26.503  23.625  24.200  0.00  0.00    +0.000 C 
ATOM     13  C   UNL     1      26.406  23.297  22.773  0.00  0.00    +0.000 C 
ATOM     14  O   UNL     1      25.401  22.795  22.214  0.00  0.00    +0.000 OA
ATOM     15  N   UNL     1      27.623  23.641  22.164  0.00  0.00    +0.000 NA
ATOM     16  C   UNL     1      28.461  24.171  23.172  0.00  0.00    +0.000 A 
ATOM     17  C   UNL     1      29.768  24.649  23.065  0.00  0.00    +0.000 A 
ATOM     18  C   UNL     1      30.411  25.118  24.173  0.00  0.00    +0.000 A 
ATOM     19  C   UNL     1      29.765  25.121  25.410  0.00  0.00    +0.000 A 
ATOM     20  C   UNL     1      28.478  24.655  25.533  0.00  0.00    +0.000 A 
ATOM     21  C   UNL     1      27.841  24.183  24.403  0.00  0.00    +0.000 A 
ENDBRANCH   6  11
BRANCH   1  23
ATOM     22  C   UNL     1      23.251  26.511  26.396  0.00  0.00    +0.000 C 
ATOM     23  O   UNL     1      24.339  25.720  25.959  0.00  0.00    +0.000 OA
ENDBRANCH   1  23
TORSDOF 2
ENDMDL
MODEL 8
REMARK VINA RESULT:      -6.8     20.475     23.949
REMARK  Name = 
REMARK  2 active torsions:
REMARK  status: ('A' for Active; 'I' for Inactive)
REMARK    1  A    between atoms: O_2  and  C_3
REMARK    2  A    between atoms: C_8  and  C_9
REMARK                            x       y       z     vdW  Elec       q    Type
REMARK                         _______ _______ _______ _____ _____    ______ ____
ROOT
ATOM      1  C   UNL     1      27.602  22.976  24.953  0.00  0.00    +0.000 A 
ATOM      2  C   UNL     1      27.310  22.593  26.239  0.00  0.00    +0.000 A 
ATOM      3  C   UNL     1      28.307  22.364  27.170  0.00  0.00    +0.000 A 
ATOM      4  C   UNL     1      29.653  22.517  26.830  0.00  0.00    +0.000 A 
ATOM      5  C   UNL     1      29.937  22.897  25.557  0.00  0.00    +0.000 A 
ATOM      6  C   UNL     1      28.959  23.128  24.619  0.00  0.00    +0.000 A 
ATOM      7  C   UNL     1      30.637  22.248  27.906  0.00  0.00    +0.000 C 
ATOM      8  C   UNL     1      30.227  23.083  29.103  0.00  0.00    +0.000 C 
ATOM      9  C   UNL     1      28.789  22.892  29.480  0.00  0.00    +0.000 C 
ATOM     10  C   UNL     1      28.036  21.945  28.571  0.00  0.00    +0.000 C 
ENDROOT
BRANCH   6  11
ATOM     11  C   UNL     1      29.194  23.565  23.260  0.00  0.00    +0.000 C 
ATOM     12  C   UNL     1      29.255  24.820  22.885  0.00  0.00    +0.000 C 
ATOM     13  C   UNL     1      29.487  25.306  21.521  0.00  0.00    +0.000 C 
ATOM     14  O   UNL     1      29.648  24.576  20.512  0.00  0.00    +0.000 OA
ATOM     15  N   UNL     1      29.495  26.709  21.554  0.00  0.00    +0.000 NA
ATOM     16  C   UNL     1      29.275  27.098  22.894  0.00  0.00    +0.000 A 
ATOM     17  C   UNL     1      29.200  28.383  23.435  0.00  0.00    +0.000 A 
ATOM     18  C   UNL     1      28.983  28.544  24.771  0.00  0.00    +0.000 A 
ATOM     19  C   UNL     1      28.836  27.429  25.599  0.00  0.00    +0.000 A 
ATOM     20  C   UNL     1      28.906  26.157  25.083  0.00  0.00    +0.000 A 
ATOM     21  C   UNL     1      29.126  26.010  23.728  0.00  0.00    +0.000 A 
ENDBRANCH   6  11
BRANCH   1  23
ATOM     22  C   UNL     1      25.603  24.173  24.289  0.00  0.00    +0.000 C 
ATOM     23  O   UNL     1      26.598  23.201  24.029  0.00  0.00    +0.000 OA
ENDBRANCH   1  23
TORSDOF 2
ENDMDL
MODEL 9
REMARK VINA RESULT:      -6.7     22.634     24.010
REMARK  Name = 
REMARK  2 active torsions:
REMARK  status: ('A' for Active; 'I' for Inactive)
REMARK    1  A    between atoms: O_2  and  C_3
REMARK    2  A    between atoms: C_8  and  C_9
REMARK                            x       y       z     vdW  Elec       q    Type
REMARK                         _______ _______ _______ _____ _____    ______ ____
ROOT
ATOM      1  C   UNL     1      24.790   4.313  15.341  0.00  0.00    +0.000 A 
ATOM      2  C   UNL     1      25.711   5.255  14.955  0.00  0.00    +0.000 A 
ATOM      3  C   UNL     1      26.345   6.067  15.878  0.00  0.00    +0.000 A 
ATOM      4  C   UNL     1      26.068   5.953  17.242  0.00  0.00    +0.000 A 
ATOM      5  C   UNL     1      25.157   5.019  17.620  0.00  0.00    +0.000 A 
ATOM      6  C   UNL     1      24.517   4.204  16.716  0.00  0.00    +0.000 A 
ATOM      7  C   UNL     1      26.806   6.872  18.141  0.00  0.00    +0.000 C 
ATOM      8  C   UNL     1      28.280   6.721  17.819  0.00  0.00    +0.000 C 
ATOM      9  C   UNL     1      28.575   6.872  16.357  0.00  0.00    +0.000 C 
ATOM     10  C   UNL     1      27.345   7.101  15.504  0.00  0.00    +0.000 C 
ENDROOT
BRANCH   6  11
ATOM     11  C   UNL     1      23.562   3.171  17.056  0.00  0.00    +0.000 C 
ATOM     12  C   UNL     1      23.869   1.907  17.227  0.00  0.00    +0.000 C 
ATOM     13  C   UNL     1      22.935   0.828  17.567  0.00  0.00    +0.000 C 
ATOM     14  O   UNL     1      21.698   0.969  17.730  0.00  0.00    +0.000 OA
ATOM     15  N   UNL     1      23.667  -0.365  17.672  0.00  0.00    +0.000 NA
ATOM     16  C   UNL     1      25.020  -0.051  17.407  0.00  0.00    +0.000 A 
ATOM     17  C   UNL     1      26.131  -0.896  17.394  0.00  0.00    +0.000 A 
ATOM     18  C   UNL     1      27.365  -0.387  17.117  0.00  0.00    +0.000 A 
ATOM     19  C   UNL     1      27.520   0.973  16.845  0.00  0.00    +0.000 A 
ATOM     20  C   UNL     1      26.436   1.819  16.853  0.00  0.00    +0.000 A 
ATOM     21  C   UNL     1      25.193   1.290  17.136  0.00  0.00    +0.000 A 
ENDBRANCH   6  11
BRANCH   1  23
ATOM     22  C   UNL     1      23.347   4.084  13.408  0.00  0.00    +0.000 C 
ATOM     23  O   UNL     1      24.160   3.506  14.411  0.00  0.00    +0.000 OA
ENDBRANCH   1  23
TORSDOF 2
ENDMDL
MODEL 10
REMARK VINA RESULT:      -6.6     20.181     21.565
REMARK  Name = 
REMARK  2 active torsions:
REMARK  status: ('A' for Active; 'I' for Inactive)
REMARK    1  A    between atoms: O_2  and  C_3
REMARK    2  A    between atoms: C_8  and  C_9
REMARK                            x       y       z     vdW  Elec       q    Type
REMARK                         _______ _______ _______ _____ _____    ______ ____
ROOT
ATOM      1  C   UNL     1      19.462  -6.945  25.812  0.00  0.00    +0.000 A 
ATOM      2  C   UNL     1      20.690  -6.409  25.510  0.00  0.00    +0.000 A 
ATOM      3  C   UNL     1      21.695  -7.174  24.947  0.00  0.00    +0.000 A 
ATOM      4  C   UNL     1      21.491  -8.527  24.665  0.00  0.00    +0.000 A 
ATOM      5  C   UNL     1      20.275  -9.053  24.965  0.00  0.00    +0.000 A 
ATOM      6  C   UNL     1      19.265  -8.307  25.524  0.00  0.00    +0.000 A 
ATOM      7  C   UNL     1      22.635  -9.251  24.061  0.00  0.00    +0.000 C 
ATOM      8  C   UNL     1      23.080  -8.451  22.852  0.00  0.00    +0.000 C 
ATOM      9  C   UNL     1      23.324  -7.007  23.168  0.00  0.00    +0.000 C 
ATOM     10  C   UNL     1      23.038  -6.636  24.607  0.00  0.00    +0.000 C 
ENDROOT
BRANCH   6  11
ATOM     11  C   UNL     1      17.941  -8.799  25.837  0.00  0.00    +0.000 C 
ATOM     12  C   UNL     1      17.635  -9.461  26.927  0.00  0.00    +0.000 C 
ATOM     13  C   UNL     1      16.310  -9.981  27.280  0.00  0.00    +0.000 C 
ATOM     14  O   UNL     1      15.279  -9.872  26.572  0.00  0.00    +0.000 OA
ATOM     15  N   UNL     1      16.409 -10.611  28.531  0.00  0.00    +0.000 NA
ATOM     16  C   UNL     1      17.752 -10.493  28.954  0.00  0.00    +0.000 A 
ATOM     17  C   UNL     1      18.346 -10.955  30.130  0.00  0.00    +0.000 A 
ATOM     18  C   UNL     1      19.672 -10.731  30.353  0.00  0.00    +0.000 A 
ATOM     19  C   UNL     1      20.436 -10.043  29.409  0.00  0.00    +0.000 A 
ATOM     20  C   UNL     1      19.868  -9.582  28.245  0.00  0.00    +0.000 A 
ATOM     21  C   UNL     1      18.524  -9.816  28.034  0.00  0.00    +0.000 A 
ENDBRANCH   6  11
BRANCH   1  23
ATOM     22  C   UNL     1      18.710  -4.813  26.684  0.00  0.00    +0.000 C 
ATOM     23  O   UNL     1      18.463  -6.171  26.375  0.00  0.00    +0.000 OA
ENDBRANCH   1  23
TORSDOF 2
ENDMDL
