MODEL 1
REMARK VINA RESULT:      -7.3      0.000      0.000
REMARK  Name = 
REMARK  7 active torsions:
REMARK  status: ('A' for Active; 'I' for Inactive)
REMARK    1  A    between atoms: C_2  and  O_3
REMARK    2  A    between atoms: O_3  and  C_4
REMARK    3  A    between atoms: C_7  and  N_8
REMARK    4  A    between atoms: C_11  and  N_12
REMARK    5  A    between atoms: N_12  and  C_13
REMARK    6  A    between atoms: C_20  and  S_21
REMARK    7  A    between atoms: S_21  and  C_22
REMARK                            x       y       z     vdW  Elec       q    Type
REMARK                         _______ _______ _______ _____ _____    ______ ____
ROOT
ATOM      1  N   UNL     1      38.126   3.706  15.962  0.00  0.00    +0.000 N 
ATOM      2  C   UNL     1      37.069   2.785  16.160  0.00  0.00    +0.000 C 
ATOM      3  O   UNL     1      36.202   2.836  17.067  0.00  0.00    +0.000 OA
ATOM      4  C   UNL     1      37.197   1.778  15.100  0.00  0.00    +0.000 C 
ATOM      5  C   UNL     1      38.198   1.994  14.310  0.00  0.00    +0.000 C 
ATOM      6  C   UNL     1      38.825   3.243  14.840  0.00  0.00    +0.000 C 
ATOM      7  O   UNL     1      39.834   3.757  14.313  0.00  0.00    +0.000 OA
ENDROOT
BRANCH   1  11
ATOM      8  C   UNL     1      38.953   7.101  18.381  0.00  0.00    +0.000 A 
ATOM      9  C   UNL     1      38.480   7.226  17.095  0.00  0.00    +0.000 A 
ATOM     10  C   UNL     1      38.204   6.137  16.290  0.00  0.00    +0.000 A 
ATOM     11  C   UNL     1      38.402   4.871  16.768  0.00  0.00    +0.000 A 
ATOM     12  C   UNL     1      38.876   4.727  18.057  0.00  0.00    +0.000 A 
ATOM     13  C   UNL     1      39.154   5.825  18.871  0.00  0.00    +0.000 A 
BRANCH   8  14
ATOM     14  O   UNL     1      39.222   8.219  19.169  0.00  0.00    +0.000 OA
BRANCH  14  16
ATOM     15  C   UNL     1      37.136   8.849  20.104  0.00  0.00    +0.000 C 
ATOM     16  C   UNL     1      38.528   8.382  20.389  0.00  0.00    +0.000 C 
ENDBRANCH  14  16
ENDBRANCH   8  14
ENDBRANCH   1  11
BRANCH   4  17
ATOM     17  N   UNL     1      36.245   0.715  15.037  0.00  0.00    +0.000 NA
BRANCH  17  18
ATOM     18  C   UNL     1      36.634  -0.599  15.395  0.00  0.00    +0.000 A 
ATOM     19  C   UNL     1      36.381  -1.648  14.545  0.00  0.00    +0.000 A 
ATOM     20  C   UNL     1      36.757  -2.907  14.896  0.00  0.00    +0.000 A 
ATOM     21  C   UNL     1      37.392  -3.148  16.096  0.00  0.00    +0.000 A 
ATOM     22  C   UNL     1      37.655  -2.112  16.963  0.00  0.00    +0.000 A 
ATOM     23  C   UNL     1      38.326  -2.264  18.265  0.00  0.00    +0.000 C 
ATOM     24  C   UNL     1      37.262  -0.830  16.585  0.00  0.00    +0.000 A 
ENDBRANCH  17  18
ENDBRANCH   4  17
BRANCH   5  25
ATOM     25  S   UNL     1      38.787   1.108  12.903  0.00  0.00    +0.000 S 
BRANCH  25  26
ATOM     26  C   UNL     1      39.484  -0.454  13.242  0.00  0.00    +0.000 A 
ATOM     27  C   UNL     1      39.437  -1.579  12.496  0.00  0.00    +0.000 A 
ATOM     28  C   UNL     1      40.032  -2.736  12.890  0.00  0.00    +0.000 A 
ATOM     29  C   UNL     1      40.719  -2.823  14.080  0.00  0.00    +0.000 A 
ATOM     30  C   UNL     1      40.780  -1.688  14.859  0.00  0.00    +0.000 A 
ATOM     31  C   UNL     1      40.187  -0.534  14.464  0.00  0.00    +0.000 A 
ENDBRANCH  25  26
ENDBRANCH   5  25
TORSDOF 7
ENDMDL
MODEL 2
REMARK VINA RESULT:      -7.2      1.133      3.318
REMARK  Name = 
REMARK  7 active torsions:
REMARK  status: ('A' for Active; 'I' for Inactive)
REMARK    1  A    between atoms: C_2  and  O_3
REMARK    2  A    between atoms: O_3  and  C_4
REMARK    3  A    between atoms: C_7  and  N_8
REMARK    4  A    between atoms: C_11  and  N_12
REMARK    5  A    between atoms: N_12  and  C_13
REMARK    6  A    between atoms: C_20  and  S_21
REMARK    7  A    between atoms: S_21  and  C_22
REMARK                            x       y       z     vdW  Elec       q    Type
REMARK                         _______ _______ _______ _____ _____    ______ ____
ROOT
ATOM      1  N   UNL     1      38.315   3.957  16.054  0.00  0.00    +0.000 N 
ATOM      2  C   UNL     1      39.033   3.606  14.885  0.00  0.00    +0.000 C 
ATOM      3  O   UNL     1      40.028   4.213  14.416  0.00  0.00    +0.000 OA
ATOM      4  C   UNL     1      38.383   2.406  14.348  0.00  0.00    +0.000 C 
ATOM      5  C   UNL     1      37.373   2.013  15.055  0.00  0.00    +0.000 C 
ATOM      6  C   UNL     1      37.300   2.999  16.176  0.00  0.00    +0.000 C 
ATOM      7  O   UNL     1      36.431   2.928  17.070  0.00  0.00    +0.000 OA
ENDROOT
BRANCH   1  11
ATOM      8  C   UNL     1      39.125   7.294  18.558  0.00  0.00    +0.000 A 
ATOM      9  C   UNL     1      39.257   6.001  19.010  0.00  0.00    +0.000 A 
ATOM     10  C   UNL     1      38.999   4.900  18.214  0.00  0.00    +0.000 A 
ATOM     11  C   UNL     1      38.594   5.078  16.920  0.00  0.00    +0.000 A 
ATOM     12  C   UNL     1      38.457   6.369  16.450  0.00  0.00    +0.000 A 
ATOM     13  C   UNL     1      38.717   7.480  17.252  0.00  0.00    +0.000 A 
BRANCH   8  14
ATOM     14  O   UNL     1      39.393   8.384  19.385  0.00  0.00    +0.000 OA
BRANCH  14  16
ATOM     15  C   UNL     1      37.273   8.923  20.299  0.00  0.00    +0.000 C 
ATOM     16  C   UNL     1      38.681   8.517  20.598  0.00  0.00    +0.000 C 
ENDBRANCH  14  16
ENDBRANCH   8  14
ENDBRANCH   1  11
BRANCH   4  17
ATOM     17  N   UNL     1      38.906   1.807  13.161  0.00  0.00    +0.000 NA
BRANCH  17  18
ATOM     18  C   UNL     1      39.655   0.609  13.252  0.00  0.00    +0.000 A 
ATOM     19  C   UNL     1      40.623   0.472  14.217  0.00  0.00    +0.000 A 
ATOM     20  C   UNL     1      41.339  -0.682  14.298  0.00  0.00    +0.000 A 
ATOM     21  C   UNL     1      41.109  -1.721  13.421  0.00  0.00    +0.000 A 
ATOM     22  C   UNL     1      40.144  -1.605  12.445  0.00  0.00    +0.000 A 
ATOM     23  C   UNL     1      39.822  -2.654  11.462  0.00  0.00    +0.000 C 
ATOM     24  C   UNL     1      39.422  -0.416  12.380  0.00  0.00    +0.000 A 
ENDBRANCH  17  18
ENDBRANCH   4  17
BRANCH   5  25
ATOM     25  S   UNL     1      36.268   0.653  14.858  0.00  0.00    +0.000 S 
BRANCH  25  26
ATOM     26  C   UNL     1      36.989  -0.926  15.025  0.00  0.00    +0.000 A 
ATOM     27  C   UNL     1      36.775  -2.034  14.283  0.00  0.00    +0.000 A 
ATOM     28  C   UNL     1      37.415  -3.208  14.532  0.00  0.00    +0.000 A 
ATOM     29  C   UNL     1      38.321  -3.329  15.560  0.00  0.00    +0.000 A 
ATOM     30  C   UNL     1      38.556  -2.212  16.331  0.00  0.00    +0.000 A 
ATOM     31  C   UNL     1      37.917  -1.042  16.082  0.00  0.00    +0.000 A 
ENDBRANCH  25  26
ENDBRANCH   5  25
TORSDOF 7
ENDMDL
MODEL 3
REMARK VINA RESULT:      -6.7      3.026      9.041
REMARK  Name = 
REMARK  7 active torsions:
REMARK  status: ('A' for Active; 'I' for Inactive)
REMARK    1  A    between atoms: C_2  and  O_3
REMARK    2  A    between atoms: O_3  and  C_4
REMARK    3  A    between atoms: C_7  and  N_8
REMARK    4  A    between atoms: C_11  and  N_12
REMARK    5  A    between atoms: N_12  and  C_13
REMARK    6  A    between atoms: C_20  and  S_21
REMARK    7  A    between atoms: S_21  and  C_22
REMARK                            x       y       z     vdW  Elec       q    Type
REMARK                         _______ _______ _______ _____ _____    ______ ____
ROOT
ATOM      1  N   UNL     1      36.727   3.542  15.606  0.00  0.00    +0.000 N 
ATOM      2  C   UNL     1      36.179   4.479  14.697  0.00  0.00    +0.000 C 
ATOM      3  O   UNL     1      35.213   4.279  13.919  0.00  0.00    +0.000 OA
ATOM      4  C   UNL     1      36.961   5.710  14.853  0.00  0.00    +0.000 C 
ATOM      5  C   UNL     1      37.899   5.610  15.738  0.00  0.00    +0.000 C 
ATOM      6  C   UNL     1      37.776   4.211  16.250  0.00  0.00    +0.000 C 
ATOM      7  O   UNL     1      38.533   3.756  17.133  0.00  0.00    +0.000 OA
ENDROOT
BRANCH   1  11
ATOM      8  C   UNL     1      35.443  -0.473  16.145  0.00  0.00    +0.000 A 
ATOM      9  C   UNL     1      34.895   0.565  16.863  0.00  0.00    +0.000 A 
ATOM     10  C   UNL     1      35.297   1.878  16.705  0.00  0.00    +0.000 A 
ATOM     11  C   UNL     1      36.278   2.185  15.804  0.00  0.00    +0.000 A 
ATOM     12  C   UNL     1      36.840   1.155  15.074  0.00  0.00    +0.000 A 
ATOM     13  C   UNL     1      36.435  -0.171  15.232  0.00  0.00    +0.000 A 
BRANCH   8  14
ATOM     14  O   UNL     1      35.017  -1.788  16.326  0.00  0.00    +0.000 OA
BRANCH  14  16
ATOM     15  C   UNL     1      34.502  -3.773  15.138  0.00  0.00    +0.000 C 
ATOM     16  C   UNL     1      35.577  -2.808  15.526  0.00  0.00    +0.000 C 
ENDBRANCH  14  16
ENDBRANCH   8  14
ENDBRANCH   1  11
BRANCH   4  17
ATOM     17  N   UNL     1      36.621   6.851  14.063  0.00  0.00    +0.000 NA
BRANCH  17  18
ATOM     18  C   UNL     1      35.751   7.836  14.589  0.00  0.00    +0.000 A 
ATOM     19  C   UNL     1      34.393   7.714  14.426  0.00  0.00    +0.000 A 
ATOM     20  C   UNL     1      33.563   8.665  14.933  0.00  0.00    +0.000 A 
ATOM     21  C   UNL     1      34.066   9.754  15.613  0.00  0.00    +0.000 A 
ATOM     22  C   UNL     1      35.424   9.897  15.788  0.00  0.00    +0.000 A 
ATOM     23  C   UNL     1      36.060  11.021  16.497  0.00  0.00    +0.000 C 
ATOM     24  C   UNL     1      36.256   8.912  15.261  0.00  0.00    +0.000 A 
ENDBRANCH  17  18
ENDBRANCH   4  17
BRANCH   5  25
ATOM     25  S   UNL     1      39.101   6.770  16.303  0.00  0.00    +0.000 S 
BRANCH  25  26
ATOM     26  C   UNL     1      38.886   7.328  17.941  0.00  0.00    +0.000 A 
ATOM     27  C   UNL     1      37.989   8.218  18.419  0.00  0.00    +0.000 A 
ATOM     28  C   UNL     1      37.937   8.562  19.734  0.00  0.00    +0.000 A 
ATOM     29  C   UNL     1      38.804   8.016  20.654  0.00  0.00    +0.000 A 
ATOM     30  C   UNL     1      39.728   7.106  20.190  0.00  0.00    +0.000 A 
ATOM     31  C   UNL     1      39.778   6.764  18.879  0.00  0.00    +0.000 A 
ENDBRANCH  25  26
ENDBRANCH   5  25
TORSDOF 7
ENDMDL
MODEL 4
REMARK VINA RESULT:      -6.7      4.231      7.176
REMARK  Name = 
REMARK  7 active torsions:
REMARK  status: ('A' for Active; 'I' for Inactive)
REMARK    1  A    between atoms: C_2  and  O_3
REMARK    2  A    between atoms: O_3  and  C_4
REMARK    3  A    between atoms: C_7  and  N_8
REMARK    4  A    between atoms: C_11  and  N_12
REMARK    5  A    between atoms: N_12  and  C_13
REMARK    6  A    between atoms: C_20  and  S_21
REMARK    7  A    between atoms: S_21  and  C_22
REMARK                            x       y       z     vdW  Elec       q    Type
REMARK                         _______ _______ _______ _____ _____    ______ ____
ROOT
ATOM      1  N   UNL     1      36.174   5.280  14.077  0.00  0.00    +0.000 N 
ATOM      2  C   UNL     1      35.665   4.212  14.855  0.00  0.00    +0.000 C 
ATOM      3  O   UNL     1      34.583   3.603  14.660  0.00  0.00    +0.000 OA
ATOM      4  C   UNL     1      36.649   3.971  15.916  0.00  0.00    +0.000 C 
ATOM      5  C   UNL     1      37.668   4.766  15.857  0.00  0.00    +0.000 C 
ATOM      6  C   UNL     1      37.393   5.632  14.669  0.00  0.00    +0.000 C 
ATOM      7  O   UNL     1      38.180   6.529  14.304  0.00  0.00    +0.000 OA
ENDROOT
BRANCH   1  11
ATOM      8  C   UNL     1      34.359   6.979  10.630  0.00  0.00    +0.000 A 
ATOM      9  C   UNL     1      33.849   7.182  11.891  0.00  0.00    +0.000 A 
ATOM     10  C   UNL     1      34.421   6.640  13.027  0.00  0.00    +0.000 A 
ATOM     11  C   UNL     1      35.542   5.865  12.918  0.00  0.00    +0.000 A 
ATOM     12  C   UNL     1      36.068   5.650  11.658  0.00  0.00    +0.000 A 
ATOM     13  C   UNL     1      35.491   6.197  10.512  0.00  0.00    +0.000 A 
BRANCH   8  14
ATOM     14  O   UNL     1      33.758   7.540   9.503  0.00  0.00    +0.000 OA
BRANCH  14  16
ATOM     15  C   UNL     1      34.185   8.219   7.273  0.00  0.00    +0.000 C 
ATOM     16  C   UNL     1      34.123   7.066   8.224  0.00  0.00    +0.000 C 
ENDBRANCH  14  16
ENDBRANCH   8  14
ENDBRANCH   1  11
BRANCH   4  17
ATOM     17  N   UNL     1      36.407   2.925  16.859  0.00  0.00    +0.000 NA
BRANCH  17  18
ATOM     18  C   UNL     1      36.282   1.589  16.409  0.00  0.00    +0.000 A 
ATOM     19  C   UNL     1      37.077   1.128  15.388  0.00  0.00    +0.000 A 
ATOM     20  C   UNL     1      36.950  -0.157  14.960  0.00  0.00    +0.000 A 
ATOM     21  C   UNL     1      36.032  -1.008  15.538  0.00  0.00    +0.000 A 
ATOM     22  C   UNL     1      35.224  -0.568  16.562  0.00  0.00    +0.000 A 
ATOM     23  C   UNL     1      34.215  -1.396  17.244  0.00  0.00    +0.000 C 
ATOM     24  C   UNL     1      35.370   0.752  16.986  0.00  0.00    +0.000 A 
ENDBRANCH  17  18
ENDBRANCH   4  17
BRANCH   5  25
ATOM     25  S   UNL     1      39.106   4.897  16.868  0.00  0.00    +0.000 S 
BRANCH  25  26
ATOM     26  C   UNL     1      39.021   6.092  18.136  0.00  0.00    +0.000 A 
ATOM     27  C   UNL     1      38.142   7.107  18.280  0.00  0.00    +0.000 A 
ATOM     28  C   UNL     1      38.197   7.971  19.330  0.00  0.00    +0.000 A 
ATOM     29  C   UNL     1      39.158   7.854  20.307  0.00  0.00    +0.000 A 
ATOM     30  C   UNL     1      40.066   6.825  20.181  0.00  0.00    +0.000 A 
ATOM     31  C   UNL     1      40.010   5.965  19.135  0.00  0.00    +0.000 A 
ENDBRANCH  25  26
ENDBRANCH   5  25
TORSDOF 7
ENDMDL
MODEL 5
REMARK VINA RESULT:      -6.6      2.976      9.098
REMARK  Name = 
REMARK  7 active torsions:
REMARK  status: ('A' for Active; 'I' for Inactive)
REMARK    1  A    between atoms: C_2  and  O_3
REMARK    2  A    between atoms: O_3  and  C_4
REMARK    3  A    between atoms: C_7  and  N_8
REMARK    4  A    between atoms: C_11  and  N_12
REMARK    5  A    between atoms: N_12  and  C_13
REMARK    6  A    between atoms: C_20  and  S_21
REMARK    7  A    between atoms: S_21  and  C_22
REMARK                            x       y       z     vdW  Elec       q    Type
REMARK                         _______ _______ _______ _____ _____    ______ ____
ROOT
ATOM      1  N   UNL     1      36.723   3.611  15.558  0.00  0.00    +0.000 N 
ATOM      2  C   UNL     1      37.847   4.218  16.170  0.00  0.00    +0.000 C 
ATOM      3  O   UNL     1      38.647   3.664  16.965  0.00  0.00    +0.000 OA
ATOM      4  C   UNL     1      37.879   5.603  15.690  0.00  0.00    +0.000 C 
ATOM      5  C   UNL     1      36.914   5.884  14.875  0.00  0.00    +0.000 C 
ATOM      6  C   UNL     1      36.141   4.608  14.764  0.00  0.00    +0.000 C 
ATOM      7  O   UNL     1      35.125   4.506  14.047  0.00  0.00    +0.000 OA
ENDROOT
BRANCH   1  11
ATOM      8  C   UNL     1      35.413  -0.391  16.124  0.00  0.00    +0.000 A 
ATOM      9  C   UNL     1      36.394  -0.073  15.214  0.00  0.00    +0.000 A 
ATOM     10  C   UNL     1      36.836   1.221  15.013  0.00  0.00    +0.000 A 
ATOM     11  C   UNL     1      36.291   2.245  15.735  0.00  0.00    +0.000 A 
ATOM     12  C   UNL     1      35.304   1.944  16.654  0.00  0.00    +0.000 A 
ATOM     13  C   UNL     1      34.857   0.639  16.858  0.00  0.00    +0.000 A 
BRANCH   8  14
ATOM     14  O   UNL     1      34.987  -1.707  16.305  0.00  0.00    +0.000 OA
BRANCH  14  16
ATOM     15  C   UNL     1      34.366  -3.742  15.261  0.00  0.00    +0.000 C 
ATOM     16  C   UNL     1      35.431  -2.701  15.406  0.00  0.00    +0.000 C 
ENDBRANCH  14  16
ENDBRANCH   8  14
ENDBRANCH   1  11
BRANCH   4  17
ATOM     17  N   UNL     1      38.928   6.466  16.134  0.00  0.00    +0.000 NA
BRANCH  17  18
ATOM     18  C   UNL     1      39.046   6.776  17.510  0.00  0.00    +0.000 A 
ATOM     19  C   UNL     1      40.053   6.217  18.258  0.00  0.00    +0.000 A 
ATOM     20  C   UNL     1      40.160   6.519  19.581  0.00  0.00    +0.000 A 
ATOM     21  C   UNL     1      39.269   7.381  20.185  0.00  0.00    +0.000 A 
ATOM     22  C   UNL     1      38.251   7.952  19.454  0.00  0.00    +0.000 A 
ATOM     23  C   UNL     1      37.251   8.883  20.003  0.00  0.00    +0.000 C 
ATOM     24  C   UNL     1      38.160   7.630  18.102  0.00  0.00    +0.000 A 
ENDBRANCH  17  18
ENDBRANCH   4  17
BRANCH   5  25
ATOM     25  S   UNL     1      36.499   7.371  14.024  0.00  0.00    +0.000 S 
BRANCH  25  26
ATOM     26  C   UNL     1      35.665   8.569  14.978  0.00  0.00    +0.000 A 
ATOM     27  C   UNL     1      36.187   9.589  15.695  0.00  0.00    +0.000 A 
ATOM     28  C   UNL     1      35.408  10.454  16.399  0.00  0.00    +0.000 A 
ATOM     29  C   UNL     1      34.037  10.335  16.417  0.00  0.00    +0.000 A 
ATOM     30  C   UNL     1      33.482   9.302  15.694  0.00  0.00    +0.000 A 
ATOM     31  C   UNL     1      34.260   8.441  14.992  0.00  0.00    +0.000 A 
ENDBRANCH  25  26
ENDBRANCH   5  25
TORSDOF 7
ENDMDL
MODEL 6
REMARK VINA RESULT:      -6.6      3.450      6.060
REMARK  Name = 
REMARK  7 active torsions:
REMARK  status: ('A' for Active; 'I' for Inactive)
REMARK    1  A    between atoms: C_2  and  O_3
REMARK    2  A    between atoms: O_3  and  C_4
REMARK    3  A    between atoms: C_7  and  N_8
REMARK    4  A    between atoms: C_11  and  N_12
REMARK    5  A    between atoms: N_12  and  C_13
REMARK    6  A    between atoms: C_20  and  S_21
REMARK    7  A    between atoms: S_21  and  C_22
REMARK                            x       y       z     vdW  Elec       q    Type
REMARK                         _______ _______ _______ _____ _____    ______ ____
ROOT
ATOM      1  N   UNL     1      38.342   4.922  16.437  0.00  0.00    +0.000 N 
ATOM      2  C   UNL     1      38.097   5.376  15.118  0.00  0.00    +0.000 C 
ATOM      3  O   UNL     1      38.656   6.349  14.553  0.00  0.00    +0.000 OA
ATOM      4  C   UNL     1      37.073   4.485  14.561  0.00  0.00    +0.000 C 
ATOM      5  C   UNL     1      36.687   3.570  15.390  0.00  0.00    +0.000 C 
ATOM      6  C   UNL     1      37.494   3.823  16.623  0.00  0.00    +0.000 C 
ATOM      7  O   UNL     1      37.384   3.117  17.647  0.00  0.00    +0.000 OA
ENDROOT
BRANCH   1  11
ATOM      8  C   UNL     1      41.139   6.614  19.153  0.00  0.00    +0.000 A 
ATOM      9  C   UNL     1      39.872   6.254  19.550  0.00  0.00    +0.000 A 
ATOM     10  C   UNL     1      38.946   5.702  18.685  0.00  0.00    +0.000 A 
ATOM     11  C   UNL     1      39.278   5.497  17.375  0.00  0.00    +0.000 A 
ATOM     12  C   UNL     1      40.546   5.853  16.958  0.00  0.00    +0.000 A 
ATOM     13  C   UNL     1      41.482   6.409  17.830  0.00  0.00    +0.000 A 
BRANCH   8  14
ATOM     14  O   UNL     1      42.052   7.169  20.049  0.00  0.00    +0.000 OA
BRANCH  14  16
ATOM     15  C   UNL     1      43.434   6.004  21.583  0.00  0.00    +0.000 C 
ATOM     16  C   UNL     1      43.319   6.564  20.201  0.00  0.00    +0.000 C 
ENDBRANCH  14  16
ENDBRANCH   8  14
ENDBRANCH   1  11
BRANCH   4  17
ATOM     17  N   UNL     1      36.630   4.694  13.219  0.00  0.00    +0.000 NA
BRANCH  17  18
ATOM     18  C   UNL     1      35.570   5.597  12.963  0.00  0.00    +0.000 A 
ATOM     19  C   UNL     1      34.698   5.939  13.967  0.00  0.00    +0.000 A 
ATOM     20  C   UNL     1      33.681   6.807  13.713  0.00  0.00    +0.000 A 
ATOM     21  C   UNL     1      33.511   7.350  12.457  0.00  0.00    +0.000 A 
ATOM     22  C   UNL     1      34.373   7.020  11.435  0.00  0.00    +0.000 A 
ATOM     23  C   UNL     1      34.277   7.545  10.062  0.00  0.00    +0.000 C 
ATOM     24  C   UNL     1      35.407   6.131  11.716  0.00  0.00    +0.000 A 
ENDBRANCH  17  18
ENDBRANCH   4  17
BRANCH   5  25
ATOM     25  S   UNL     1      35.505   2.271  15.228  0.00  0.00    +0.000 S 
BRANCH  25  26
ATOM     26  C   UNL     1      35.888   0.802  16.086  0.00  0.00    +0.000 A 
ATOM     27  C   UNL     1      36.886  -0.078  15.849  0.00  0.00    +0.000 A 
ATOM     28  C   UNL     1      37.066  -1.192  16.608  0.00  0.00    +0.000 A 
ATOM     29  C   UNL     1      36.234  -1.484  17.665  0.00  0.00    +0.000 A 
ATOM     30  C   UNL     1      35.209  -0.601  17.926  0.00  0.00    +0.000 A 
ATOM     31  C   UNL     1      35.032   0.510  17.169  0.00  0.00    +0.000 A 
ENDBRANCH  25  26
ENDBRANCH   5  25
TORSDOF 7
ENDMDL
MODEL 7
REMARK VINA RESULT:      -6.5      2.529      8.512
REMARK  Name = 
REMARK  7 active torsions:
REMARK  status: ('A' for Active; 'I' for Inactive)
REMARK    1  A    between atoms: C_2  and  O_3
REMARK    2  A    between atoms: O_3  and  C_4
REMARK    3  A    between atoms: C_7  and  N_8
REMARK    4  A    between atoms: C_11  and  N_12
REMARK    5  A    between atoms: N_12  and  C_13
REMARK    6  A    between atoms: C_20  and  S_21
REMARK    7  A    between atoms: S_21  and  C_22
REMARK                            x       y       z     vdW  Elec       q    Type
REMARK                         _______ _______ _______ _____ _____    ______ ____
ROOT
ATOM      1  N   UNL     1      38.763   2.927  14.876  0.00  0.00    +0.000 N 
ATOM      2  C   UNL     1      37.971   3.537  15.878  0.00  0.00    +0.000 C 
ATOM      3  O   UNL     1      37.096   2.969  16.578  0.00  0.00    +0.000 OA
ATOM      4  C   UNL     1      38.380   4.944  15.926  0.00  0.00    +0.000 C 
ATOM      5  C   UNL     1      39.311   5.235  15.076  0.00  0.00    +0.000 C 
ATOM      6  C   UNL     1      39.587   3.943  14.375  0.00  0.00    +0.000 C 
ATOM      7  O   UNL     1      40.446   3.846  13.474  0.00  0.00    +0.000 OA
ENDROOT
BRANCH   1  11
ATOM      8  C   UNL     1      38.550  -1.143  13.671  0.00  0.00    +0.000 A 
ATOM      9  C   UNL     1      39.651  -0.638  14.322  0.00  0.00    +0.000 A 
ATOM     10  C   UNL     1      39.743   0.682  14.723  0.00  0.00    +0.000 A 
ATOM     11  C   UNL     1      38.710   1.541  14.473  0.00  0.00    +0.000 A 
ATOM     12  C   UNL     1      37.596   1.051  13.820  0.00  0.00    +0.000 A 
ATOM     13  C   UNL     1      37.502  -0.280  13.415  0.00  0.00    +0.000 A 
BRANCH   8  14
ATOM     14  O   UNL     1      38.486  -2.480  13.278  0.00  0.00    +0.000 OA
BRANCH  14  16
ATOM     15  C   UNL     1      37.671  -3.568  15.219  0.00  0.00    +0.000 C 
ATOM     16  C   UNL     1      37.439  -3.290  13.768  0.00  0.00    +0.000 C 
ENDBRANCH  14  16
ENDBRANCH   8  14
ENDBRANCH   1  11
BRANCH   4  17
ATOM     17  N   UNL     1      37.753   5.816  16.869  0.00  0.00    +0.000 NA
BRANCH  17  18
ATOM     18  C   UNL     1      38.473   6.254  18.007  0.00  0.00    +0.000 A 
ATOM     19  C   UNL     1      39.527   5.513  18.482  0.00  0.00    +0.000 A 
ATOM     20  C   UNL     1      40.214   5.940  19.577  0.00  0.00    +0.000 A 
ATOM     21  C   UNL     1      39.866   7.109  20.219  0.00  0.00    +0.000 A 
ATOM     22  C   UNL     1      38.812   7.867  19.760  0.00  0.00    +0.000 A 
ATOM     23  C   UNL     1      38.363   9.129  20.373  0.00  0.00    +0.000 C 
ATOM     24  C   UNL     1      38.123   7.413  18.638  0.00  0.00    +0.000 A 
ENDBRANCH  17  18
ENDBRANCH   4  17
BRANCH   5  25
ATOM     25  S   UNL     1      40.146   6.749  14.730  0.00  0.00    +0.000 S 
BRANCH  25  26
ATOM     26  C   UNL     1      41.185   7.335  16.001  0.00  0.00    +0.000 A 
ATOM     27  C   UNL     1      41.101   8.492  16.693  0.00  0.00    +0.000 A 
ATOM     28  C   UNL     1      41.992   8.822  17.667  0.00  0.00    +0.000 A 
ATOM     29  C   UNL     1      43.034   7.987  18.000  0.00  0.00    +0.000 A 
ATOM     30  C   UNL     1      43.141   6.801  17.307  0.00  0.00    +0.000 A 
ATOM     31  C   UNL     1      42.252   6.474  16.337  0.00  0.00    +0.000 A 
ENDBRANCH  25  26
ENDBRANCH   5  25
TORSDOF 7
ENDMDL
MODEL 8
REMARK VINA RESULT:      -6.5      3.814      7.693
REMARK  Name = 
REMARK  7 active torsions:
REMARK  status: ('A' for Active; 'I' for Inactive)
REMARK    1  A    between atoms: C_2  and  O_3
REMARK    2  A    between atoms: O_3  and  C_4
REMARK    3  A    between atoms: C_7  and  N_8
REMARK    4  A    between atoms: C_11  and  N_12
REMARK    5  A    between atoms: N_12  and  C_13
REMARK    6  A    between atoms: C_20  and  S_21
REMARK    7  A    between atoms: S_21  and  C_22
REMARK                            x       y       z     vdW  Elec       q    Type
REMARK                         _______ _______ _______ _____ _____    ______ ____
ROOT
ATOM      1  N   UNL     1      40.726  -1.844  14.232  0.00  0.00    +0.000 N 
ATOM      2  C   UNL     1      39.983  -2.681  15.100  0.00  0.00    +0.000 C 
ATOM      3  O   UNL     1      40.443  -3.614  15.804  0.00  0.00    +0.000 OA
ATOM      4  C   UNL     1      38.588  -2.236  15.005  0.00  0.00    +0.000 C 
ATOM      5  C   UNL     1      38.422  -1.246  14.190  0.00  0.00    +0.000 C 
ATOM      6  C   UNL     1      39.795  -0.963  13.668  0.00  0.00    +0.000 C 
ATOM      7  O   UNL     1      40.019  -0.052  12.844  0.00  0.00    +0.000 OA
ENDROOT
BRANCH   1  11
ATOM      8  C   UNL     1      44.905  -2.086  13.499  0.00  0.00    +0.000 A 
ATOM      9  C   UNL     1      44.384  -1.228  14.439  0.00  0.00    +0.000 A 
ATOM     10  C   UNL     1      43.028  -1.131  14.695  0.00  0.00    +0.000 A 
ATOM     11  C   UNL     1      42.149  -1.911  13.997  0.00  0.00    +0.000 A 
ATOM     12  C   UNL     1      42.655  -2.779  13.049  0.00  0.00    +0.000 A 
ATOM     13  C   UNL     1      44.022  -2.877  12.790  0.00  0.00    +0.000 A 
BRANCH   8  14
ATOM     14  O   UNL     1      46.277  -2.160  13.263  0.00  0.00    +0.000 OA
BRANCH  14  16
ATOM     15  C   UNL     1      47.913  -2.132  14.979  0.00  0.00    +0.000 C 
ATOM     16  C   UNL     1      47.145  -1.315  13.990  0.00  0.00    +0.000 C 
ENDBRANCH  14  16
ENDBRANCH   8  14
ENDBRANCH   1  11
BRANCH   4  17
ATOM     17  N   UNL     1      37.596  -2.896  15.793  0.00  0.00    +0.000 NA
BRANCH  17  18
ATOM     18  C   UNL     1      36.815  -2.150  16.708  0.00  0.00    +0.000 A 
ATOM     19  C   UNL     1      37.424  -1.321  17.618  0.00  0.00    +0.000 A 
ATOM     20  C   UNL     1      36.667  -0.607  18.495  0.00  0.00    +0.000 A 
ATOM     21  C   UNL     1      35.292  -0.704  18.485  0.00  0.00    +0.000 A 
ATOM     22  C   UNL     1      34.660  -1.529  17.582  0.00  0.00    +0.000 A 
ATOM     23  C   UNL     1      33.200  -1.702  17.489  0.00  0.00    +0.000 C 
ATOM     24  C   UNL     1      35.453  -2.251  16.692  0.00  0.00    +0.000 A 
ENDBRANCH  17  18
ENDBRANCH   4  17
BRANCH   5  25
ATOM     25  S   UNL     1      36.979  -0.348  13.720  0.00  0.00    +0.000 S 
BRANCH  25  26
ATOM     26  C   UNL     1      36.525   0.950  14.792  0.00  0.00    +0.000 A 
ATOM     27  C   UNL     1      35.315   1.215  15.330  0.00  0.00    +0.000 A 
ATOM     28  C   UNL     1      35.105   2.274  16.158  0.00  0.00    +0.000 A 
ATOM     29  C   UNL     1      36.124   3.137  16.492  0.00  0.00    +0.000 A 
ATOM     30  C   UNL     1      37.367   2.887  15.955  0.00  0.00    +0.000 A 
ATOM     31  C   UNL     1      37.575   1.830  15.131  0.00  0.00    +0.000 A 
ENDBRANCH  25  26
ENDBRANCH   5  25
TORSDOF 7
ENDMDL
MODEL 9
REMARK VINA RESULT:      -6.3      3.673      8.243
REMARK  Name = 
REMARK  7 active torsions:
REMARK  status: ('A' for Active; 'I' for Inactive)
REMARK    1  A    between atoms: C_2  and  O_3
REMARK    2  A    between atoms: O_3  and  C_4
REMARK    3  A    between atoms: C_7  and  N_8
REMARK    4  A    between atoms: C_11  and  N_12
REMARK    5  A    between atoms: N_12  and  C_13
REMARK    6  A    between atoms: C_20  and  S_21
REMARK    7  A    between atoms: S_21  and  C_22
REMARK                            x       y       z     vdW  Elec       q    Type
REMARK                         _______ _______ _______ _____ _____    ______ ____
ROOT
ATOM      1  N   UNL     1      40.275  -2.106  14.429  0.00  0.00    +0.000 N 
ATOM      2  C   UNL     1      39.299  -1.230  13.896  0.00  0.00    +0.000 C 
ATOM      3  O   UNL     1      39.463  -0.430  12.941  0.00  0.00    +0.000 OA
ATOM      4  C   UNL     1      38.078  -1.450  14.678  0.00  0.00    +0.000 C 
ATOM      5  C   UNL     1      38.218  -2.343  15.603  0.00  0.00    +0.000 C 
ATOM      6  C   UNL     1      39.638  -2.794  15.470  0.00  0.00    +0.000 C 
ATOM      7  O   UNL     1      40.132  -3.667  16.213  0.00  0.00    +0.000 OA
ENDROOT
BRANCH   1  11
ATOM      8  C   UNL     1      44.306  -2.454  13.128  0.00  0.00    +0.000 A 
ATOM      9  C   UNL     1      43.303  -3.226  12.590  0.00  0.00    +0.000 A 
ATOM     10  C   UNL     1      41.985  -3.131  12.997  0.00  0.00    +0.000 A 
ATOM     11  C   UNL     1      41.639  -2.239  13.974  0.00  0.00    +0.000 A 
ATOM     12  C   UNL     1      42.634  -1.456  14.526  0.00  0.00    +0.000 A 
ATOM     13  C   UNL     1      43.963  -1.551  14.116  0.00  0.00    +0.000 A 
BRANCH   8  14
ATOM     14  O   UNL     1      45.626  -2.573  12.696  0.00  0.00    +0.000 OA
BRANCH  14  16
ATOM     15  C   UNL     1      46.345  -2.358  10.448  0.00  0.00    +0.000 C 
ATOM     16  C   UNL     1      45.900  -3.303  11.518  0.00  0.00    +0.000 C 
ENDBRANCH  14  16
ENDBRANCH   8  14
ENDBRANCH   1  11
BRANCH   4  17
ATOM     17  N   UNL     1      36.903  -0.704  14.353  0.00  0.00    +0.000 NA
BRANCH  17  18
ATOM     18  C   UNL     1      36.532   0.404  15.152  0.00  0.00    +0.000 A 
ATOM     19  C   UNL     1      35.414   0.335  15.947  0.00  0.00    +0.000 A 
ATOM     20  C   UNL     1      35.062   1.404  16.712  0.00  0.00    +0.000 A 
ATOM     21  C   UNL     1      35.814   2.561  16.700  0.00  0.00    +0.000 A 
ATOM     22  C   UNL     1      36.937   2.651  15.910  0.00  0.00    +0.000 A 
ATOM     23  C   UNL     1      37.805   3.839  15.827  0.00  0.00    +0.000 C 
ATOM     24  C   UNL     1      37.280   1.545  15.135  0.00  0.00    +0.000 A 
ENDBRANCH  17  18
ENDBRANCH   4  17
BRANCH   5  25
ATOM     25  S   UNL     1      37.086  -2.976  16.798  0.00  0.00    +0.000 S 
BRANCH  25  26
ATOM     26  C   UNL     1      35.869  -4.058  16.175  0.00  0.00    +0.000 A 
ATOM     27  C   UNL     1      35.874  -5.408  16.149  0.00  0.00    +0.000 A 
ATOM     28  C   UNL     1      34.846  -6.128  15.625  0.00  0.00    +0.000 A 
ATOM     29  C   UNL     1      33.738  -5.513  15.089  0.00  0.00    +0.000 A 
ATOM     30  C   UNL     1      33.710  -4.135  15.104  0.00  0.00    +0.000 A 
ATOM     31  C   UNL     1      34.736  -3.419  15.627  0.00  0.00    +0.000 A 
ENDBRANCH  25  26
ENDBRANCH   5  25
TORSDOF 7
ENDMDL
MODEL 10
REMARK VINA RESULT:      -6.2     23.703     26.639
REMARK  Name = 
REMARK  7 active torsions:
REMARK  status: ('A' for Active; 'I' for Inactive)
REMARK    1  A    between atoms: C_2  and  O_3
REMARK    2  A    between atoms: O_3  and  C_4
REMARK    3  A    between atoms: C_7  and  N_8
REMARK    4  A    between atoms: C_11  and  N_12
REMARK    5  A    between atoms: N_12  and  C_13
REMARK    6  A    between atoms: C_20  and  S_21
REMARK    7  A    between atoms: S_21  and  C_22
REMARK                            x       y       z     vdW  Elec       q    Type
REMARK                         _______ _______ _______ _____ _____    ______ ____
ROOT
ATOM      1  N   UNL     1      31.515  14.774  36.531  0.00  0.00    +0.000 N 
ATOM      2  C   UNL     1      30.936  15.301  35.351  0.00  0.00    +0.000 C 
ATOM      3  O   UNL     1      31.338  15.105  34.177  0.00  0.00    +0.000 OA
ATOM      4  C   UNL     1      29.789  16.108  35.781  0.00  0.00    +0.000 C 
ATOM      5  C   UNL     1      29.626  16.122  37.064  0.00  0.00    +0.000 C 
ATOM      6  C   UNL     1      30.732  15.261  37.586  0.00  0.00    +0.000 C 
ATOM      7  O   UNL     1      30.887  15.043  38.806  0.00  0.00    +0.000 OA
ENDROOT
BRANCH   1  11
ATOM      8  C   UNL     1      34.962  12.296  36.721  0.00  0.00    +0.000 A 
ATOM      9  C   UNL     1      33.703  11.805  36.979  0.00  0.00    +0.000 A 
ATOM     10  C   UNL     1      32.567  12.592  36.923  0.00  0.00    +0.000 A 
ATOM     11  C   UNL     1      32.674  13.916  36.601  0.00  0.00    +0.000 A 
ATOM     12  C   UNL     1      33.931  14.426  36.339  0.00  0.00    +0.000 A 
ATOM     13  C   UNL     1      35.077  13.633  36.395  0.00  0.00    +0.000 A 
BRANCH   8  14
ATOM     14  O   UNL     1      36.088  11.477  36.784  0.00  0.00    +0.000 OA
BRANCH  14  16
ATOM     15  C   UNL     1      36.838   9.987  38.469  0.00  0.00    +0.000 C 
ATOM     16  C   UNL     1      35.953  10.159  37.276  0.00  0.00    +0.000 C 
ENDBRANCH  14  16
ENDBRANCH   8  14
ENDBRANCH   1  11
BRANCH   4  17
ATOM     17  N   UNL     1      28.992  16.761  34.790  0.00  0.00    +0.000 NA
BRANCH  17  18
ATOM     18  C   UNL     1      27.730  16.223  34.439  0.00  0.00    +0.000 A 
ATOM     19  C   UNL     1      27.483  14.882  34.602  0.00  0.00    +0.000 A 
ATOM     20  C   UNL     1      26.268  14.372  34.261  0.00  0.00    +0.000 A 
ATOM     21  C   UNL     1      25.277  15.185  33.753  0.00  0.00    +0.000 A 
ATOM     22  C   UNL     1      25.503  16.532  33.581  0.00  0.00    +0.000 A 
ATOM     23  C   UNL     1      24.512  17.483  33.048  0.00  0.00    +0.000 C 
ATOM     24  C   UNL     1      26.753  17.034  33.936  0.00  0.00    +0.000 A 
ENDBRANCH  17  18
ENDBRANCH   4  17
BRANCH   5  25
ATOM     25  S   UNL     1      28.425  16.917  38.081  0.00  0.00    +0.000 S 
BRANCH  25  26
ATOM     26  C   UNL     1      26.937  16.037  38.307  0.00  0.00    +0.000 A 
ATOM     27  C   UNL     1      26.702  14.964  39.094  0.00  0.00    +0.000 A 
ATOM     28  C   UNL     1      25.479  14.374  39.171  0.00  0.00    +0.000 A 
ATOM     29  C   UNL     1      24.409  14.843  38.445  0.00  0.00    +0.000 A 
ATOM     30  C   UNL     1      24.623  15.936  37.634  0.00  0.00    +0.000 A 
ATOM     31  C   UNL     1      25.843  16.523  37.559  0.00  0.00    +0.000 A 
ENDBRANCH  25  26
ENDBRANCH   5  25
TORSDOF 7
ENDMDL
