MODEL 1
REMARK VINA RESULT:      -6.1      0.000      0.000
REMARK  Name = 
REMARK  4 active torsions:
REMARK  status: ('A' for Active; 'I' for Inactive)
REMARK    1  A    between atoms: O_2  and  C_3
REMARK    2  A    between atoms: C_3  and  C_5
REMARK    3  A    between atoms: C_12  and  C_13
REMARK    4  A    between atoms: C_14  and  O_15
REMARK                            x       y       z     vdW  Elec       q    Type
REMARK                         _______ _______ _______ _____ _____    ______ ____
ROOT
ATOM      1  C   UNL     1      27.923  23.465  24.307  0.00  0.00    +0.000 C 
ATOM      2  C   UNL     1      27.278  23.430  23.187  0.00  0.00    +0.000 C 
ATOM      3  C   UNL     1      25.768  23.236  23.372  0.00  0.00    +0.000 C 
ATOM      4  N   UNL     1      27.764  23.715  21.876  0.00  0.00    +0.000 NA
ATOM      5  C   UNL     1      29.139  24.107  21.871  0.00  0.00    +0.000 C 
ATOM      6  O   UNL     1      29.683  24.376  20.712  0.00  0.00    +0.000 OA
ATOM      7  N   UNL     1      29.850  24.195  23.043  0.00  0.00    +0.000 NA
ATOM      8  C   UNL     1      29.486  23.428  24.244  0.00  0.00    +0.000 C 
ENDROOT
BRANCH   8   9
ATOM      9  C   UNL     1      29.897  24.378  25.422  0.00  0.00    +0.000 A 
ATOM     10  C   UNL     1      29.702  25.716  25.384  0.00  0.00    +0.000 A 
ATOM     11  C   UNL     1      30.071  26.551  26.436  0.00  0.00    +0.000 A 
ATOM     12  C   UNL     1      30.649  25.972  27.536  0.00  0.00    +0.000 A 
ATOM     13  C   UNL     1      30.860  24.615  27.606  0.00  0.00    +0.000 A 
ATOM     14  C   UNL     1      31.444  24.075  28.731  0.00  0.00    +0.000 A 
ATOM     15  C   UNL     1      31.665  22.736  28.825  0.00  0.00    +0.000 A 
ATOM     16  C   UNL     1      31.302  21.916  27.789  0.00  0.00    +0.000 A 
ATOM     17  C   UNL     1      30.718  22.471  26.670  0.00  0.00    +0.000 A 
ATOM     18  C   UNL     1      30.468  23.804  26.510  0.00  0.00    +0.000 A 
BRANCH  10  19
ATOM     19  O   UNL     1      29.128  26.285  24.288  0.00  0.00    +0.000 OA
ATOM     20  C   UNL     1      28.018  27.152  24.387  0.00  0.00    +0.000 C 
ENDBRANCH  10  19
ENDBRANCH   8   9
BRANCH   1  21
ATOM     21  C   UNL     1      27.264  23.353  25.592  0.00  0.00    +0.000 C 
ATOM     22  O   UNL     1      27.271  22.244  26.184  0.00  0.00    +0.000 OA
BRANCH  21  24
ATOM     23  C   UNL     1      26.869  24.704  27.596  0.00  0.00    +0.000 C 
ATOM     24  O   UNL     1      26.611  24.375  26.247  0.00  0.00    +0.000 OA
ENDBRANCH  21  24
ENDBRANCH   1  21
TORSDOF 4
ENDMDL
MODEL 2
REMARK VINA RESULT:      -6.1      3.202      5.589
REMARK  Name = 
REMARK  4 active torsions:
REMARK  status: ('A' for Active; 'I' for Inactive)
REMARK    1  A    between atoms: O_2  and  C_3
REMARK    2  A    between atoms: C_3  and  C_5
REMARK    3  A    between atoms: C_12  and  C_13
REMARK    4  A    between atoms: C_14  and  O_15
REMARK                            x       y       z     vdW  Elec       q    Type
REMARK                         _______ _______ _______ _____ _____    ______ ____
ROOT
ATOM      1  C   UNL     1      27.713  24.649  29.143  0.00  0.00    +0.000 C 
ATOM      2  C   UNL     1      27.094  24.771  30.273  0.00  0.00    +0.000 C 
ATOM      3  C   UNL     1      27.008  26.225  30.753  0.00  0.00    +0.000 C 
ATOM      4  N   UNL     1      26.365  23.780  30.994  0.00  0.00    +0.000 NA
ATOM      5  C   UNL     1      26.331  22.520  30.319  0.00  0.00    +0.000 C 
ATOM      6  O   UNL     1      25.697  21.539  30.909  0.00  0.00    +0.000 OA
ATOM      7  N   UNL     1      26.943  22.358  29.101  0.00  0.00    +0.000 NA
ATOM      8  C   UNL     1      28.067  23.201  28.665  0.00  0.00    +0.000 C 
ENDROOT
BRANCH   8   9
ATOM      9  C   UNL     1      27.869  23.299  27.112  0.00  0.00    +0.000 A 
ATOM     10  C   UNL     1      26.667  23.540  26.542  0.00  0.00    +0.000 A 
ATOM     11  C   UNL     1      26.503  23.625  25.162  0.00  0.00    +0.000 A 
ATOM     12  C   UNL     1      27.613  23.455  24.376  0.00  0.00    +0.000 A 
ATOM     13  C   UNL     1      28.850  23.208  24.925  0.00  0.00    +0.000 A 
ATOM     14  C   UNL     1      29.939  23.043  24.099  0.00  0.00    +0.000 A 
ATOM     15  C   UNL     1      31.174  22.799  24.616  0.00  0.00    +0.000 A 
ATOM     16  C   UNL     1      31.334  22.715  25.974  0.00  0.00    +0.000 A 
ATOM     17  C   UNL     1      30.233  22.883  26.789  0.00  0.00    +0.000 A 
ATOM     18  C   UNL     1      28.969  23.131  26.336  0.00  0.00    +0.000 A 
BRANCH  10  19
ATOM     19  O   UNL     1      25.567  23.709  27.328  0.00  0.00    +0.000 OA
ATOM     20  C   UNL     1      24.695  24.808  27.172  0.00  0.00    +0.000 C 
ENDBRANCH  10  19
ENDBRANCH   8   9
BRANCH   1  21
ATOM     21  C   UNL     1      28.243  25.784  28.416  0.00  0.00    +0.000 C 
ATOM     22  O   UNL     1      29.477  26.017  28.468  0.00  0.00    +0.000 OA
BRANCH  21  24
ATOM     23  C   UNL     1      27.859  27.005  26.328  0.00  0.00    +0.000 C 
ATOM     24  O   UNL     1      27.502  26.658  27.650  0.00  0.00    +0.000 OA
ENDBRANCH  21  24
ENDBRANCH   1  21
TORSDOF 4
ENDMDL
MODEL 3
REMARK VINA RESULT:      -6.0      2.207      4.492
REMARK  Name = 
REMARK  4 active torsions:
REMARK  status: ('A' for Active; 'I' for Inactive)
REMARK    1  A    between atoms: O_2  and  C_3
REMARK    2  A    between atoms: C_3  and  C_5
REMARK    3  A    between atoms: C_12  and  C_13
REMARK    4  A    between atoms: C_14  and  O_15
REMARK                            x       y       z     vdW  Elec       q    Type
REMARK                         _______ _______ _______ _____ _____    ______ ____
ROOT
ATOM      1  C   UNL     1      27.303  25.305  24.751  0.00  0.00    +0.000 C 
ATOM      2  C   UNL     1      27.439  25.316  23.465  0.00  0.00    +0.000 C 
ATOM      3  C   UNL     1      28.556  26.252  22.989  0.00  0.00    +0.000 C 
ATOM      4  N   UNL     1      26.820  24.463  22.502  0.00  0.00    +0.000 NA
ATOM      5  C   UNL     1      25.972  23.480  23.101  0.00  0.00    +0.000 C 
ATOM      6  O   UNL     1      25.345  22.658  22.299  0.00  0.00    +0.000 OA
ATOM      7  N   UNL     1      25.830  23.411  24.465  0.00  0.00    +0.000 NA
ATOM      8  C   UNL     1      26.054  24.570  25.341  0.00  0.00    +0.000 C 
ENDROOT
BRANCH   8   9
ATOM      9  C   UNL     1      26.625  23.931  26.654  0.00  0.00    +0.000 A 
ATOM     10  C   UNL     1      27.560  22.955  26.646  0.00  0.00    +0.000 A 
ATOM     11  C   UNL     1      28.060  22.394  27.819  0.00  0.00    +0.000 A 
ATOM     12  C   UNL     1      27.571  22.866  29.009  0.00  0.00    +0.000 A 
ATOM     13  C   UNL     1      26.620  23.858  29.052  0.00  0.00    +0.000 A 
ATOM     14  C   UNL     1      26.157  24.303  30.271  0.00  0.00    +0.000 A 
ATOM     15  C   UNL     1      25.216  25.284  30.341  0.00  0.00    +0.000 A 
ATOM     16  C   UNL     1      24.725  25.834  29.187  0.00  0.00    +0.000 A 
ATOM     17  C   UNL     1      25.200  25.378  27.974  0.00  0.00    +0.000 A 
ATOM     18  C   UNL     1      26.141  24.400  27.832  0.00  0.00    +0.000 A 
BRANCH  10  19
ATOM     19  O   UNL     1      28.042  22.490  25.460  0.00  0.00    +0.000 OA
ATOM     20  C   UNL     1      29.424  22.456  25.172  0.00  0.00    +0.000 C 
ENDBRANCH  10  19
ENDBRANCH   8   9
BRANCH   1  21
ATOM     21  C   UNL     1      28.145  26.089  25.631  0.00  0.00    +0.000 C 
ATOM     22  O   UNL     1      27.693  27.160  26.110  0.00  0.00    +0.000 OA
BRANCH  21  24
ATOM     23  C   UNL     1      29.854  25.753  27.353  0.00  0.00    +0.000 C 
ATOM     24  O   UNL     1      29.432  25.765  26.006  0.00  0.00    +0.000 OA
ENDBRANCH  21  24
ENDBRANCH   1  21
TORSDOF 4
ENDMDL
MODEL 4
REMARK VINA RESULT:      -5.7     33.485     35.273
REMARK  Name = 
REMARK  4 active torsions:
REMARK  status: ('A' for Active; 'I' for Inactive)
REMARK    1  A    between atoms: O_2  and  C_3
REMARK    2  A    between atoms: C_3  and  C_5
REMARK    3  A    between atoms: C_12  and  C_13
REMARK    4  A    between atoms: C_14  and  O_15
REMARK                            x       y       z     vdW  Elec       q    Type
REMARK                         _______ _______ _______ _____ _____    ______ ____
ROOT
ATOM      1  C   UNL     1      19.650  -8.355  26.705  0.00  0.00    +0.000 C 
ATOM      2  C   UNL     1      20.119  -7.450  25.908  0.00  0.00    +0.000 C 
ATOM      3  C   UNL     1      21.148  -8.004  24.914  0.00  0.00    +0.000 C 
ATOM      4  N   UNL     1      19.678  -6.103  25.740  0.00  0.00    +0.000 NA
ATOM      5  C   UNL     1      18.558  -5.783  26.568  0.00  0.00    +0.000 C 
ATOM      6  O   UNL     1      18.087  -4.564  26.498  0.00  0.00    +0.000 OA
ATOM      7  N   UNL     1      18.005  -6.726  27.401  0.00  0.00    +0.000 NA
ATOM      8  C   UNL     1      18.771  -7.875  27.907  0.00  0.00    +0.000 C 
ENDROOT
BRANCH   8   9
ATOM      9  C   UNL     1      17.694  -9.011  28.015  0.00  0.00    +0.000 A 
ATOM     10  C   UNL     1      16.793  -9.260  27.039  0.00  0.00    +0.000 A 
ATOM     11  C   UNL     1      15.842 -10.271  27.146  0.00  0.00    +0.000 A 
ATOM     12  C   UNL     1      15.840 -11.026  28.290  0.00  0.00    +0.000 A 
ATOM     13  C   UNL     1      16.744 -10.798  29.302  0.00  0.00    +0.000 A 
ATOM     14  C   UNL     1      16.707 -11.581  30.435  0.00  0.00    +0.000 A 
ATOM     15  C   UNL     1      17.589 -11.377  31.450  0.00  0.00    +0.000 A 
ATOM     16  C   UNL     1      18.524 -10.381  31.344  0.00  0.00    +0.000 A 
ATOM     17  C   UNL     1      18.549  -9.606  30.202  0.00  0.00    +0.000 A 
ATOM     18  C   UNL     1      17.695  -9.758  29.149  0.00  0.00    +0.000 A 
BRANCH  10  19
ATOM     19  O   UNL     1      16.799  -8.506  25.905  0.00  0.00    +0.000 OA
ATOM     20  C   UNL     1      15.646  -8.343  25.106  0.00  0.00    +0.000 C 
ENDBRANCH  10  19
ENDBRANCH   8   9
BRANCH   1  21
ATOM     21  C   UNL     1      20.053  -9.744  26.633  0.00  0.00    +0.000 C 
ATOM     22  O   UNL     1      20.903 -10.174  27.454  0.00  0.00    +0.000 OA
BRANCH  21  24
ATOM     23  C   UNL     1      19.143 -11.955  26.103  0.00  0.00    +0.000 C 
ATOM     24  O   UNL     1      19.582 -10.667  25.724  0.00  0.00    +0.000 OA
ENDBRANCH  21  24
ENDBRANCH   1  21
TORSDOF 4
ENDMDL
MODEL 5
REMARK VINA RESULT:      -5.6     33.781     35.640
REMARK  Name = 
REMARK  4 active torsions:
REMARK  status: ('A' for Active; 'I' for Inactive)
REMARK    1  A    between atoms: O_2  and  C_3
REMARK    2  A    between atoms: C_3  and  C_5
REMARK    3  A    between atoms: C_12  and  C_13
REMARK    4  A    between atoms: C_14  and  O_15
REMARK                            x       y       z     vdW  Elec       q    Type
REMARK                         _______ _______ _______ _____ _____    ______ ____
ROOT
ATOM      1  C   UNL     1      16.709 -10.121  27.829  0.00  0.00    +0.000 C 
ATOM      2  C   UNL     1      16.094 -11.036  28.505  0.00  0.00    +0.000 C 
ATOM      3  C   UNL     1      15.009 -11.754  27.692  0.00  0.00    +0.000 C 
ATOM      4  N   UNL     1      16.415 -11.548  29.798  0.00  0.00    +0.000 NA
ATOM      5  C   UNL     1      17.589 -10.950  30.352  0.00  0.00    +0.000 C 
ATOM      6  O   UNL     1      17.959 -11.343  31.543  0.00  0.00    +0.000 OA
ATOM      7  N   UNL     1      18.294 -10.002  29.650  0.00  0.00    +0.000 NA
ATOM      8  C   UNL     1      17.672  -9.167  28.612  0.00  0.00    +0.000 C 
ENDROOT
BRANCH   8   9
ATOM      9  C   UNL     1      18.834  -8.940  27.582  0.00  0.00    +0.000 A 
ATOM     10  C   UNL     1      19.659  -9.932  27.179  0.00  0.00    +0.000 A 
ATOM     11  C   UNL     1      20.687  -9.719  26.265  0.00  0.00    +0.000 A 
ATOM     12  C   UNL     1      20.849  -8.451  25.772  0.00  0.00    +0.000 A 
ATOM     13  C   UNL     1      20.026  -7.419  26.161  0.00  0.00    +0.000 A 
ATOM     14  C   UNL     1      20.224  -6.160  25.640  0.00  0.00    +0.000 A 
ATOM     15  C   UNL     1      19.424  -5.122  26.009  0.00  0.00    +0.000 A 
ATOM     16  C   UNL     1      18.413  -5.333  26.909  0.00  0.00    +0.000 A 
ATOM     17  C   UNL     1      18.228  -6.600  27.421  0.00  0.00    +0.000 A 
ATOM     18  C   UNL     1      18.992  -7.684  27.095  0.00  0.00    +0.000 A 
BRANCH  10  19
ATOM     19  O   UNL     1      19.494 -11.191  27.674  0.00  0.00    +0.000 OA
ATOM     20  C   UNL     1      19.797 -12.342  26.913  0.00  0.00    +0.000 C 
ENDBRANCH  10  19
ENDBRANCH   8   9
BRANCH   1  21
ATOM     21  C   UNL     1      16.403  -9.836  26.443  0.00  0.00    +0.000 C 
ATOM     22  O   UNL     1      15.663  -8.857  26.172  0.00  0.00    +0.000 OA
BRANCH  21  24
ATOM     23  C   UNL     1      17.172  -9.955  24.120  0.00  0.00    +0.000 C 
ATOM     24  O   UNL     1      16.859 -10.557  25.359  0.00  0.00    +0.000 OA
ENDBRANCH  21  24
ENDBRANCH   1  21
TORSDOF 4
ENDMDL
MODEL 6
REMARK VINA RESULT:      -5.4      1.881      2.526
REMARK  Name = 
REMARK  4 active torsions:
REMARK  status: ('A' for Active; 'I' for Inactive)
REMARK    1  A    between atoms: O_2  and  C_3
REMARK    2  A    between atoms: C_3  and  C_5
REMARK    3  A    between atoms: C_12  and  C_13
REMARK    4  A    between atoms: C_14  and  O_15
REMARK                            x       y       z     vdW  Elec       q    Type
REMARK                         _______ _______ _______ _____ _____    ______ ____
ROOT
ATOM      1  C   UNL     1      26.649  24.439  25.733  0.00  0.00    +0.000 C 
ATOM      2  C   UNL     1      25.436  24.535  25.294  0.00  0.00    +0.000 C 
ATOM      3  C   UNL     1      24.587  25.530  26.096  0.00  0.00    +0.000 C 
ATOM      4  N   UNL     1      24.880  23.985  24.101  0.00  0.00    +0.000 NA
ATOM      5  C   UNL     1      25.842  23.267  23.324  0.00  0.00    +0.000 C 
ATOM      6  O   UNL     1      25.425  22.711  22.216  0.00  0.00    +0.000 OA
ATOM      7  N   UNL     1      27.149  23.173  23.735  0.00  0.00    +0.000 NA
ATOM      8  C   UNL     1      27.541  23.294  25.147  0.00  0.00    +0.000 C 
ENDROOT
BRANCH   8   9
ATOM      9  C   UNL     1      28.955  23.969  25.076  0.00  0.00    +0.000 A 
ATOM     10  C   UNL     1      29.263  24.930  24.176  0.00  0.00    +0.000 A 
ATOM     11  C   UNL     1      30.522  25.522  24.122  0.00  0.00    +0.000 A 
ATOM     12  C   UNL     1      31.464  25.099  25.023  0.00  0.00    +0.000 A 
ATOM     13  C   UNL     1      31.183  24.124  25.951  0.00  0.00    +0.000 A 
ATOM     14  C   UNL     1      32.160  23.729  26.838  0.00  0.00    +0.000 A 
ATOM     15  C   UNL     1      31.908  22.766  27.766  0.00  0.00    +0.000 A 
ATOM     16  C   UNL     1      30.670  22.184  27.818  0.00  0.00    +0.000 A 
ATOM     17  C   UNL     1      29.701  22.591  26.924  0.00  0.00    +0.000 A 
ATOM     18  C   UNL     1      29.887  23.549  25.969  0.00  0.00    +0.000 A 
BRANCH  10  19
ATOM     19  O   UNL     1      28.322  25.346  23.283  0.00  0.00    +0.000 OA
ATOM     20  C   UNL     1      27.967  26.706  23.146  0.00  0.00    +0.000 C 
ENDBRANCH  10  19
ENDBRANCH   8   9
BRANCH   1  21
ATOM     21  C   UNL     1      27.138  25.214  26.853  0.00  0.00    +0.000 C 
ATOM     22  O   UNL     1      27.121  24.702  28.001  0.00  0.00    +0.000 OA
BRANCH  21  24
ATOM     23  C   UNL     1      28.828  26.892  27.426  0.00  0.00    +0.000 C 
ATOM     24  O   UNL     1      27.635  26.499  26.781  0.00  0.00    +0.000 OA
ENDBRANCH  21  24
ENDBRANCH   1  21
TORSDOF 4
ENDMDL
MODEL 7
REMARK VINA RESULT:      -5.3     19.211     21.377
REMARK  Name = 
REMARK  4 active torsions:
REMARK  status: ('A' for Active; 'I' for Inactive)
REMARK    1  A    between atoms: O_2  and  C_3
REMARK    2  A    between atoms: C_3  and  C_5
REMARK    3  A    between atoms: C_12  and  C_13
REMARK    4  A    between atoms: C_14  and  O_15
REMARK                            x       y       z     vdW  Elec       q    Type
REMARK                         _______ _______ _______ _____ _____    ______ ____
ROOT
ATOM      1  C   UNL     1      21.482  11.702  38.266  0.00  0.00    +0.000 C 
ATOM      2  C   UNL     1      22.761  11.773  38.081  0.00  0.00    +0.000 C 
ATOM      3  C   UNL     1      23.415  12.915  38.868  0.00  0.00    +0.000 C 
ATOM      4  N   UNL     1      23.611  10.847  37.406  0.00  0.00    +0.000 NA
ATOM      5  C   UNL     1      22.903   9.706  36.915  0.00  0.00    +0.000 C 
ATOM      6  O   UNL     1      23.593   8.804  36.266  0.00  0.00    +0.000 OA
ATOM      7  N   UNL     1      21.552   9.573  37.123  0.00  0.00    +0.000 NA
ATOM      8  C   UNL     1      20.672  10.730  37.345  0.00  0.00    +0.000 C 
ENDROOT
BRANCH   8   9
ATOM      9  C   UNL     1      19.577  10.173  38.321  0.00  0.00    +0.000 A 
ATOM     10  C   UNL     1      19.870   9.362  39.363  0.00  0.00    +0.000 A 
ATOM     11  C   UNL     1      18.890   8.873  40.223  0.00  0.00    +0.000 A 
ATOM     12  C   UNL     1      17.591   9.241  39.984  0.00  0.00    +0.000 A 
ATOM     13  C   UNL     1      17.260  10.064  38.933  0.00  0.00    +0.000 A 
ATOM     14  C   UNL     1      15.942  10.409  38.730  0.00  0.00    +0.000 A 
ATOM     15  C   UNL     1      15.588  11.222  37.698  0.00  0.00    +0.000 A 
ATOM     16  C   UNL     1      16.553  11.702  36.852  0.00  0.00    +0.000 A 
ATOM     17  C   UNL     1      17.868  11.348  37.069  0.00  0.00    +0.000 A 
ATOM     18  C   UNL     1      18.292  10.538  38.083  0.00  0.00    +0.000 A 
BRANCH  10  19
ATOM     19  O   UNL     1      21.162   8.999  39.595  0.00  0.00    +0.000 OA
ATOM     20  C   UNL     1      21.739   9.059  40.882  0.00  0.00    +0.000 C 
ENDBRANCH  10  19
ENDBRANCH   8   9
BRANCH   1  21
ATOM     21  C   UNL     1      20.769  12.604  39.145  0.00  0.00    +0.000 C 
ATOM     22  O   UNL     1      20.868  12.448  40.388  0.00  0.00    +0.000 OA
BRANCH  21  24
ATOM     23  C   UNL     1      20.156  14.975  39.187  0.00  0.00    +0.000 C 
ATOM     24  O   UNL     1      19.967  13.650  38.738  0.00  0.00    +0.000 OA
ENDBRANCH  21  24
ENDBRANCH   1  21
TORSDOF 4
ENDMDL
MODEL 8
REMARK VINA RESULT:      -5.3     32.811     34.544
REMARK  Name = 
REMARK  4 active torsions:
REMARK  status: ('A' for Active; 'I' for Inactive)
REMARK    1  A    between atoms: O_2  and  C_3
REMARK    2  A    between atoms: C_3  and  C_5
REMARK    3  A    between atoms: C_12  and  C_13
REMARK    4  A    between atoms: C_14  and  O_15
REMARK                            x       y       z     vdW  Elec       q    Type
REMARK                         _______ _______ _______ _____ _____    ______ ____
ROOT
ATOM      1  C   UNL     1      21.196 -10.556  24.726  0.00  0.00    +0.000 C 
ATOM      2  C   UNL     1      22.069 -11.445  24.375  0.00  0.00    +0.000 C 
ATOM      3  C   UNL     1      21.749 -12.097  23.025  0.00  0.00    +0.000 C 
ATOM      4  N   UNL     1      23.324 -11.742  24.986  0.00  0.00    +0.000 NA
ATOM      5  C   UNL     1      23.605 -10.901  26.107  0.00  0.00    +0.000 C 
ATOM      6  O   UNL     1      24.728 -11.105  26.745  0.00  0.00    +0.000 OA
ATOM      7  N   UNL     1      22.722  -9.920  26.489  0.00  0.00    +0.000 NA
ATOM      8  C   UNL     1      21.286  -9.989  26.182  0.00  0.00    +0.000 C 
ENDROOT
BRANCH   8   9
ATOM      9  C   UNL     1      20.882  -8.486  25.986  0.00  0.00    +0.000 A 
ATOM     10  C   UNL     1      21.689  -7.584  25.384  0.00  0.00    +0.000 A 
ATOM     11  C   UNL     1      21.320  -6.252  25.215  0.00  0.00    +0.000 A 
ATOM     12  C   UNL     1      20.092  -5.867  25.685  0.00  0.00    +0.000 A 
ATOM     13  C   UNL     1      19.247  -6.760  26.302  0.00  0.00    +0.000 A 
ATOM     14  C   UNL     1      18.020  -6.330  26.759  0.00  0.00    +0.000 A 
ATOM     15  C   UNL     1      17.166  -7.193  27.373  0.00  0.00    +0.000 A 
ATOM     16  C   UNL     1      17.530  -8.503  27.539  0.00  0.00    +0.000 A 
ATOM     17  C   UNL     1      18.762  -8.919  27.075  0.00  0.00    +0.000 A 
ATOM     18  C   UNL     1      19.665  -8.107  26.451  0.00  0.00    +0.000 A 
BRANCH  10  19
ATOM     19  O   UNL     1      22.909  -7.973  24.919  0.00  0.00    +0.000 OA
ATOM     20  C   UNL     1      23.310  -7.750  23.584  0.00  0.00    +0.000 C 
ENDBRANCH  10  19
ENDBRANCH   8   9
BRANCH   1  21
ATOM     21  C   UNL     1      20.055 -10.215  23.902  0.00  0.00    +0.000 C 
ATOM     22  O   UNL     1      20.194  -9.352  22.999  0.00  0.00    +0.000 OA
BRANCH  21  24
ATOM     23  C   UNL     1      17.616  -9.992  23.894  0.00  0.00    +0.000 C 
ATOM     24  O   UNL     1      18.794 -10.761  24.017  0.00  0.00    +0.000 OA
ENDBRANCH  21  24
ENDBRANCH   1  21
TORSDOF 4
ENDMDL
MODEL 9
REMARK VINA RESULT:      -5.3      3.972      6.039
REMARK  Name = 
REMARK  4 active torsions:
REMARK  status: ('A' for Active; 'I' for Inactive)
REMARK    1  A    between atoms: O_2  and  C_3
REMARK    2  A    between atoms: C_3  and  C_5
REMARK    3  A    between atoms: C_12  and  C_13
REMARK    4  A    between atoms: C_14  and  O_15
REMARK                            x       y       z     vdW  Elec       q    Type
REMARK                         _______ _______ _______ _____ _____    ______ ____
ROOT
ATOM      1  C   UNL     1      28.339  24.345  30.478  0.00  0.00    +0.000 C 
ATOM      2  C   UNL     1      27.084  24.575  30.691  0.00  0.00    +0.000 C 
ATOM      3  C   UNL     1      26.725  26.063  30.603  0.00  0.00    +0.000 C 
ATOM      4  N   UNL     1      26.020  23.632  30.816  0.00  0.00    +0.000 NA
ATOM      5  C   UNL     1      26.458  22.281  30.650  0.00  0.00    +0.000 C 
ATOM      6  O   UNL     1      25.557  21.339  30.761  0.00  0.00    +0.000 OA
ATOM      7  N   UNL     1      27.775  21.996  30.384  0.00  0.00    +0.000 NA
ATOM      8  C   UNL     1      28.869  22.901  30.766  0.00  0.00    +0.000 C 
ENDROOT
BRANCH   8   9
ATOM      9  C   UNL     1      29.928  22.695  29.627  0.00  0.00    +0.000 A 
ATOM     10  C   UNL     1      29.600  22.698  28.315  0.00  0.00    +0.000 A 
ATOM     11  C   UNL     1      30.548  22.513  27.312  0.00  0.00    +0.000 A 
ATOM     12  C   UNL     1      31.851  22.324  27.693  0.00  0.00    +0.000 A 
ATOM     13  C   UNL     1      32.217  22.316  29.019  0.00  0.00    +0.000 A 
ATOM     14  C   UNL     1      33.538  22.123  29.358  0.00  0.00    +0.000 A 
ATOM     15  C   UNL     1      33.926  22.110  30.662  0.00  0.00    +0.000 A 
ATOM     16  C   UNL     1      32.993  22.291  31.648  0.00  0.00    +0.000 A 
ATOM     17  C   UNL     1      31.674  22.484  31.293  0.00  0.00    +0.000 A 
ATOM     18  C   UNL     1      31.217  22.508  30.006  0.00  0.00    +0.000 A 
BRANCH  10  19
ATOM     19  O   UNL     1      28.304  22.886  27.942  0.00  0.00    +0.000 OA
ATOM     20  C   UNL     1      27.817  22.470  26.684  0.00  0.00    +0.000 C 
ENDBRANCH  10  19
ENDBRANCH   8   9
BRANCH   1  21
ATOM     21  C   UNL     1      29.284  25.397  30.168  0.00  0.00    +0.000 C 
ATOM     22  O   UNL     1      30.060  25.803  31.070  0.00  0.00    +0.000 OA
BRANCH  21  24
ATOM     23  C   UNL     1      29.874  27.346  28.807  0.00  0.00    +0.000 C 
ATOM     24  O   UNL     1      29.418  26.016  28.943  0.00  0.00    +0.000 OA
ENDBRANCH  21  24
ENDBRANCH   1  21
TORSDOF 4
ENDMDL
MODEL 10
REMARK VINA RESULT:      -5.3      3.043      5.737
REMARK  Name = 
REMARK  4 active torsions:
REMARK  status: ('A' for Active; 'I' for Inactive)
REMARK    1  A    between atoms: O_2  and  C_3
REMARK    2  A    between atoms: C_3  and  C_5
REMARK    3  A    between atoms: C_12  and  C_13
REMARK    4  A    between atoms: C_14  and  O_15
REMARK                            x       y       z     vdW  Elec       q    Type
REMARK                         _______ _______ _______ _____ _____    ______ ____
ROOT
ATOM      1  C   UNL     1      26.967  23.354  28.293  0.00  0.00    +0.000 C 
ATOM      2  C   UNL     1      26.695  23.260  29.554  0.00  0.00    +0.000 C 
ATOM      3  C   UNL     1      27.588  22.250  30.286  0.00  0.00    +0.000 C 
ATOM      4  N   UNL     1      25.823  24.077  30.335  0.00  0.00    +0.000 NA
ATOM      5  C   UNL     1      25.225  25.129  29.574  0.00  0.00    +0.000 C 
ATOM      6  O   UNL     1      24.395  25.925  30.198  0.00  0.00    +0.000 OA
ATOM      7  N   UNL     1      25.517  25.287  28.241  0.00  0.00    +0.000 NA
ATOM      8  C   UNL     1      25.979  24.174  27.399  0.00  0.00    +0.000 C 
ENDROOT
BRANCH   8   9
ATOM      9  C   UNL     1      26.945  24.868  26.375  0.00  0.00    +0.000 A 
ATOM     10  C   UNL     1      27.858  25.795  26.744  0.00  0.00    +0.000 A 
ATOM     11  C   UNL     1      28.710  26.405  25.827  0.00  0.00    +0.000 A 
ATOM     12  C   UNL     1      28.600  26.036  24.512  0.00  0.00    +0.000 A 
ATOM     13  C   UNL     1      27.682  25.096  24.104  0.00  0.00    +0.000 A 
ATOM     14  C   UNL     1      27.605  24.755  22.772  0.00  0.00    +0.000 A 
ATOM     15  C   UNL     1      26.705  23.829  22.342  0.00  0.00    +0.000 A 
ATOM     16  C   UNL     1      25.867  23.230  23.245  0.00  0.00    +0.000 A 
ATOM     17  C   UNL     1      25.957  23.582  24.576  0.00  0.00    +0.000 A 
ATOM     18  C   UNL     1      26.835  24.501  25.074  0.00  0.00    +0.000 A 
BRANCH  10  19
ATOM     19  O   UNL     1      27.963  26.158  28.053  0.00  0.00    +0.000 OA
ATOM     20  C   UNL     1      29.212  26.281  28.700  0.00  0.00    +0.000 C 
ENDBRANCH  10  19
ENDBRANCH   8   9
BRANCH   1  21
ATOM     21  C   UNL     1      28.025  22.591  27.664  0.00  0.00    +0.000 C 
ATOM     22  O   UNL     1      27.720  21.611  26.939  0.00  0.00    +0.000 OA
BRANCH  21  24
ATOM     23  C   UNL     1      30.248  22.884  26.678  0.00  0.00    +0.000 C 
ATOM     24  O   UNL     1      29.375  22.844  27.787  0.00  0.00    +0.000 OA
ENDBRANCH  21  24
ENDBRANCH   1  21
TORSDOF 4
ENDMDL
