MODEL 1
REMARK VINA RESULT:      -8.1      0.000      0.000
REMARK  Name = 
REMARK  9 active torsions:
REMARK  status: ('A' for Active; 'I' for Inactive)
REMARK    1  A    between atoms: N_2  and  O_3
REMARK    2  A    between atoms: O_3  and  C_4
REMARK    3  A    between atoms: C_4  and  C_6
REMARK    4  A    between atoms: C_6  and  C_7
REMARK    5  A    between atoms: C_6  and  C_14
REMARK    6  A    between atoms: C_7  and  C_8
REMARK    7  A    between atoms: C_17  and  O_18
REMARK    8  A    between atoms: O_18  and  C_19
REMARK    9  A    between atoms: C_19  and  C_20
REMARK                            x       y       z     vdW  Elec       q    Type
REMARK                         _______ _______ _______ _____ _____    ______ ____
ROOT
ATOM      1  C   UNL     1      13.051  -0.214  27.404  0.00  0.00    +0.000 A 
ATOM      2  C   UNL     1      13.624   0.114  28.601  0.00  0.00    +0.000 A 
ATOM      3  C   UNL     1      15.019   0.240  28.585  0.00  0.00    +0.000 A 
ATOM      4  C   UNL     1      15.741   0.040  27.419  0.00  0.00    +0.000 A 
ATOM      5  C   UNL     1      15.082  -0.288  26.261  0.00  0.00    +0.000 A 
ATOM      6  C   UNL     1      13.692  -0.418  26.257  0.00  0.00    +0.000 A 
ENDROOT
BRANCH   1   7
ATOM      7  C   UNL     1      11.438  -0.362  27.427  0.00  0.00    +0.000 C 
BRANCH   7   8
ATOM      8  C   UNL     1      11.430  -1.841  26.795  0.00  0.00    +0.000 C 
ATOM      9  O   UNL     1      10.907  -2.081  25.739  0.00  0.00    +0.000 OA
BRANCH   8  10
ATOM     10  O   UNL     1      12.065  -2.809  27.553  0.00  0.00    +0.000 OA
BRANCH  10  12
ATOM     11  C   UNL     1      12.606  -5.045  27.927  0.00  0.00    +0.000 C 
ATOM     12  N   UNL     1      12.401  -3.997  26.935  0.00  0.00    +0.000 NA
ENDBRANCH  10  12
ENDBRANCH   8  10
ENDBRANCH   7   8
BRANCH   7  13
ATOM     13  C   UNL     1      11.188   0.443  26.004  0.00  0.00    +0.000 C 
BRANCH  13  14
ATOM     14  C   UNL     1      10.199   1.523  26.392  0.00  0.00    +0.000 C 
ATOM     15  C   UNL     1      10.813   2.819  25.905  0.00  0.00    +0.000 C 
ATOM     16  C   UNL     1      11.903   3.287  26.846  0.00  0.00    +0.000 C 
ATOM     17  C   UNL     1      11.238   3.669  28.148  0.00  0.00    +0.000 C 
ATOM     18  C   UNL     1       9.855   3.057  28.270  0.00  0.00    +0.000 C 
ATOM     19  C   UNL     1       9.946   1.584  27.874  0.00  0.00    +0.000 C 
ENDBRANCH  13  14
ENDBRANCH   7  13
ENDBRANCH   1   7
BRANCH   4  20
ATOM     20  O   UNL     1      17.108   0.156  27.374  0.00  0.00    +0.000 OA
BRANCH  20  21
ATOM     21  C   UNL     1      17.683   1.072  26.472  0.00  0.00    +0.000 C 
BRANCH  21  22
ATOM     22  C   UNL     1      18.419   0.280  25.452  0.00  0.00    +0.000 A 
ATOM     23  C   UNL     1      18.540  -1.094  25.495  0.00  0.00    +0.000 A 
ATOM     24  C   UNL     1      19.230  -1.805  24.534  0.00  0.00    +0.000 A 
ATOM     25  C   UNL     1      19.834  -1.141  23.476  0.00  0.00    +0.000 A 
ATOM     26  C   UNL     1      20.533  -1.820  22.494  0.00  0.00    +0.000 A 
ATOM     27  C   UNL     1      21.125  -1.137  21.452  0.00  0.00    +0.000 A 
ATOM     28  C   UNL     1      20.982   0.233  21.444  0.00  0.00    +0.000 A 
ATOM     29  C   UNL     1      20.296   0.916  22.405  0.00  0.00    +0.000 A 
ATOM     30  C   UNL     1      19.701   0.229  23.452  0.00  0.00    +0.000 A 
ATOM     31  N   UNL     1      19.011   0.904  24.419  0.00  0.00    +0.000 NA
ENDBRANCH  21  22
ENDBRANCH  20  21
ENDBRANCH   4  20
TORSDOF 9
ENDMDL
MODEL 2
REMARK VINA RESULT:      -8.0     22.703     26.282
REMARK  Name = 
REMARK  9 active torsions:
REMARK  status: ('A' for Active; 'I' for Inactive)
REMARK    1  A    between atoms: N_2  and  O_3
REMARK    2  A    between atoms: O_3  and  C_4
REMARK    3  A    between atoms: C_4  and  C_6
REMARK    4  A    between atoms: C_6  and  C_7
REMARK    5  A    between atoms: C_6  and  C_14
REMARK    6  A    between atoms: C_7  and  C_8
REMARK    7  A    between atoms: C_17  and  O_18
REMARK    8  A    between atoms: O_18  and  C_19
REMARK    9  A    between atoms: C_19  and  C_20
REMARK                            x       y       z     vdW  Elec       q    Type
REMARK                         _______ _______ _______ _____ _____    ______ ____
ROOT
ATOM      1  C   UNL     1      39.940   6.432  18.080  0.00  0.00    +0.000 A 
ATOM      2  C   UNL     1      40.119   6.371  16.726  0.00  0.00    +0.000 A 
ATOM      3  C   UNL     1      39.477   5.305  16.082  0.00  0.00    +0.000 A 
ATOM      4  C   UNL     1      38.719   4.391  16.797  0.00  0.00    +0.000 A 
ATOM      5  C   UNL     1      38.593   4.530  18.156  0.00  0.00    +0.000 A 
ATOM      6  C   UNL     1      39.226   5.585  18.815  0.00  0.00    +0.000 A 
ENDROOT
BRANCH   1   7
ATOM      7  C   UNL     1      40.686   7.664  18.821  0.00  0.00    +0.000 C 
BRANCH   7   8
ATOM      8  C   UNL     1      41.939   6.785  19.313  0.00  0.00    +0.000 C 
ATOM      9  O   UNL     1      42.806   6.429  18.559  0.00  0.00    +0.000 OA
BRANCH   8  10
ATOM     10  O   UNL     1      41.946   6.470  20.661  0.00  0.00    +0.000 OA
BRANCH  10  12
ATOM     11  C   UNL     1      43.632   6.564  22.267  0.00  0.00    +0.000 C 
ATOM     12  N   UNL     1      43.046   5.809  21.167  0.00  0.00    +0.000 NA
ENDBRANCH  10  12
ENDBRANCH   8  10
ENDBRANCH   7   8
BRANCH   7  13
ATOM     13  C   UNL     1      39.822   7.546  20.226  0.00  0.00    +0.000 C 
BRANCH  13  14
ATOM     14  C   UNL     1      39.290   8.952  20.418  0.00  0.00    +0.000 C 
ATOM     15  C   UNL     1      37.793   8.793  20.580  0.00  0.00    +0.000 C 
ATOM     16  C   UNL     1      37.125   8.577  19.238  0.00  0.00    +0.000 C 
ATOM     17  C   UNL     1      37.270   9.859  18.452  0.00  0.00    +0.000 C 
ATOM     18  C   UNL     1      38.373  10.736  19.013  0.00  0.00    +0.000 C 
ATOM     19  C   UNL     1      39.601   9.862  19.260  0.00  0.00    +0.000 C 
ENDBRANCH  13  14
ENDBRANCH   7  13
ENDBRANCH   1   7
BRANCH   4  20
ATOM     20  O   UNL     1      38.079   3.338  16.193  0.00  0.00    +0.000 OA
BRANCH  20  21
ATOM     21  C   UNL     1      36.671   3.305  16.195  0.00  0.00    +0.000 C 
BRANCH  21  22
ATOM     22  C   UNL     1      36.265   1.893  16.422  0.00  0.00    +0.000 A 
ATOM     23  C   UNL     1      34.994   1.519  16.812  0.00  0.00    +0.000 A 
ATOM     24  C   UNL     1      34.644   0.200  17.016  0.00  0.00    +0.000 A 
ATOM     25  C   UNL     1      35.580  -0.807  16.831  0.00  0.00    +0.000 A 
ATOM     26  C   UNL     1      35.264  -2.140  17.026  0.00  0.00    +0.000 A 
ATOM     27  C   UNL     1      36.213  -3.122  16.835  0.00  0.00    +0.000 A 
ATOM     28  C   UNL     1      37.468  -2.709  16.445  0.00  0.00    +0.000 A 
ATOM     29  C   UNL     1      37.793  -1.399  16.249  0.00  0.00    +0.000 A 
ATOM     30  C   UNL     1      36.839  -0.412  16.441  0.00  0.00    +0.000 A 
ATOM     31  N   UNL     1      37.156   0.903  16.247  0.00  0.00    +0.000 NA
ENDBRANCH  21  22
ENDBRANCH  20  21
ENDBRANCH   4  20
TORSDOF 9
ENDMDL
MODEL 3
REMARK VINA RESULT:      -7.7     22.853     26.052
REMARK  Name = 
REMARK  9 active torsions:
REMARK  status: ('A' for Active; 'I' for Inactive)
REMARK    1  A    between atoms: N_2  and  O_3
REMARK    2  A    between atoms: O_3  and  C_4
REMARK    3  A    between atoms: C_4  and  C_6
REMARK    4  A    between atoms: C_6  and  C_7
REMARK    5  A    between atoms: C_6  and  C_14
REMARK    6  A    between atoms: C_7  and  C_8
REMARK    7  A    between atoms: C_17  and  O_18
REMARK    8  A    between atoms: O_18  and  C_19
REMARK    9  A    between atoms: C_19  and  C_20
REMARK                            x       y       z     vdW  Elec       q    Type
REMARK                         _______ _______ _______ _____ _____    ______ ____
ROOT
ATOM      1  C   UNL     1      38.064  -0.679  14.959  0.00  0.00    +0.000 A 
ATOM      2  C   UNL     1      39.345  -0.227  15.124  0.00  0.00    +0.000 A 
ATOM      3  C   UNL     1      39.617   1.024  14.558  0.00  0.00    +0.000 A 
ATOM      4  C   UNL     1      38.636   1.732  13.882  0.00  0.00    +0.000 A 
ATOM      5  C   UNL     1      37.376   1.201  13.764  0.00  0.00    +0.000 A 
ATOM      6  C   UNL     1      37.085  -0.045  14.322  0.00  0.00    +0.000 A 
ENDROOT
BRANCH   1   7
ATOM      7  C   UNL     1      37.754  -2.128  15.613  0.00  0.00    +0.000 C 
BRANCH   7   8
ATOM      8  C   UNL     1      37.879  -2.931  14.226  0.00  0.00    +0.000 C 
ATOM      9  O   UNL     1      36.950  -3.522  13.744  0.00  0.00    +0.000 OA
BRANCH   8  10
ATOM     10  O   UNL     1      39.129  -2.891  13.632  0.00  0.00    +0.000 OA
BRANCH  10  12
ATOM     11  C   UNL     1      40.059  -1.709  11.852  0.00  0.00    +0.000 C 
ATOM     12  N   UNL     1      39.190  -2.807  12.256  0.00  0.00    +0.000 NA
ENDBRANCH  10  12
ENDBRANCH   8  10
ENDBRANCH   7   8
BRANCH   7  13
ATOM     13  C   UNL     1      36.108  -1.965  15.578  0.00  0.00    +0.000 C 
BRANCH  13  14
ATOM     14  C   UNL     1      35.722  -2.084  17.038  0.00  0.00    +0.000 C 
ATOM     15  C   UNL     1      34.669  -1.018  17.260  0.00  0.00    +0.000 C 
ATOM     16  C   UNL     1      35.305   0.349  17.397  0.00  0.00    +0.000 C 
ATOM     17  C   UNL     1      36.095   0.349  18.685  0.00  0.00    +0.000 C 
ATOM     18  C   UNL     1      36.384  -1.061  19.163  0.00  0.00    +0.000 C 
ATOM     19  C   UNL     1      36.884  -1.878  17.973  0.00  0.00    +0.000 C 
ENDBRANCH  13  14
ENDBRANCH   7  13
ENDBRANCH   1   7
BRANCH   4  20
ATOM     20  O   UNL     1      38.875   2.960  13.316  0.00  0.00    +0.000 OA
BRANCH  20  21
ATOM     21  C   UNL     1      38.045   4.043  13.666  0.00  0.00    +0.000 C 
BRANCH  21  22
ATOM     22  C   UNL     1      38.401   4.440  15.053  0.00  0.00    +0.000 A 
ATOM     23  C   UNL     1      37.620   4.149  16.153  0.00  0.00    +0.000 A 
ATOM     24  C   UNL     1      37.975   4.531  17.431  0.00  0.00    +0.000 A 
ATOM     25  C   UNL     1      39.152   5.233  17.647  0.00  0.00    +0.000 A 
ATOM     26  C   UNL     1      39.540   5.632  18.915  0.00  0.00    +0.000 A 
ATOM     27  C   UNL     1      40.714   6.329  19.104  0.00  0.00    +0.000 A 
ATOM     28  C   UNL     1      41.466   6.599  17.981  0.00  0.00    +0.000 A 
ATOM     29  C   UNL     1      41.096   6.213  16.726  0.00  0.00    +0.000 A 
ATOM     30  C   UNL     1      39.915   5.512  16.537  0.00  0.00    +0.000 A 
ATOM     31  N   UNL     1      39.536   5.120  15.283  0.00  0.00    +0.000 NA
ENDBRANCH  21  22
ENDBRANCH  20  21
ENDBRANCH   4  20
TORSDOF 9
ENDMDL
MODEL 4
REMARK VINA RESULT:      -7.7     23.542     26.780
REMARK  Name = 
REMARK  9 active torsions:
REMARK  status: ('A' for Active; 'I' for Inactive)
REMARK    1  A    between atoms: N_2  and  O_3
REMARK    2  A    between atoms: O_3  and  C_4
REMARK    3  A    between atoms: C_4  and  C_6
REMARK    4  A    between atoms: C_6  and  C_7
REMARK    5  A    between atoms: C_6  and  C_14
REMARK    6  A    between atoms: C_7  and  C_8
REMARK    7  A    between atoms: C_17  and  O_18
REMARK    8  A    between atoms: O_18  and  C_19
REMARK    9  A    between atoms: C_19  and  C_20
REMARK                            x       y       z     vdW  Elec       q    Type
REMARK                         _______ _______ _______ _____ _____    ______ ____
ROOT
ATOM      1  C   UNL     1      37.505   1.097  14.969  0.00  0.00    +0.000 A 
ATOM      2  C   UNL     1      36.566   2.084  15.085  0.00  0.00    +0.000 A 
ATOM      3  C   UNL     1      37.053   3.392  14.973  0.00  0.00    +0.000 A 
ATOM      4  C   UNL     1      38.400   3.638  14.761  0.00  0.00    +0.000 A 
ATOM      5  C   UNL     1      39.273   2.585  14.657  0.00  0.00    +0.000 A 
ATOM      6  C   UNL     1      38.807   1.274  14.766  0.00  0.00    +0.000 A 
ENDROOT
BRANCH   1   7
ATOM      7  C   UNL     1      36.939  -0.414  15.101  0.00  0.00    +0.000 C 
BRANCH   7   8
ATOM      8  C   UNL     1      36.244  -0.173  16.532  0.00  0.00    +0.000 C 
ATOM      9  O   UNL     1      35.052  -0.230  16.681  0.00  0.00    +0.000 OA
BRANCH   8  10
ATOM     10  O   UNL     1      37.116   0.103  17.571  0.00  0.00    +0.000 OA
BRANCH  10  12
ATOM     11  C   UNL     1      37.222  -1.529  19.232  0.00  0.00    +0.000 C 
ATOM     12  N   UNL     1      36.716  -0.216  18.853  0.00  0.00    +0.000 NA
ENDBRANCH  10  12
ENDBRANCH   8  10
ENDBRANCH   7   8
BRANCH   7  13
ATOM     13  C   UNL     1      38.345  -1.056  15.692  0.00  0.00    +0.000 C 
BRANCH  13  14
ATOM     14  C   UNL     1      38.535  -2.298  14.844  0.00  0.00    +0.000 C 
ATOM     15  C   UNL     1      39.967  -2.729  15.084  0.00  0.00    +0.000 C 
ATOM     16  C   UNL     1      40.929  -1.871  14.290  0.00  0.00    +0.000 C 
ATOM     17  C   UNL     1      40.701  -2.177  12.827  0.00  0.00    +0.000 C 
ATOM     18  C   UNL     1      39.353  -2.835  12.599  0.00  0.00    +0.000 C 
ATOM     19  C   UNL     1      38.298  -2.051  13.378  0.00  0.00    +0.000 C 
ENDBRANCH  13  14
ENDBRANCH   7  13
ENDBRANCH   1   7
BRANCH   4  20
ATOM     20  O   UNL     1      38.905   4.910  14.648  0.00  0.00    +0.000 OA
BRANCH  20  21
ATOM     21  C   UNL     1      38.321   5.943  15.407  0.00  0.00    +0.000 C 
BRANCH  21  22
ATOM     22  C   UNL     1      39.082   6.036  16.680  0.00  0.00    +0.000 A 
ATOM     23  C   UNL     1      38.509   5.865  17.925  0.00  0.00    +0.000 A 
ATOM     24  C   UNL     1      39.240   5.958  19.092  0.00  0.00    +0.000 A 
ATOM     25  C   UNL     1      40.599   6.232  19.044  0.00  0.00    +0.000 A 
ATOM     26  C   UNL     1      41.363   6.332  20.193  0.00  0.00    +0.000 A 
ATOM     27  C   UNL     1      42.712   6.605  20.119  0.00  0.00    +0.000 A 
ATOM     28  C   UNL     1      43.247   6.768  18.860  0.00  0.00    +0.000 A 
ATOM     29  C   UNL     1      42.506   6.672  17.718  0.00  0.00    +0.000 A 
ATOM     30  C   UNL     1      41.149   6.398  17.793  0.00  0.00    +0.000 A 
ATOM     31  N   UNL     1      40.399   6.300  16.655  0.00  0.00    +0.000 NA
ENDBRANCH  21  22
ENDBRANCH  20  21
ENDBRANCH   4  20
TORSDOF 9
ENDMDL
MODEL 5
REMARK VINA RESULT:      -7.6     25.811     28.068
REMARK  Name = 
REMARK  9 active torsions:
REMARK  status: ('A' for Active; 'I' for Inactive)
REMARK    1  A    between atoms: N_2  and  O_3
REMARK    2  A    between atoms: O_3  and  C_4
REMARK    3  A    between atoms: C_4  and  C_6
REMARK    4  A    between atoms: C_6  and  C_7
REMARK    5  A    between atoms: C_6  and  C_14
REMARK    6  A    between atoms: C_7  and  C_8
REMARK    7  A    between atoms: C_17  and  O_18
REMARK    8  A    between atoms: O_18  and  C_19
REMARK    9  A    between atoms: C_19  and  C_20
REMARK                            x       y       z     vdW  Elec       q    Type
REMARK                         _______ _______ _______ _____ _____    ______ ____
ROOT
ATOM      1  C   UNL     1      39.999   5.764  18.473  0.00  0.00    +0.000 A 
ATOM      2  C   UNL     1      38.840   5.039  18.535  0.00  0.00    +0.000 A 
ATOM      3  C   UNL     1      38.343   4.596  17.304  0.00  0.00    +0.000 A 
ATOM      4  C   UNL     1      39.001   4.887  16.120  0.00  0.00    +0.000 A 
ATOM      5  C   UNL     1      40.159   5.622  16.151  0.00  0.00    +0.000 A 
ATOM      6  C   UNL     1      40.671   6.073  17.369  0.00  0.00    +0.000 A 
ENDROOT
BRANCH   1   7
ATOM      7  C   UNL     1      40.570   6.277  19.899  0.00  0.00    +0.000 C 
BRANCH   7   8
ATOM      8  C   UNL     1      39.580   7.540  19.993  0.00  0.00    +0.000 C 
ATOM      9  O   UNL     1      38.809   7.681  20.905  0.00  0.00    +0.000 OA
BRANCH   8  10
ATOM     10  O   UNL     1      39.682   8.448  18.953  0.00  0.00    +0.000 OA
BRANCH  10  12
ATOM     11  C   UNL     1      37.808   8.545  17.571  0.00  0.00    +0.000 C 
ATOM     12  N   UNL     1      38.566   9.194  18.633  0.00  0.00    +0.000 NA
ENDBRANCH  10  12
ENDBRANCH   8  10
ENDBRANCH   7   8
BRANCH   7  13
ATOM     13  C   UNL     1      41.855   7.103  19.263  0.00  0.00    +0.000 C 
BRANCH  13  14
ATOM     14  C   UNL     1      42.734   7.350  20.472  0.00  0.00    +0.000 C 
ATOM     15  C   UNL     1      44.014   7.941  19.920  0.00  0.00    +0.000 C 
ATOM     16  C   UNL     1      44.896   6.861  19.328  0.00  0.00    +0.000 C 
ATOM     17  C   UNL     1      45.363   5.987  20.469  0.00  0.00    +0.000 C 
ATOM     18  C   UNL     1      44.487   6.154  21.696  0.00  0.00    +0.000 C 
ATOM     19  C   UNL     1      43.026   6.096  21.253  0.00  0.00    +0.000 C 
ENDBRANCH  13  14
ENDBRANCH   7  13
ENDBRANCH   1   7
BRANCH   4  20
ATOM     20  O   UNL     1      38.535   4.466  14.899  0.00  0.00    +0.000 OA
BRANCH  20  21
ATOM     21  C   UNL     1      37.789   3.274  14.830  0.00  0.00    +0.000 C 
BRANCH  21  22
ATOM     22  C   UNL     1      38.753   2.165  14.605  0.00  0.00    +0.000 A 
ATOM     23  C   UNL     1      39.900   2.294  13.846  0.00  0.00    +0.000 A 
ATOM     24  C   UNL     1      40.778   1.247  13.653  0.00  0.00    +0.000 A 
ATOM     25  C   UNL     1      40.526   0.010  14.229  0.00  0.00    +0.000 A 
ATOM     26  C   UNL     1      41.384  -1.062  14.058  0.00  0.00    +0.000 A 
ATOM     27  C   UNL     1      41.112  -2.281  14.641  0.00  0.00    +0.000 A 
ATOM     28  C   UNL     1      39.959  -2.369  15.391  0.00  0.00    +0.000 A 
ATOM     29  C   UNL     1      39.104  -1.321  15.569  0.00  0.00    +0.000 A 
ATOM     30  C   UNL     1      39.379  -0.096  14.982  0.00  0.00    +0.000 A 
ATOM     31  N   UNL     1      38.528   0.960  15.154  0.00  0.00    +0.000 NA
ENDBRANCH  21  22
ENDBRANCH  20  21
ENDBRANCH   4  20
TORSDOF 9
ENDMDL
MODEL 6
REMARK VINA RESULT:      -7.6     23.459     26.026
REMARK  Name = 
REMARK  9 active torsions:
REMARK  status: ('A' for Active; 'I' for Inactive)
REMARK    1  A    between atoms: N_2  and  O_3
REMARK    2  A    between atoms: O_3  and  C_4
REMARK    3  A    between atoms: C_4  and  C_6
REMARK    4  A    between atoms: C_6  and  C_7
REMARK    5  A    between atoms: C_6  and  C_14
REMARK    6  A    between atoms: C_7  and  C_8
REMARK    7  A    between atoms: C_17  and  O_18
REMARK    8  A    between atoms: O_18  and  C_19
REMARK    9  A    between atoms: C_19  and  C_20
REMARK                            x       y       z     vdW  Elec       q    Type
REMARK                         _______ _______ _______ _____ _____    ______ ____
ROOT
ATOM      1  C   UNL     1      36.851   0.630  15.288  0.00  0.00    +0.000 A 
ATOM      2  C   UNL     1      38.067   1.194  15.015  0.00  0.00    +0.000 A 
ATOM      3  C   UNL     1      38.086   2.595  14.986  0.00  0.00    +0.000 A 
ATOM      4  C   UNL     1      36.935   3.330  15.222  0.00  0.00    +0.000 A 
ATOM      5  C   UNL     1      35.757   2.679  15.488  0.00  0.00    +0.000 A 
ATOM      6  C   UNL     1      35.718   1.284  15.522  0.00  0.00    +0.000 A 
ENDROOT
BRANCH   1   7
ATOM      7  C   UNL     1      36.833  -0.989  15.319  0.00  0.00    +0.000 C 
BRANCH   7   8
ATOM      8  C   UNL     1      36.221  -1.088  16.803  0.00  0.00    +0.000 C 
ATOM      9  O   UNL     1      35.148  -1.586  17.019  0.00  0.00    +0.000 OA
BRANCH   8  10
ATOM     10  O   UNL     1      37.018  -0.562  17.805  0.00  0.00    +0.000 OA
BRANCH  10  12
ATOM     11  C   UNL     1      37.684  -2.253  19.265  0.00  0.00    +0.000 C 
ATOM     12  N   UNL     1      36.865  -1.061  19.083  0.00  0.00    +0.000 NA
ENDBRANCH  10  12
ENDBRANCH   8  10
ENDBRANCH   7   8
BRANCH   7  13
ATOM     13  C   UNL     1      38.417  -1.154  15.767  0.00  0.00    +0.000 C 
BRANCH  13  14
ATOM     14  C   UNL     1      38.895  -2.308  14.909  0.00  0.00    +0.000 C 
ATOM     15  C   UNL     1      40.395  -2.127  14.799  0.00  0.00    +0.000 C 
ATOM     16  C   UNL     1      40.736  -1.054  13.787  0.00  0.00    +0.000 C 
ATOM     17  C   UNL     1      40.334  -1.575  12.426  0.00  0.00    +0.000 C 
ATOM     18  C   UNL     1      39.346  -2.720  12.537  0.00  0.00    +0.000 C 
ATOM     19  C   UNL     1      38.265  -2.326  13.542  0.00  0.00    +0.000 C 
ENDBRANCH  13  14
ENDBRANCH   7  13
ENDBRANCH   1   7
BRANCH   4  20
ATOM     20  O   UNL     1      36.925   4.703  15.199  0.00  0.00    +0.000 OA
BRANCH  20  21
ATOM     21  C   UNL     1      38.151   5.391  15.119  0.00  0.00    +0.000 C 
BRANCH  21  22
ATOM     22  C   UNL     1      38.471   5.878  16.486  0.00  0.00    +0.000 A 
ATOM     23  C   UNL     1      39.369   5.252  17.327  0.00  0.00    +0.000 A 
ATOM     24  C   UNL     1      39.648   5.726  18.593  0.00  0.00    +0.000 A 
ATOM     25  C   UNL     1      39.018   6.870  19.063  0.00  0.00    +0.000 A 
ATOM     26  C   UNL     1      39.274   7.374  20.327  0.00  0.00    +0.000 A 
ATOM     27  C   UNL     1      38.635   8.512  20.771  0.00  0.00    +0.000 A 
ATOM     28  C   UNL     1      37.747   9.108  19.903  0.00  0.00    +0.000 A 
ATOM     29  C   UNL     1      37.486   8.622  18.655  0.00  0.00    +0.000 A 
ATOM     30  C   UNL     1      38.128   7.478  18.209  0.00  0.00    +0.000 A 
ATOM     31  N   UNL     1      37.873   6.984  16.960  0.00  0.00    +0.000 NA
ENDBRANCH  21  22
ENDBRANCH  20  21
ENDBRANCH   4  20
TORSDOF 9
ENDMDL
MODEL 7
REMARK VINA RESULT:      -7.6     24.277     26.921
REMARK  Name = 
REMARK  9 active torsions:
REMARK  status: ('A' for Active; 'I' for Inactive)
REMARK    1  A    between atoms: N_2  and  O_3
REMARK    2  A    between atoms: O_3  and  C_4
REMARK    3  A    between atoms: C_4  and  C_6
REMARK    4  A    between atoms: C_6  and  C_7
REMARK    5  A    between atoms: C_6  and  C_14
REMARK    6  A    between atoms: C_7  and  C_8
REMARK    7  A    between atoms: C_17  and  O_18
REMARK    8  A    between atoms: O_18  and  C_19
REMARK    9  A    between atoms: C_19  and  C_20
REMARK                            x       y       z     vdW  Elec       q    Type
REMARK                         _______ _______ _______ _____ _____    ______ ____
ROOT
ATOM      1  C   UNL     1      38.533   0.354  14.942  0.00  0.00    +0.000 A 
ATOM      2  C   UNL     1      39.547   1.172  14.525  0.00  0.00    +0.000 A 
ATOM      3  C   UNL     1      39.281   2.545  14.600  0.00  0.00    +0.000 A 
ATOM      4  C   UNL     1      38.063   3.012  15.070  0.00  0.00    +0.000 A 
ATOM      5  C   UNL     1      37.102   2.118  15.468  0.00  0.00    +0.000 A 
ATOM      6  C   UNL     1      37.348   0.746  15.400  0.00  0.00    +0.000 A 
ENDROOT
BRANCH   1   7
ATOM      7  C   UNL     1      38.844  -1.232  14.851  0.00  0.00    +0.000 C 
BRANCH   7   8
ATOM      8  C   UNL     1      38.690  -1.307  13.252  0.00  0.00    +0.000 C 
ATOM      9  O   UNL     1      37.671  -1.001  12.693  0.00  0.00    +0.000 OA
BRANCH   8  10
ATOM     10  O   UNL     1      39.813  -1.748  12.572  0.00  0.00    +0.000 OA
BRANCH  10  12
ATOM     11  C   UNL     1      41.602  -3.123  13.154  0.00  0.00    +0.000 C 
ATOM     12  N   UNL     1      40.204  -3.059  12.749  0.00  0.00    +0.000 NA
ENDBRANCH  10  12
ENDBRANCH   8  10
ENDBRANCH   7   8
BRANCH   7  13
ATOM     13  C   UNL     1      37.301  -1.713  15.202  0.00  0.00    +0.000 C 
BRANCH  13  14
ATOM     14  C   UNL     1      37.511  -2.839  16.194  0.00  0.00    +0.000 C 
ATOM     15  C   UNL     1      36.426  -2.660  17.235  0.00  0.00    +0.000 C 
ATOM     16  C   UNL     1      36.786  -1.554  18.205  0.00  0.00    +0.000 C 
ATOM     17  C   UNL     1      37.979  -2.027  19.003  0.00  0.00    +0.000 C 
ATOM     18  C   UNL     1      38.695  -3.172  18.312  0.00  0.00    +0.000 C 
ATOM     19  C   UNL     1      38.871  -2.808  16.839  0.00  0.00    +0.000 C 
ENDBRANCH  13  14
ENDBRANCH   7  13
ENDBRANCH   1   7
BRANCH   4  20
ATOM     20  O   UNL     1      37.775   4.352  15.154  0.00  0.00    +0.000 OA
BRANCH  20  21
ATOM     21  C   UNL     1      38.826   5.282  15.035  0.00  0.00    +0.000 C 
BRANCH  21  22
ATOM     22  C   UNL     1      39.333   5.550  16.407  0.00  0.00    +0.000 A 
ATOM     23  C   UNL     1      38.566   5.404  17.545  0.00  0.00    +0.000 A 
ATOM     24  C   UNL     1      39.062   5.659  18.807  0.00  0.00    +0.000 A 
ATOM     25  C   UNL     1      40.375   6.080  18.968  0.00  0.00    +0.000 A 
ATOM     26  C   UNL     1      40.907   6.344  20.218  0.00  0.00    +0.000 A 
ATOM     27  C   UNL     1      42.215   6.761  20.351  0.00  0.00    +0.000 A 
ATOM     28  C   UNL     1      42.948   6.894  19.192  0.00  0.00    +0.000 A 
ATOM     29  C   UNL     1      42.437   6.636  17.954  0.00  0.00    +0.000 A 
ATOM     30  C   UNL     1      41.122   6.218  17.820  0.00  0.00    +0.000 A 
ATOM     31  N   UNL     1      40.601   5.957  16.584  0.00  0.00    +0.000 NA
ENDBRANCH  21  22
ENDBRANCH  20  21
ENDBRANCH   4  20
TORSDOF 9
ENDMDL
MODEL 8
REMARK VINA RESULT:      -7.5     19.859     25.043
REMARK  Name = 
REMARK  9 active torsions:
REMARK  status: ('A' for Active; 'I' for Inactive)
REMARK    1  A    between atoms: N_2  and  O_3
REMARK    2  A    between atoms: O_3  and  C_4
REMARK    3  A    between atoms: C_4  and  C_6
REMARK    4  A    between atoms: C_6  and  C_7
REMARK    5  A    between atoms: C_6  and  C_14
REMARK    6  A    between atoms: C_7  and  C_8
REMARK    7  A    between atoms: C_17  and  O_18
REMARK    8  A    between atoms: O_18  and  C_19
REMARK    9  A    between atoms: C_19  and  C_20
REMARK                            x       y       z     vdW  Elec       q    Type
REMARK                         _______ _______ _______ _____ _____    ______ ____
ROOT
ATOM      1  C   UNL     1      36.058   0.916  15.805  0.00  0.00    +0.000 A 
ATOM      2  C   UNL     1      37.354   1.199  15.470  0.00  0.00    +0.000 A 
ATOM      3  C   UNL     1      37.641   2.555  15.276  0.00  0.00    +0.000 A 
ATOM      4  C   UNL     1      36.659   3.523  15.418  0.00  0.00    +0.000 A 
ATOM      5  C   UNL     1      35.383   3.148  15.756  0.00  0.00    +0.000 A 
ATOM      6  C   UNL     1      35.077   1.801  15.955  0.00  0.00    +0.000 A 
ENDROOT
BRANCH   1   7
ATOM      7  C   UNL     1      35.728  -0.653  16.027  0.00  0.00    +0.000 C 
BRANCH   7   8
ATOM      8  C   UNL     1      35.107  -0.453  17.497  0.00  0.00    +0.000 C 
ATOM      9  O   UNL     1      35.771  -0.071  18.424  0.00  0.00    +0.000 OA
BRANCH   8  10
ATOM     10  O   UNL     1      33.760  -0.751  17.613  0.00  0.00    +0.000 OA
BRANCH  10  12
ATOM     11  C   UNL     1      31.925  -2.187  17.560  0.00  0.00    +0.000 C 
ATOM     12  N   UNL     1      33.350  -2.030  17.296  0.00  0.00    +0.000 NA
ENDBRANCH  10  12
ENDBRANCH   8  10
ENDBRANCH   7   8
BRANCH   7  13
ATOM     13  C   UNL     1      37.250  -1.062  16.530  0.00  0.00    +0.000 C 
BRANCH  13  14
ATOM     14  C   UNL     1      37.444  -2.444  15.940  0.00  0.00    +0.000 C 
ATOM     15  C   UNL     1      38.920  -2.533  15.610  0.00  0.00    +0.000 C 
ATOM     16  C   UNL     1      39.232  -1.792  14.327  0.00  0.00    +0.000 C 
ATOM     17  C   UNL     1      38.563  -2.544  13.200  0.00  0.00    +0.000 C 
ATOM     18  C   UNL     1      37.470  -3.462  13.712  0.00  0.00    +0.000 C 
ATOM     19  C   UNL     1      36.614  -2.680  14.707  0.00  0.00    +0.000 C 
ENDBRANCH  13  14
ENDBRANCH   7  13
ENDBRANCH   1   7
BRANCH   4  20
ATOM     20  O   UNL     1      36.913   4.859  15.233  0.00  0.00    +0.000 OA
BRANCH  20  21
ATOM     21  C   UNL     1      38.247   5.308  15.263  0.00  0.00    +0.000 C 
BRANCH  21  22
ATOM     22  C   UNL     1      38.495   5.857  16.622  0.00  0.00    +0.000 A 
ATOM     23  C   UNL     1      39.226   5.195  17.589  0.00  0.00    +0.000 A 
ATOM     24  C   UNL     1      39.441   5.728  18.844  0.00  0.00    +0.000 A 
ATOM     25  C   UNL     1      38.915   6.969  19.174  0.00  0.00    +0.000 A 
ATOM     26  C   UNL     1      39.111   7.534  20.422  0.00  0.00    +0.000 A 
ATOM     27  C   UNL     1      38.578   8.769  20.726  0.00  0.00    +0.000 A 
ATOM     28  C   UNL     1      37.856   9.397  19.735  0.00  0.00    +0.000 A 
ATOM     29  C   UNL     1      37.656   8.852  18.500  0.00  0.00    +0.000 A 
ATOM     30  C   UNL     1      38.191   7.610  18.196  0.00  0.00    +0.000 A 
ATOM     31  N   UNL     1      37.996   7.057  16.962  0.00  0.00    +0.000 NA
ENDBRANCH  21  22
ENDBRANCH  20  21
ENDBRANCH   4  20
TORSDOF 9
ENDMDL
MODEL 9
REMARK VINA RESULT:      -7.5     23.789     27.087
REMARK  Name = 
REMARK  9 active torsions:
REMARK  status: ('A' for Active; 'I' for Inactive)
REMARK    1  A    between atoms: N_2  and  O_3
REMARK    2  A    between atoms: O_3  and  C_4
REMARK    3  A    between atoms: C_4  and  C_6
REMARK    4  A    between atoms: C_6  and  C_7
REMARK    5  A    between atoms: C_6  and  C_14
REMARK    6  A    between atoms: C_7  and  C_8
REMARK    7  A    between atoms: C_17  and  O_18
REMARK    8  A    between atoms: O_18  and  C_19
REMARK    9  A    between atoms: C_19  and  C_20
REMARK                            x       y       z     vdW  Elec       q    Type
REMARK                         _______ _______ _______ _____ _____    ______ ____
ROOT
ATOM      1  C   UNL     1      37.781   0.203  14.704  0.00  0.00    +0.000 A 
ATOM      2  C   UNL     1      36.559   0.811  14.619  0.00  0.00    +0.000 A 
ATOM      3  C   UNL     1      36.589   2.205  14.486  0.00  0.00    +0.000 A 
ATOM      4  C   UNL     1      37.791   2.894  14.446  0.00  0.00    +0.000 A 
ATOM      5  C   UNL     1      38.972   2.201  14.538  0.00  0.00    +0.000 A 
ATOM      6  C   UNL     1      38.963   0.812  14.671  0.00  0.00    +0.000 A 
ENDROOT
BRANCH   1   7
ATOM      7  C   UNL     1      37.742  -1.408  14.860  0.00  0.00    +0.000 C 
BRANCH   7   8
ATOM      8  C   UNL     1      37.015  -1.386  16.294  0.00  0.00    +0.000 C 
ATOM      9  O   UNL     1      35.861  -1.695  16.430  0.00  0.00    +0.000 OA
BRANCH   8  10
ATOM     10  O   UNL     1      37.812  -0.987  17.353  0.00  0.00    +0.000 OA
BRANCH  10  12
ATOM     11  C   UNL     1      37.357  -1.729  19.515  0.00  0.00    +0.000 C 
ATOM     12  N   UNL     1      37.193  -0.657  18.542  0.00  0.00    +0.000 NA
ENDBRANCH  10  12
ENDBRANCH   8  10
ENDBRANCH   7   8
BRANCH   7  13
ATOM     13  C   UNL     1      39.284  -1.544  15.443  0.00  0.00    +0.000 C 
BRANCH  13  14
ATOM     14  C   UNL     1      39.880  -2.636  14.578  0.00  0.00    +0.000 C 
ATOM     15  C   UNL     1      41.372  -2.375  14.579  0.00  0.00    +0.000 C 
ATOM     16  C   UNL     1      41.723  -1.245  13.634  0.00  0.00    +0.000 C 
ATOM     17  C   UNL     1      41.441  -1.730  12.230  0.00  0.00    +0.000 C 
ATOM     18  C   UNL     1      40.511  -2.928  12.230  0.00  0.00    +0.000 C 
ATOM     19  C   UNL     1      39.345  -2.631  13.172  0.00  0.00    +0.000 C 
ENDBRANCH  13  14
ENDBRANCH   7  13
ENDBRANCH   1   7
BRANCH   4  20
ATOM     20  O   UNL     1      37.850   4.259  14.317  0.00  0.00    +0.000 OA
BRANCH  20  21
ATOM     21  C   UNL     1      37.492   5.062  15.417  0.00  0.00    +0.000 C 
BRANCH  21  22
ATOM     22  C   UNL     1      38.752   5.471  16.092  0.00  0.00    +0.000 A 
ATOM     23  C   UNL     1      39.930   5.724  15.417  0.00  0.00    +0.000 A 
ATOM     24  C   UNL     1      41.086   6.102  16.069  0.00  0.00    +0.000 A 
ATOM     25  C   UNL     1      41.094   6.240  17.450  0.00  0.00    +0.000 A 
ATOM     26  C   UNL     1      42.235   6.618  18.137  0.00  0.00    +0.000 A 
ATOM     27  C   UNL     1      42.218   6.748  19.510  0.00  0.00    +0.000 A 
ATOM     28  C   UNL     1      41.024   6.488  20.145  0.00  0.00    +0.000 A 
ATOM     29  C   UNL     1      39.892   6.115  19.482  0.00  0.00    +0.000 A 
ATOM     30  C   UNL     1      39.910   5.984  18.101  0.00  0.00    +0.000 A 
ATOM     31  N   UNL     1      38.781   5.611  17.427  0.00  0.00    +0.000 NA
ENDBRANCH  21  22
ENDBRANCH  20  21
ENDBRANCH   4  20
TORSDOF 9
ENDMDL
MODEL 10
REMARK VINA RESULT:      -7.5     22.702     27.331
REMARK  Name = 
REMARK  9 active torsions:
REMARK  status: ('A' for Active; 'I' for Inactive)
REMARK    1  A    between atoms: N_2  and  O_3
REMARK    2  A    between atoms: O_3  and  C_4
REMARK    3  A    between atoms: C_4  and  C_6
REMARK    4  A    between atoms: C_6  and  C_7
REMARK    5  A    between atoms: C_6  and  C_14
REMARK    6  A    between atoms: C_7  and  C_8
REMARK    7  A    between atoms: C_17  and  O_18
REMARK    8  A    between atoms: O_18  and  C_19
REMARK    9  A    between atoms: C_19  and  C_20
REMARK                            x       y       z     vdW  Elec       q    Type
REMARK                         _______ _______ _______ _____ _____    ______ ____
ROOT
ATOM      1  C   UNL     1      40.176   5.999  18.708  0.00  0.00    +0.000 A 
ATOM      2  C   UNL     1      40.959   6.285  17.623  0.00  0.00    +0.000 A 
ATOM      3  C   UNL     1      40.476   5.819  16.394  0.00  0.00    +0.000 A 
ATOM      4  C   UNL     1      39.282   5.119  16.314  0.00  0.00    +0.000 A 
ATOM      5  C   UNL     1      38.560   4.877  17.456  0.00  0.00    +0.000 A 
ATOM      6  C   UNL     1      39.025   5.334  18.690  0.00  0.00    +0.000 A 
ENDROOT
BRANCH   1   7
ATOM      7  C   UNL     1      40.739   6.537  20.127  0.00  0.00    +0.000 C 
BRANCH   7   8
ATOM      8  C   UNL     1      39.705   7.765  20.225  0.00  0.00    +0.000 C 
ATOM      9  O   UNL     1      38.790   7.769  21.006  0.00  0.00    +0.000 OA
BRANCH   8  10
ATOM     10  O   UNL     1      39.945   8.810  19.349  0.00  0.00    +0.000 OA
BRANCH  10  12
ATOM     11  C   UNL     1      38.334   8.962  17.673  0.00  0.00    +0.000 C 
ATOM     12  N   UNL     1      38.864   9.540  18.901  0.00  0.00    +0.000 NA
ENDBRANCH  10  12
ENDBRANCH   8  10
ENDBRANCH   7   8
BRANCH   7  13
ATOM     13  C   UNL     1      41.988   7.407  19.480  0.00  0.00    +0.000 C 
BRANCH  13  14
ATOM     14  C   UNL     1      42.971   7.500  20.629  0.00  0.00    +0.000 C 
ATOM     15  C   UNL     1      44.251   8.030  20.017  0.00  0.00    +0.000 C 
ATOM     16  C   UNL     1      44.996   6.932  19.289  0.00  0.00    +0.000 C 
ATOM     17  C   UNL     1      45.474   5.947  20.330  0.00  0.00    +0.000 C 
ATOM     18  C   UNL     1      44.707   6.093  21.631  0.00  0.00    +0.000 C 
ATOM     19  C   UNL     1      43.217   6.176  21.301  0.00  0.00    +0.000 C 
ENDBRANCH  13  14
ENDBRANCH   7  13
ENDBRANCH   1   7
BRANCH   4  20
ATOM     20  O   UNL     1      38.786   4.650  15.123  0.00  0.00    +0.000 OA
BRANCH  20  21
ATOM     21  C   UNL     1      37.394   4.477  14.988  0.00  0.00    +0.000 C 
BRANCH  21  22
ATOM     22  C   UNL     1      37.122   3.019  15.081  0.00  0.00    +0.000 A 
ATOM     23  C   UNL     1      37.777   2.071  14.319  0.00  0.00    +0.000 A 
ATOM     24  C   UNL     1      37.504   0.722  14.426  0.00  0.00    +0.000 A 
ATOM     25  C   UNL     1      36.543   0.274  15.320  0.00  0.00    +0.000 A 
ATOM     26  C   UNL     1      36.243  -1.070  15.454  0.00  0.00    +0.000 A 
ATOM     27  C   UNL     1      35.284  -1.491  16.350  0.00  0.00    +0.000 A 
ATOM     28  C   UNL     1      34.653  -0.516  17.091  0.00  0.00    +0.000 A 
ATOM     29  C   UNL     1      34.938   0.813  16.970  0.00  0.00    +0.000 A 
ATOM     30  C   UNL     1      35.903   1.235  16.069  0.00  0.00    +0.000 A 
ATOM     31  N   UNL     1      36.196   2.564  15.941  0.00  0.00    +0.000 NA
ENDBRANCH  21  22
ENDBRANCH  20  21
ENDBRANCH   4  20
TORSDOF 9
ENDMDL
