MODEL 1
REMARK VINA RESULT:      -8.5      0.000      0.000
REMARK  Name = 
REMARK  8 active torsions:
REMARK  status: ('A' for Active; 'I' for Inactive)
REMARK    1  A    between atoms: C_2  and  O_3
REMARK    2  A    between atoms: O_3  and  C_4
REMARK    3  A    between atoms: C_7  and  N_8
REMARK    4  A    between atoms: N_8  and  C_9
REMARK    5  A    between atoms: C_10  and  S_11
REMARK    6  A    between atoms: S_11  and  C_12
REMARK    7  A    between atoms: N_20  and  C_21
REMARK    8  A    between atoms: C_24  and  C_25
REMARK                            x       y       z     vdW  Elec       q    Type
REMARK                         _______ _______ _______ _____ _____    ______ ____
ROOT
ATOM      1  C   UNL     1      36.333   4.437  14.761  0.00  0.00    +0.000 C 
ATOM      2  C   UNL     1      37.645   4.191  14.921  0.00  0.00    +0.000 C 
ATOM      3  C   UNL     1      37.772   2.766  15.223  0.00  0.00    +0.000 C 
ATOM      4  O   UNL     1      38.872   2.150  15.442  0.00  0.00    +0.000 OA
ATOM      5  N   UNL     1      36.492   2.142  15.240  0.00  0.00    +0.000 N 
ATOM      6  C   UNL     1      35.571   3.222  14.941  0.00  0.00    +0.000 C 
ATOM      7  O   UNL     1      34.322   2.997  14.878  0.00  0.00    +0.000 OA
ENDROOT
BRANCH   5   8
ATOM      8  C   UNL     1      36.148   0.799  15.483  0.00  0.00    +0.000 A 
ATOM      9  C   UNL     1      36.587  -0.196  14.600  0.00  0.00    +0.000 A 
ATOM     10  C   UNL     1      36.258  -1.506  14.830  0.00  0.00    +0.000 A 
ATOM     11  C   UNL     1      35.497  -1.910  15.911  0.00  0.00    +0.000 A 
ATOM     12  C   UNL     1      35.069  -0.934  16.772  0.00  0.00    +0.000 A 
ATOM     13  C   UNL     1      35.398   0.391  16.546  0.00  0.00    +0.000 A 
BRANCH  11  14
ATOM     14  C   UNL     1      35.192  -3.343  16.087  0.00  0.00    +0.000 C 
ATOM     15  C   UNL     1      34.806  -3.932  14.747  0.00  0.00    +0.000 C 
ATOM     16  C   UNL     1      36.446  -4.049  16.551  0.00  0.00    +0.000 C 
ENDBRANCH  11  14
ENDBRANCH   5   8
BRANCH   1  17
ATOM     17  N   UNL     1      35.821   5.723  14.484  0.00  0.00    +0.000 NA
BRANCH  17  21
ATOM     18  C   UNL     1      34.153   7.065  10.836  0.00  0.00    +0.000 A 
ATOM     19  C   UNL     1      33.477   7.248  12.013  0.00  0.00    +0.000 A 
ATOM     20  C   UNL     1      34.004   6.806  13.192  0.00  0.00    +0.000 A 
ATOM     21  C   UNL     1      35.216   6.161  13.291  0.00  0.00    +0.000 A 
ATOM     22  C   UNL     1      35.891   5.982  12.077  0.00  0.00    +0.000 A 
ATOM     23  C   UNL     1      35.385   6.415  10.886  0.00  0.00    +0.000 A 
BRANCH  18  24
ATOM     24  O   UNL     1      33.707   7.474   9.602  0.00  0.00    +0.000 OA
BRANCH  24  26
ATOM     25  C   UNL     1      33.582   6.319   7.456  0.00  0.00    +0.000 C 
ATOM     26  C   UNL     1      34.375   7.235   8.391  0.00  0.00    +0.000 C 
ENDBRANCH  24  26
ENDBRANCH  18  24
ENDBRANCH  17  21
ENDBRANCH   1  17
BRANCH   2  27
ATOM     27  S   UNL     1      38.977   5.372  14.826  0.00  0.00    +0.000 S 
BRANCH  27  28
ATOM     28  C   UNL     1      39.711   5.694  16.432  0.00  0.00    +0.000 A 
ATOM     29  C   UNL     1      40.944   6.233  16.641  0.00  0.00    +0.000 A 
ATOM     30  C   UNL     1      41.339   6.456  17.969  0.00  0.00    +0.000 A 
ATOM     31  C   UNL     1      40.518   6.145  19.013  0.00  0.00    +0.000 A 
ATOM     32  C   UNL     1      39.253   5.594  18.822  0.00  0.00    +0.000 A 
ATOM     33  C   UNL     1      38.883   5.381  17.518  0.00  0.00    +0.000 A 
ENDBRANCH  27  28
ENDBRANCH   2  27
TORSDOF 8
ENDMDL
MODEL 2
REMARK VINA RESULT:      -8.3      3.940      8.782
REMARK  Name = 
REMARK  8 active torsions:
REMARK  status: ('A' for Active; 'I' for Inactive)
REMARK    1  A    between atoms: C_2  and  O_3
REMARK    2  A    between atoms: O_3  and  C_4
REMARK    3  A    between atoms: C_7  and  N_8
REMARK    4  A    between atoms: N_8  and  C_9
REMARK    5  A    between atoms: C_10  and  S_11
REMARK    6  A    between atoms: S_11  and  C_12
REMARK    7  A    between atoms: N_20  and  C_21
REMARK    8  A    between atoms: C_24  and  C_25
REMARK                            x       y       z     vdW  Elec       q    Type
REMARK                         _______ _______ _______ _____ _____    ______ ____
ROOT
ATOM      1  C   UNL     1      37.399   2.404  14.851  0.00  0.00    +0.000 C 
ATOM      2  C   UNL     1      38.530   2.746  14.213  0.00  0.00    +0.000 C 
ATOM      3  C   UNL     1      39.107   3.868  14.952  0.00  0.00    +0.000 C 
ATOM      4  O   UNL     1      40.193   4.474  14.650  0.00  0.00    +0.000 OA
ATOM      5  N   UNL     1      38.293   4.202  16.071  0.00  0.00    +0.000 N 
ATOM      6  C   UNL     1      37.195   3.256  16.001  0.00  0.00    +0.000 C 
ATOM      7  O   UNL     1      36.272   3.283  16.874  0.00  0.00    +0.000 OA
ENDROOT
BRANCH   5   8
ATOM      8  C   UNL     1      38.466   5.203  17.045  0.00  0.00    +0.000 A 
ATOM      9  C   UNL     1      39.125   4.894  18.242  0.00  0.00    +0.000 A 
ATOM     10  C   UNL     1      39.300   5.863  19.194  0.00  0.00    +0.000 A 
ATOM     11  C   UNL     1      38.850   7.161  19.036  0.00  0.00    +0.000 A 
ATOM     12  C   UNL     1      38.205   7.459  17.866  0.00  0.00    +0.000 A 
ATOM     13  C   UNL     1      38.025   6.485  16.898  0.00  0.00    +0.000 A 
BRANCH  11  14
ATOM     14  C   UNL     1      39.084   8.144  20.112  0.00  0.00    +0.000 C 
ATOM     15  C   UNL     1      40.106   9.156  19.638  0.00  0.00    +0.000 C 
ATOM     16  C   UNL     1      37.794   8.887  20.375  0.00  0.00    +0.000 C 
ENDBRANCH  11  14
ENDBRANCH   5   8
BRANCH   1  17
ATOM     17  N   UNL     1      36.549   1.368  14.406  0.00  0.00    +0.000 NA
BRANCH  17  21
ATOM     18  C   UNL     1      35.922  -2.468  16.072  0.00  0.00    +0.000 A 
ATOM     19  C   UNL     1      35.502  -1.349  16.739  0.00  0.00    +0.000 A 
ATOM     20  C   UNL     1      35.713  -0.107  16.213  0.00  0.00    +0.000 A 
ATOM     21  C   UNL     1      36.344   0.114  15.010  0.00  0.00    +0.000 A 
ATOM     22  C   UNL     1      36.767  -1.042  14.343  0.00  0.00    +0.000 A 
ATOM     23  C   UNL     1      36.568  -2.295  14.848  0.00  0.00    +0.000 A 
BRANCH  18  24
ATOM     24  O   UNL     1      35.756  -3.758  16.517  0.00  0.00    +0.000 OA
BRANCH  24  26
ATOM     25  C   UNL     1      37.775  -5.043  16.999  0.00  0.00    +0.000 C 
ATOM     26  C   UNL     1      36.540  -4.850  16.115  0.00  0.00    +0.000 C 
ENDBRANCH  24  26
ENDBRANCH  18  24
ENDBRANCH  17  21
ENDBRANCH   1  17
BRANCH   2  27
ATOM     27  S   UNL     1      39.190   2.011  12.729  0.00  0.00    +0.000 S 
BRANCH  27  28
ATOM     28  C   UNL     1      39.702   0.310  12.987  0.00  0.00    +0.000 A 
ATOM     29  C   UNL     1      39.629  -0.684  12.058  0.00  0.00    +0.000 A 
ATOM     30  C   UNL     1      40.117  -1.948  12.421  0.00  0.00    +0.000 A 
ATOM     31  C   UNL     1      40.644  -2.174  13.659  0.00  0.00    +0.000 A 
ATOM     32  C   UNL     1      40.727  -1.173  14.623  0.00  0.00    +0.000 A 
ATOM     33  C   UNL     1      40.245   0.057  14.253  0.00  0.00    +0.000 A 
ENDBRANCH  27  28
ENDBRANCH   2  27
TORSDOF 8
ENDMDL
MODEL 3
REMARK VINA RESULT:      -8.1      4.128      9.017
REMARK  Name = 
REMARK  8 active torsions:
REMARK  status: ('A' for Active; 'I' for Inactive)
REMARK    1  A    between atoms: C_2  and  O_3
REMARK    2  A    between atoms: O_3  and  C_4
REMARK    3  A    between atoms: C_7  and  N_8
REMARK    4  A    between atoms: N_8  and  C_9
REMARK    5  A    between atoms: C_10  and  S_11
REMARK    6  A    between atoms: S_11  and  C_12
REMARK    7  A    between atoms: N_20  and  C_21
REMARK    8  A    between atoms: C_24  and  C_25
REMARK                            x       y       z     vdW  Elec       q    Type
REMARK                         _______ _______ _______ _____ _____    ______ ____
ROOT
ATOM      1  C   UNL     1      38.284   2.166  14.300  0.00  0.00    +0.000 C 
ATOM      2  C   UNL     1      37.206   1.795  15.009  0.00  0.00    +0.000 C 
ATOM      3  C   UNL     1      37.035   2.789  16.068  0.00  0.00    +0.000 C 
ATOM      4  O   UNL     1      36.111   2.778  16.953  0.00  0.00    +0.000 OA
ATOM      5  N   UNL     1      38.046   3.788  15.983  0.00  0.00    +0.000 N 
ATOM      6  C   UNL     1      38.846   3.382  14.843  0.00  0.00    +0.000 C 
ATOM      7  O   UNL     1      39.850   4.076  14.488  0.00  0.00    +0.000 OA
ENDROOT
BRANCH   5   8
ATOM      8  C   UNL     1      38.262   4.922  16.788  0.00  0.00    +0.000 A 
ATOM      9  C   UNL     1      38.828   4.767  18.061  0.00  0.00    +0.000 A 
ATOM     10  C   UNL     1      39.043   5.865  18.850  0.00  0.00    +0.000 A 
ATOM     11  C   UNL     1      38.723   7.150  18.452  0.00  0.00    +0.000 A 
ATOM     12  C   UNL     1      38.170   7.298  17.209  0.00  0.00    +0.000 A 
ATOM     13  C   UNL     1      37.950   6.193  16.405  0.00  0.00    +0.000 A 
BRANCH  11  14
ATOM     14  C   UNL     1      38.993   8.279  19.365  0.00  0.00    +0.000 C 
ATOM     15  C   UNL     1      37.682   8.943  19.726  0.00  0.00    +0.000 C 
ATOM     16  C   UNL     1      39.596   7.734  20.639  0.00  0.00    +0.000 C 
ENDBRANCH  11  14
ENDBRANCH   5   8
BRANCH   1  17
ATOM     17  N   UNL     1      38.776   1.424  13.204  0.00  0.00    +0.000 NA
BRANCH  17  21
ATOM     18  C   UNL     1      41.246  -2.008  13.271  0.00  0.00    +0.000 A 
ATOM     19  C   UNL     1      41.449  -0.994  14.168  0.00  0.00    +0.000 A 
ATOM     20  C   UNL     1      40.663   0.122  14.144  0.00  0.00    +0.000 A 
ATOM     21  C   UNL     1      39.639   0.314  13.245  0.00  0.00    +0.000 A 
ATOM     22  C   UNL     1      39.448  -0.733  12.334  0.00  0.00    +0.000 A 
ATOM     23  C   UNL     1      40.220  -1.859  12.339  0.00  0.00    +0.000 A 
BRANCH  18  24
ATOM     24  O   UNL     1      41.981  -3.168  13.216  0.00  0.00    +0.000 OA
BRANCH  24  26
ATOM     25  C   UNL     1      43.389  -3.525  11.254  0.00  0.00    +0.000 C 
ATOM     26  C   UNL     1      43.305  -3.256  12.759  0.00  0.00    +0.000 C 
ENDBRANCH  24  26
ENDBRANCH  18  24
ENDBRANCH  17  21
ENDBRANCH   1  17
BRANCH   2  27
ATOM     27  S   UNL     1      36.193   0.351  14.746  0.00  0.00    +0.000 S 
BRANCH  27  28
ATOM     28  C   UNL     1      37.069  -1.169  15.128  0.00  0.00    +0.000 A 
ATOM     29  C   UNL     1      36.972  -2.331  14.426  0.00  0.00    +0.000 A 
ATOM     30  C   UNL     1      37.767  -3.410  14.844  0.00  0.00    +0.000 A 
ATOM     31  C   UNL     1      38.605  -3.298  15.914  0.00  0.00    +0.000 A 
ATOM     32  C   UNL     1      38.719  -2.119  16.646  0.00  0.00    +0.000 A 
ATOM     33  C   UNL     1      37.935  -1.074  16.225  0.00  0.00    +0.000 A 
ENDBRANCH  27  28
ENDBRANCH   2  27
TORSDOF 8
ENDMDL
MODEL 4
REMARK VINA RESULT:      -8.0      2.538      8.479
REMARK  Name = 
REMARK  8 active torsions:
REMARK  status: ('A' for Active; 'I' for Inactive)
REMARK    1  A    between atoms: C_2  and  O_3
REMARK    2  A    between atoms: O_3  and  C_4
REMARK    3  A    between atoms: C_7  and  N_8
REMARK    4  A    between atoms: N_8  and  C_9
REMARK    5  A    between atoms: C_10  and  S_11
REMARK    6  A    between atoms: S_11  and  C_12
REMARK    7  A    between atoms: N_20  and  C_21
REMARK    8  A    between atoms: C_24  and  C_25
REMARK                            x       y       z     vdW  Elec       q    Type
REMARK                         _______ _______ _______ _____ _____    ______ ____
ROOT
ATOM      1  C   UNL     1      36.592   4.294  15.314  0.00  0.00    +0.000 C 
ATOM      2  C   UNL     1      36.679   5.465  14.663  0.00  0.00    +0.000 C 
ATOM      3  C   UNL     1      37.729   6.238  15.325  0.00  0.00    +0.000 C 
ATOM      4  O   UNL     1      38.106   7.415  14.990  0.00  0.00    +0.000 OA
ATOM      5  N   UNL     1      38.288   5.500  16.406  0.00  0.00    +0.000 N 
ATOM      6  C   UNL     1      37.552   4.249  16.393  0.00  0.00    +0.000 C 
ATOM      7  O   UNL     1      37.813   3.347  17.250  0.00  0.00    +0.000 OA
ENDROOT
BRANCH   5   8
ATOM      8  C   UNL     1      39.312   5.853  17.304  0.00  0.00    +0.000 A 
ATOM      9  C   UNL     1      40.604   6.093  16.818  0.00  0.00    +0.000 A 
ATOM     10  C   UNL     1      41.606   6.439  17.685  0.00  0.00    +0.000 A 
ATOM     11  C   UNL     1      41.409   6.566  19.048  0.00  0.00    +0.000 A 
ATOM     12  C   UNL     1      40.146   6.330  19.520  0.00  0.00    +0.000 A 
ATOM     13  C   UNL     1      39.127   5.980  18.649  0.00  0.00    +0.000 A 
BRANCH  11  14
ATOM     14  C   UNL     1      42.544   6.948  19.911  0.00  0.00    +0.000 C 
ATOM     15  C   UNL     1      42.676   5.935  21.027  0.00  0.00    +0.000 C 
ATOM     16  C   UNL     1      43.813   6.892  19.091  0.00  0.00    +0.000 C 
ENDBRANCH  11  14
ENDBRANCH   5   8
BRANCH   1  17
ATOM     17  N   UNL     1      35.659   3.291  14.972  0.00  0.00    +0.000 NA
BRANCH  17  21
ATOM     18  C   UNL     1      35.560  -0.656  16.486  0.00  0.00    +0.000 A 
ATOM     19  C   UNL     1      36.305  -0.361  15.377  0.00  0.00    +0.000 A 
ATOM     20  C   UNL     1      36.331   0.908  14.875  0.00  0.00    +0.000 A 
ATOM     21  C   UNL     1      35.633   1.960  15.425  0.00  0.00    +0.000 A 
ATOM     22  C   UNL     1      34.876   1.638  16.558  0.00  0.00    +0.000 A 
ATOM     23  C   UNL     1      34.834   0.377  17.079  0.00  0.00    +0.000 A 
BRANCH  18  24
ATOM     24  O   UNL     1      35.470  -1.899  17.066  0.00  0.00    +0.000 OA
BRANCH  24  26
ATOM     25  C   UNL     1      37.043  -1.615  18.911  0.00  0.00    +0.000 C 
ATOM     26  C   UNL     1      36.495  -2.515  17.800  0.00  0.00    +0.000 C 
ENDBRANCH  24  26
ENDBRANCH  18  24
ENDBRANCH  17  21
ENDBRANCH   1  17
BRANCH   2  27
ATOM     27  S   UNL     1      35.687   6.002  13.282  0.00  0.00    +0.000 S 
BRANCH  27  28
ATOM     28  C   UNL     1      35.026   7.653  13.525  0.00  0.00    +0.000 A 
ATOM     29  C   UNL     1      34.352   8.076  14.629  0.00  0.00    +0.000 A 
ATOM     30  C   UNL     1      33.944   9.419  14.665  0.00  0.00    +0.000 A 
ATOM     31  C   UNL     1      34.213  10.268  13.632  0.00  0.00    +0.000 A 
ATOM     32  C   UNL     1      34.900   9.855  12.493  0.00  0.00    +0.000 A 
ATOM     33  C   UNL     1      35.291   8.540  12.473  0.00  0.00    +0.000 A 
ENDBRANCH  27  28
ENDBRANCH   2  27
TORSDOF 8
ENDMDL
MODEL 5
REMARK VINA RESULT:      -8.0      2.933      3.853
REMARK  Name = 
REMARK  8 active torsions:
REMARK  status: ('A' for Active; 'I' for Inactive)
REMARK    1  A    between atoms: C_2  and  O_3
REMARK    2  A    between atoms: O_3  and  C_4
REMARK    3  A    between atoms: C_7  and  N_8
REMARK    4  A    between atoms: N_8  and  C_9
REMARK    5  A    between atoms: C_10  and  S_11
REMARK    6  A    between atoms: S_11  and  C_12
REMARK    7  A    between atoms: N_20  and  C_21
REMARK    8  A    between atoms: C_24  and  C_25
REMARK                            x       y       z     vdW  Elec       q    Type
REMARK                         _______ _______ _______ _____ _____    ______ ____
ROOT
ATOM      1  C   UNL     1      36.927   5.792  14.837  0.00  0.00    +0.000 C 
ATOM      2  C   UNL     1      37.914   5.685  15.742  0.00  0.00    +0.000 C 
ATOM      3  C   UNL     1      37.852   4.324  16.273  0.00  0.00    +0.000 C 
ATOM      4  O   UNL     1      38.633   3.839  17.163  0.00  0.00    +0.000 OA
ATOM      5  N   UNL     1      36.794   3.595  15.659  0.00  0.00    +0.000 N 
ATOM      6  C   UNL     1      36.204   4.546  14.735  0.00  0.00    +0.000 C 
ATOM      7  O   UNL     1      35.215   4.204  14.013  0.00  0.00    +0.000 OA
ENDROOT
BRANCH   5   8
ATOM      8  C   UNL     1      36.378   2.266  15.863  0.00  0.00    +0.000 A 
ATOM      9  C   UNL     1      35.300   2.004  16.718  0.00  0.00    +0.000 A 
ATOM     10  C   UNL     1      34.888   0.713  16.920  0.00  0.00    +0.000 A 
ATOM     11  C   UNL     1      35.494  -0.371  16.314  0.00  0.00    +0.000 A 
ATOM     12  C   UNL     1      36.548  -0.112  15.480  0.00  0.00    +0.000 A 
ATOM     13  C   UNL     1      36.969   1.190  15.270  0.00  0.00    +0.000 A 
BRANCH  11  14
ATOM     14  C   UNL     1      34.982  -1.730  16.585  0.00  0.00    +0.000 C 
ATOM     15  C   UNL     1      36.030  -2.505  17.354  0.00  0.00    +0.000 C 
ATOM     16  C   UNL     1      33.759  -1.618  17.465  0.00  0.00    +0.000 C 
ENDBRANCH  11  14
ENDBRANCH   5   8
BRANCH   1  17
ATOM     17  N   UNL     1      36.659   6.985  14.130  0.00  0.00    +0.000 NA
BRANCH  17  21
ATOM     18  C   UNL     1      34.237  10.208  15.408  0.00  0.00    +0.000 A 
ATOM     19  C   UNL     1      33.671   9.001  15.095  0.00  0.00    +0.000 A 
ATOM     20  C   UNL     1      34.446   7.961  14.669  0.00  0.00    +0.000 A 
ATOM     21  C   UNL     1      35.813   8.037  14.525  0.00  0.00    +0.000 A 
ATOM     22  C   UNL     1      36.372   9.280  14.849  0.00  0.00    +0.000 A 
ATOM     23  C   UNL     1      35.619  10.335  15.277  0.00  0.00    +0.000 A 
BRANCH  18  24
ATOM     24  O   UNL     1      33.544  11.312  15.845  0.00  0.00    +0.000 OA
BRANCH  24  26
ATOM     25  C   UNL     1      33.117  13.397  14.651  0.00  0.00    +0.000 C 
ATOM     26  C   UNL     1      33.965  12.639  15.675  0.00  0.00    +0.000 C 
ENDBRANCH  24  26
ENDBRANCH  18  24
ENDBRANCH  17  21
ENDBRANCH   1  17
BRANCH   2  27
ATOM     27  S   UNL     1      39.057   6.959  16.240  0.00  0.00    +0.000 S 
BRANCH  27  28
ATOM     28  C   UNL     1      38.963   7.304  17.999  0.00  0.00    +0.000 A 
ATOM     29  C   UNL     1      39.799   6.797  18.946  0.00  0.00    +0.000 A 
ATOM     30  C   UNL     1      39.604   7.212  20.273  0.00  0.00    +0.000 A 
ATOM     31  C   UNL     1      38.613   8.090  20.601  0.00  0.00    +0.000 A 
ATOM     32  C   UNL     1      37.747   8.620  19.648  0.00  0.00    +0.000 A 
ATOM     33  C   UNL     1      37.951   8.204  18.356  0.00  0.00    +0.000 A 
ENDBRANCH  27  28
ENDBRANCH   2  27
TORSDOF 8
ENDMDL
MODEL 6
REMARK VINA RESULT:      -7.9      2.753      7.270
REMARK  Name = 
REMARK  8 active torsions:
REMARK  status: ('A' for Active; 'I' for Inactive)
REMARK    1  A    between atoms: C_2  and  O_3
REMARK    2  A    between atoms: O_3  and  C_4
REMARK    3  A    between atoms: C_7  and  N_8
REMARK    4  A    between atoms: N_8  and  C_9
REMARK    5  A    between atoms: C_10  and  S_11
REMARK    6  A    between atoms: S_11  and  C_12
REMARK    7  A    between atoms: N_20  and  C_21
REMARK    8  A    between atoms: C_24  and  C_25
REMARK                            x       y       z     vdW  Elec       q    Type
REMARK                         _______ _______ _______ _____ _____    ______ ____
ROOT
ATOM      1  C   UNL     1      37.870   5.630  16.090  0.00  0.00    +0.000 C 
ATOM      2  C   UNL     1      37.174   5.747  14.947  0.00  0.00    +0.000 C 
ATOM      3  C   UNL     1      36.521   4.459  14.718  0.00  0.00    +0.000 C 
ATOM      4  O   UNL     1      35.766   4.177  13.724  0.00  0.00    +0.000 OA
ATOM      5  N   UNL     1      36.837   3.545  15.763  0.00  0.00    +0.000 N 
ATOM      6  C   UNL     1      37.705   4.305  16.643  0.00  0.00    +0.000 C 
ATOM      7  O   UNL     1      38.173   3.769  17.696  0.00  0.00    +0.000 OA
ENDROOT
BRANCH   5   8
ATOM      8  C   UNL     1      36.430   2.211  15.947  0.00  0.00    +0.000 A 
ATOM      9  C   UNL     1      35.289   1.936  16.712  0.00  0.00    +0.000 A 
ATOM     10  C   UNL     1      34.885   0.640  16.894  0.00  0.00    +0.000 A 
ATOM     11  C   UNL     1      35.558  -0.439  16.352  0.00  0.00    +0.000 A 
ATOM     12  C   UNL     1      36.673  -0.168  15.605  0.00  0.00    +0.000 A 
ATOM     13  C   UNL     1      37.087   1.140  15.417  0.00  0.00    +0.000 A 
BRANCH  11  14
ATOM     14  C   UNL     1      35.051  -1.804  16.594  0.00  0.00    +0.000 C 
ATOM     15  C   UNL     1      36.066  -2.567  17.418  0.00  0.00    +0.000 C 
ATOM     16  C   UNL     1      33.780  -1.709  17.407  0.00  0.00    +0.000 C 
ENDBRANCH  11  14
ENDBRANCH   5   8
BRANCH   1  17
ATOM     17  N   UNL     1      38.659   6.675  16.620  0.00  0.00    +0.000 NA
BRANCH  17  21
ATOM     18  C   UNL     1      41.420   6.508  19.819  0.00  0.00    +0.000 A 
ATOM     19  C   UNL     1      41.852   6.378  18.527  0.00  0.00    +0.000 A 
ATOM     20  C   UNL     1      40.964   6.418  17.490  0.00  0.00    +0.000 A 
ATOM     21  C   UNL     1      39.608   6.586  17.654  0.00  0.00    +0.000 A 
ATOM     22  C   UNL     1      39.185   6.716  18.983  0.00  0.00    +0.000 A 
ATOM     23  C   UNL     1      40.053   6.680  20.036  0.00  0.00    +0.000 A 
BRANCH  18  24
ATOM     24  O   UNL     1      42.233   6.483  20.927  0.00  0.00    +0.000 OA
BRANCH  24  26
ATOM     25  C   UNL     1      44.171   5.804  22.247  0.00  0.00    +0.000 C 
ATOM     26  C   UNL     1      43.619   6.268  20.896  0.00  0.00    +0.000 C 
ENDBRANCH  24  26
ENDBRANCH  18  24
ENDBRANCH  17  21
ENDBRANCH   1  17
BRANCH   2  27
ATOM     27  S   UNL     1      37.087   7.176  13.885  0.00  0.00    +0.000 S 
BRANCH  27  28
ATOM     28  C   UNL     1      35.841   8.349  14.429  0.00  0.00    +0.000 A 
ATOM     29  C   UNL     1      34.514   8.079  14.569  0.00  0.00    +0.000 A 
ATOM     30  C   UNL     1      33.690   9.108  15.050  0.00  0.00    +0.000 A 
ATOM     31  C   UNL     1      34.200  10.334  15.364  0.00  0.00    +0.000 A 
ATOM     32  C   UNL     1      35.554  10.631  15.228  0.00  0.00    +0.000 A 
ATOM     33  C   UNL     1      36.345   9.614  14.756  0.00  0.00    +0.000 A 
ENDBRANCH  27  28
ENDBRANCH   2  27
TORSDOF 8
ENDMDL
MODEL 7
REMARK VINA RESULT:      -7.8      2.180      7.384
REMARK  Name = 
REMARK  8 active torsions:
REMARK  status: ('A' for Active; 'I' for Inactive)
REMARK    1  A    between atoms: C_2  and  O_3
REMARK    2  A    between atoms: O_3  and  C_4
REMARK    3  A    between atoms: C_7  and  N_8
REMARK    4  A    between atoms: N_8  and  C_9
REMARK    5  A    between atoms: C_10  and  S_11
REMARK    6  A    between atoms: S_11  and  C_12
REMARK    7  A    between atoms: N_20  and  C_21
REMARK    8  A    between atoms: C_24  and  C_25
REMARK                            x       y       z     vdW  Elec       q    Type
REMARK                         _______ _______ _______ _____ _____    ______ ____
ROOT
ATOM      1  C   UNL     1      37.815   5.286  16.259  0.00  0.00    +0.000 C 
ATOM      2  C   UNL     1      37.356   5.302  14.996  0.00  0.00    +0.000 C 
ATOM      3  C   UNL     1      36.776   3.984  14.742  0.00  0.00    +0.000 C 
ATOM      4  O   UNL     1      36.235   3.612  13.643  0.00  0.00    +0.000 OA
ATOM      5  N   UNL     1      36.892   3.156  15.894  0.00  0.00    +0.000 N 
ATOM      6  C   UNL     1      37.560   4.000  16.867  0.00  0.00    +0.000 C 
ATOM      7  O   UNL     1      37.819   3.553  18.028  0.00  0.00    +0.000 OA
ENDROOT
BRANCH   5   8
ATOM      8  C   UNL     1      36.473   1.828  16.094  0.00  0.00    +0.000 A 
ATOM      9  C   UNL     1      35.321   1.574  16.852  0.00  0.00    +0.000 A 
ATOM     10  C   UNL     1      34.905   0.284  17.050  0.00  0.00    +0.000 A 
ATOM     11  C   UNL     1      35.576  -0.808  16.532  0.00  0.00    +0.000 A 
ATOM     12  C   UNL     1      36.701  -0.557  15.793  0.00  0.00    +0.000 A 
ATOM     13  C   UNL     1      37.127   0.744  15.588  0.00  0.00    +0.000 A 
BRANCH  11  14
ATOM     14  C   UNL     1      35.056  -2.166  16.790  0.00  0.00    +0.000 C 
ATOM     15  C   UNL     1      33.588  -2.070  17.148  0.00  0.00    +0.000 C 
ATOM     16  C   UNL     1      35.164  -2.973  15.516  0.00  0.00    +0.000 C 
ENDBRANCH  11  14
ENDBRANCH   5   8
BRANCH   1  17
ATOM     17  N   UNL     1      38.471   6.386  16.852  0.00  0.00    +0.000 NA
BRANCH  17  21
ATOM     18  C   UNL     1      42.050   6.423  19.106  0.00  0.00    +0.000 A 
ATOM     19  C   UNL     1      42.095   6.469  17.739  0.00  0.00    +0.000 A 
ATOM     20  C   UNL     1      40.944   6.444  17.005  0.00  0.00    +0.000 A 
ATOM     21  C   UNL     1      39.687   6.373  17.560  0.00  0.00    +0.000 A 
ATOM     22  C   UNL     1      39.661   6.326  18.960  0.00  0.00    +0.000 A 
ATOM     23  C   UNL     1      40.798   6.350  19.716  0.00  0.00    +0.000 A 
BRANCH  18  24
ATOM     24  O   UNL     1      43.149   6.444  19.931  0.00  0.00    +0.000 OA
BRANCH  24  26
ATOM     25  C   UNL     1      44.021   5.887  22.141  0.00  0.00    +0.000 C 
ATOM     26  C   UNL     1      43.123   6.788  21.291  0.00  0.00    +0.000 C 
ENDBRANCH  24  26
ENDBRANCH  18  24
ENDBRANCH  17  21
ENDBRANCH   1  17
BRANCH   2  27
ATOM     27  S   UNL     1      37.462   6.649  13.833  0.00  0.00    +0.000 S 
BRANCH  27  28
ATOM     28  C   UNL     1      35.935   6.874  12.917  0.00  0.00    +0.000 A 
ATOM     29  C   UNL     1      34.681   6.774  13.439  0.00  0.00    +0.000 A 
ATOM     30  C   UNL     1      33.599   7.026  12.582  0.00  0.00    +0.000 A 
ATOM     31  C   UNL     1      33.796   7.359  11.273  0.00  0.00    +0.000 A 
ATOM     32  C   UNL     1      35.069   7.466  10.719  0.00  0.00    +0.000 A 
ATOM     33  C   UNL     1      36.116   7.215  11.570  0.00  0.00    +0.000 A 
ENDBRANCH  27  28
ENDBRANCH   2  27
TORSDOF 8
ENDMDL
MODEL 8
REMARK VINA RESULT:      -7.8      1.683      6.648
REMARK  Name = 
REMARK  8 active torsions:
REMARK  status: ('A' for Active; 'I' for Inactive)
REMARK    1  A    between atoms: C_2  and  O_3
REMARK    2  A    between atoms: O_3  and  C_4
REMARK    3  A    between atoms: C_7  and  N_8
REMARK    4  A    between atoms: N_8  and  C_9
REMARK    5  A    between atoms: C_10  and  S_11
REMARK    6  A    between atoms: S_11  and  C_12
REMARK    7  A    between atoms: N_20  and  C_21
REMARK    8  A    between atoms: C_24  and  C_25
REMARK                            x       y       z     vdW  Elec       q    Type
REMARK                         _______ _______ _______ _____ _____    ______ ____
ROOT
ATOM      1  C   UNL     1      36.395   5.043  14.707  0.00  0.00    +0.000 C 
ATOM      2  C   UNL     1      36.874   3.788  14.729  0.00  0.00    +0.000 C 
ATOM      3  C   UNL     1      38.096   3.817  15.532  0.00  0.00    +0.000 C 
ATOM      4  O   UNL     1      38.842   2.808  15.784  0.00  0.00    +0.000 OA
ATOM      5  N   UNL     1      38.351   5.135  16.007  0.00  0.00    +0.000 N 
ATOM      6  C   UNL     1      37.253   5.919  15.473  0.00  0.00    +0.000 C 
ATOM      7  O   UNL     1      37.180   7.164  15.718  0.00  0.00    +0.000 OA
ENDROOT
BRANCH   5   8
ATOM      8  C   UNL     1      39.404   5.616  16.807  0.00  0.00    +0.000 A 
ATOM      9  C   UNL     1      39.256   5.643  18.200  0.00  0.00    +0.000 A 
ATOM     10  C   UNL     1      40.277   6.108  18.986  0.00  0.00    +0.000 A 
ATOM     11  C   UNL     1      41.475   6.565  18.468  0.00  0.00    +0.000 A 
ATOM     12  C   UNL     1      41.616   6.539  17.106  0.00  0.00    +0.000 A 
ATOM     13  C   UNL     1      40.589   6.069  16.305  0.00  0.00    +0.000 A 
BRANCH  11  14
ATOM     14  C   UNL     1      42.525   7.045  19.387  0.00  0.00    +0.000 C 
ATOM     15  C   UNL     1      42.496   6.206  20.647  0.00  0.00    +0.000 C 
ATOM     16  C   UNL     1      43.871   6.838  18.731  0.00  0.00    +0.000 C 
ENDBRANCH  11  14
ENDBRANCH   5   8
BRANCH   1  17
ATOM     17  N   UNL     1      35.230   5.409  13.999  0.00  0.00    +0.000 NA
BRANCH  17  21
ATOM     18  C   UNL     1      34.850   7.191  10.182  0.00  0.00    +0.000 A 
ATOM     19  C   UNL     1      35.875   6.320  10.438  0.00  0.00    +0.000 A 
ATOM     20  C   UNL     1      36.011   5.751  11.672  0.00  0.00    +0.000 A 
ATOM     21  C   UNL     1      35.158   5.999  12.724  0.00  0.00    +0.000 A 
ATOM     22  C   UNL     1      34.117   6.893  12.442  0.00  0.00    +0.000 A 
ATOM     23  C   UNL     1      33.960   7.474  11.217  0.00  0.00    +0.000 A 
BRANCH  18  24
ATOM     24  O   UNL     1      34.629   7.812   8.976  0.00  0.00    +0.000 OA
BRANCH  24  26
ATOM     25  C   UNL     1      33.689   8.011   6.732  0.00  0.00    +0.000 C 
ATOM     26  C   UNL     1      34.423   7.145   7.759  0.00  0.00    +0.000 C 
ENDBRANCH  24  26
ENDBRANCH  18  24
ENDBRANCH  17  21
ENDBRANCH   1  17
BRANCH   2  27
ATOM     27  S   UNL     1      36.185   2.362  13.911  0.00  0.00    +0.000 S 
BRANCH  27  28
ATOM     28  C   UNL     1      35.865   1.014  15.053  0.00  0.00    +0.000 A 
ATOM     29  C   UNL     1      36.290  -0.269  14.896  0.00  0.00    +0.000 A 
ATOM     30  C   UNL     1      35.984  -1.184  15.915  0.00  0.00    +0.000 A 
ATOM     31  C   UNL     1      35.285  -0.801  17.022  0.00  0.00    +0.000 A 
ATOM     32  C   UNL     1      34.841   0.506  17.203  0.00  0.00    +0.000 A 
ATOM     33  C   UNL     1      35.147   1.387  16.197  0.00  0.00    +0.000 A 
ENDBRANCH  27  28
ENDBRANCH   2  27
TORSDOF 8
ENDMDL
MODEL 9
REMARK VINA RESULT:      -7.7      2.903      7.334
REMARK  Name = 
REMARK  8 active torsions:
REMARK  status: ('A' for Active; 'I' for Inactive)
REMARK    1  A    between atoms: C_2  and  O_3
REMARK    2  A    between atoms: O_3  and  C_4
REMARK    3  A    between atoms: C_7  and  N_8
REMARK    4  A    between atoms: N_8  and  C_9
REMARK    5  A    between atoms: C_10  and  S_11
REMARK    6  A    between atoms: S_11  and  C_12
REMARK    7  A    between atoms: N_20  and  C_21
REMARK    8  A    between atoms: C_24  and  C_25
REMARK                            x       y       z     vdW  Elec       q    Type
REMARK                         _______ _______ _______ _____ _____    ______ ____
ROOT
ATOM      1  C   UNL     1      37.025   6.045  14.786  0.00  0.00    +0.000 C 
ATOM      2  C   UNL     1      37.125   4.726  15.025  0.00  0.00    +0.000 C 
ATOM      3  C   UNL     1      38.042   4.571  16.153  0.00  0.00    +0.000 C 
ATOM      4  O   UNL     1      38.391   3.457  16.676  0.00  0.00    +0.000 OA
ATOM      5  N   UNL     1      38.501   5.842  16.603  0.00  0.00    +0.000 N 
ATOM      6  C   UNL     1      37.842   6.786  15.720  0.00  0.00    +0.000 C 
ATOM      7  O   UNL     1      38.041   8.034  15.857  0.00  0.00    +0.000 OA
ENDROOT
BRANCH   5   8
ATOM      8  C   UNL     1      39.383   6.161  17.652  0.00  0.00    +0.000 A 
ATOM      9  C   UNL     1      40.760   6.228  17.399  0.00  0.00    +0.000 A 
ATOM     10  C   UNL     1      41.625   6.540  18.414  0.00  0.00    +0.000 A 
ATOM     11  C   UNL     1      41.205   6.797  19.706  0.00  0.00    +0.000 A 
ATOM     12  C   UNL     1      39.860   6.730  19.950  0.00  0.00    +0.000 A 
ATOM     13  C   UNL     1      38.979   6.416  18.929  0.00  0.00    +0.000 A 
BRANCH  11  14
ATOM     14  C   UNL     1      42.206   7.131  20.739  0.00  0.00    +0.000 C 
ATOM     15  C   UNL     1      43.295   6.080  20.726  0.00  0.00    +0.000 C 
ATOM     16  C   UNL     1      42.844   8.454  20.382  0.00  0.00    +0.000 C 
ENDBRANCH  11  14
ENDBRANCH   5   8
BRANCH   1  17
ATOM     17  N   UNL     1      36.240   6.579  13.740  0.00  0.00    +0.000 NA
BRANCH  17  21
ATOM     18  C   UNL     1      34.158  10.260  13.732  0.00  0.00    +0.000 A 
ATOM     19  C   UNL     1      33.814   9.275  14.618  0.00  0.00    +0.000 A 
ATOM     20  C   UNL     1      34.474   8.079  14.617  0.00  0.00    +0.000 A 
ATOM     21  C   UNL     1      35.503   7.777  13.755  0.00  0.00    +0.000 A 
ATOM     22  C   UNL     1      35.839   8.797  12.856  0.00  0.00    +0.000 A 
ATOM     23  C   UNL     1      35.195  10.000  12.837  0.00  0.00    +0.000 A 
BRANCH  18  24
ATOM     24  O   UNL     1      33.557  11.494  13.656  0.00  0.00    +0.000 OA
BRANCH  24  26
ATOM     25  C   UNL     1      32.896  13.681  14.513  0.00  0.00    +0.000 C 
ATOM     26  C   UNL     1      34.007  12.645  14.319  0.00  0.00    +0.000 C 
ENDBRANCH  24  26
ENDBRANCH  18  24
ENDBRANCH  17  21
ENDBRANCH   1  17
BRANCH   2  27
ATOM     27  S   UNL     1      36.330   3.409  14.123  0.00  0.00    +0.000 S 
BRANCH  27  28
ATOM     28  C   UNL     1      35.840   2.055  15.196  0.00  0.00    +0.000 A 
ATOM     29  C   UNL     1      35.063   2.173  16.307  0.00  0.00    +0.000 A 
ATOM     30  C   UNL     1      34.742   0.997  17.003  0.00  0.00    +0.000 A 
ATOM     31  C   UNL     1      35.193  -0.219  16.581  0.00  0.00    +0.000 A 
ATOM     32  C   UNL     1      35.990  -0.362  15.447  0.00  0.00    +0.000 A 
ATOM     33  C   UNL     1      36.294   0.797  14.779  0.00  0.00    +0.000 A 
ENDBRANCH  27  28
ENDBRANCH   2  27
TORSDOF 8
ENDMDL
MODEL 10
REMARK VINA RESULT:      -7.6      2.233      8.577
REMARK  Name = 
REMARK  8 active torsions:
REMARK  status: ('A' for Active; 'I' for Inactive)
REMARK    1  A    between atoms: C_2  and  O_3
REMARK    2  A    between atoms: O_3  and  C_4
REMARK    3  A    between atoms: C_7  and  N_8
REMARK    4  A    between atoms: N_8  and  C_9
REMARK    5  A    between atoms: C_10  and  S_11
REMARK    6  A    between atoms: S_11  and  C_12
REMARK    7  A    between atoms: N_20  and  C_21
REMARK    8  A    between atoms: C_24  and  C_25
REMARK                            x       y       z     vdW  Elec       q    Type
REMARK                         _______ _______ _______ _____ _____    ______ ____
ROOT
ATOM      1  C   UNL     1      36.484   4.301  15.216  0.00  0.00    +0.000 C 
ATOM      2  C   UNL     1      36.434   5.536  14.689  0.00  0.00    +0.000 C 
ATOM      3  C   UNL     1      37.455   6.327  15.375  0.00  0.00    +0.000 C 
ATOM      4  O   UNL     1      37.713   7.560  15.148  0.00  0.00    +0.000 OA
ATOM      5  N   UNL     1      38.138   5.535  16.340  0.00  0.00    +0.000 N 
ATOM      6  C   UNL     1      37.509   4.232  16.233  0.00  0.00    +0.000 C 
ATOM      7  O   UNL     1      37.895   3.274  16.973  0.00  0.00    +0.000 OA
ENDROOT
BRANCH   5   8
ATOM      8  C   UNL     1      39.183   5.884  17.216  0.00  0.00    +0.000 A 
ATOM      9  C   UNL     1      40.477   6.065  16.710  0.00  0.00    +0.000 A 
ATOM     10  C   UNL     1      41.499   6.407  17.555  0.00  0.00    +0.000 A 
ATOM     11  C   UNL     1      41.321   6.585  18.914  0.00  0.00    +0.000 A 
ATOM     12  C   UNL     1      40.055   6.407  19.406  0.00  0.00    +0.000 A 
ATOM     13  C   UNL     1      39.017   6.062  18.558  0.00  0.00    +0.000 A 
BRANCH  11  14
ATOM     14  C   UNL     1      42.477   6.959  19.753  0.00  0.00    +0.000 C 
ATOM     15  C   UNL     1      42.253   8.348  20.309  0.00  0.00    +0.000 C 
ATOM     16  C   UNL     1      42.551   6.004  20.923  0.00  0.00    +0.000 C 
ENDBRANCH  11  14
ENDBRANCH   5   8
BRANCH   1  17
ATOM     17  N   UNL     1      35.617   3.260  14.818  0.00  0.00    +0.000 NA
BRANCH  17  21
ATOM     18  C   UNL     1      35.427  -0.602  16.530  0.00  0.00    +0.000 A 
ATOM     19  C   UNL     1      36.136  -0.392  15.378  0.00  0.00    +0.000 A 
ATOM     20  C   UNL     1      36.191   0.850  14.814  0.00  0.00    +0.000 A 
ATOM     21  C   UNL     1      35.558   1.954  15.338  0.00  0.00    +0.000 A 
ATOM     22  C   UNL     1      34.837   1.719  16.515  0.00  0.00    +0.000 A 
ATOM     23  C   UNL     1      34.768   0.487  17.099  0.00  0.00    +0.000 A 
BRANCH  18  24
ATOM     24  O   UNL     1      35.313  -1.811  17.174  0.00  0.00    +0.000 OA
BRANCH  24  26
ATOM     25  C   UNL     1      37.093  -1.985  18.835  0.00  0.00    +0.000 C 
ATOM     26  C   UNL     1      36.396  -2.589  17.614  0.00  0.00    +0.000 C 
ENDBRANCH  24  26
ENDBRANCH  18  24
ENDBRANCH  17  21
ENDBRANCH   1  17
BRANCH   2  27
ATOM     27  S   UNL     1      35.319   6.120  13.428  0.00  0.00    +0.000 S 
BRANCH  27  28
ATOM     28  C   UNL     1      35.917   5.759  11.774  0.00  0.00    +0.000 A 
ATOM     29  C   UNL     1      35.618   6.473  10.655  0.00  0.00    +0.000 A 
ATOM     30  C   UNL     1      36.213   6.070   9.449  0.00  0.00    +0.000 A 
ATOM     31  C   UNL     1      37.060   5.002   9.401  0.00  0.00    +0.000 A 
ATOM     32  C   UNL     1      37.379   4.258  10.534  0.00  0.00    +0.000 A 
ATOM     33  C   UNL     1      36.789   4.664  11.704  0.00  0.00    +0.000 A 
ENDBRANCH  27  28
ENDBRANCH   2  27
TORSDOF 8
ENDMDL
