MODEL 1
REMARK VINA RESULT:      -7.4      0.000      0.000
REMARK  Name = 
REMARK  9 active torsions:
REMARK  status: ('A' for Active; 'I' for Inactive)
REMARK    1  A    between atoms: C_2  and  C_3
REMARK    2  A    between atoms: C_9  and  N_10
REMARK    3  A    between atoms: C_11  and  C_13
REMARK    4  A    between atoms: C_13  and  O_14
REMARK    5  A    between atoms: O_14  and  C_15
REMARK    6  A    between atoms: C_15  and  C_17
REMARK    7  A    between atoms: C_17  and  S_18
REMARK    8  A    between atoms: C_17  and  C_25
REMARK    9  A    between atoms: S_18  and  C_19
REMARK                            x       y       z     vdW  Elec       q    Type
REMARK                         _______ _______ _______ _____ _____    ______ ____
ROOT
ATOM      1  C   UNL     1      36.644   3.627  15.645  0.00  0.00    +0.000 C 
ATOM      2  O   UNL     1      36.371   4.397  14.718  0.00  0.00    +0.000 OA
ENDROOT
BRANCH   1   3
ATOM      3  O   UNL     1      35.790   2.596  16.000  0.00  0.00    +0.000 OA
BRANCH   3   4
ATOM      4  C   UNL     1      35.712   1.491  15.154  0.00  0.00    +0.000 C 
BRANCH   4   6
ATOM      5  N   UNL     1      37.345   0.131  16.575  0.00  0.00    +0.000 NA
ATOM      6  C   UNL     1      36.197   0.243  15.737  0.00  0.00    +0.000 C 
ATOM      7  O   UNL     1      35.568  -0.818  15.493  0.00  0.00    +0.000 OA
BRANCH   5  14
ATOM      8  C   UNL     1      38.679  -1.900  16.434  0.00  0.00    +0.000 A 
ATOM      9  C   UNL     1      39.144  -3.106  16.925  0.00  0.00    +0.000 A 
ATOM     10  C   UNL     1      38.715  -3.540  18.156  0.00  0.00    +0.000 A 
ATOM     11  C   UNL     1      37.832  -2.766  18.875  0.00  0.00    +0.000 A 
ATOM     12  C   UNL     1      37.373  -1.549  18.362  0.00  0.00    +0.000 A 
ATOM     13  C   UNL     1      36.419  -0.688  19.115  0.00  0.00    +0.000 C 
ATOM     14  C   UNL     1      37.794  -1.101  17.130  0.00  0.00    +0.000 A 
BRANCH   8  16
ATOM     15  C   UNL     1      38.553  -2.261  14.001  0.00  0.00    +0.000 C 
ATOM     16  C   UNL     1      39.125  -1.389  15.092  0.00  0.00    +0.000 C 
ENDBRANCH   8  16
ENDBRANCH   5  14
ENDBRANCH   4   6
ENDBRANCH   3   4
ENDBRANCH   1   3
BRANCH   1  17
ATOM     17  C   UNL     1      37.958   3.866  16.374  0.00  0.00    +0.000 C 
BRANCH  17  18
ATOM     18  C   UNL     1      38.950   3.601  15.208  0.00  0.00    +0.000 A 
ATOM     19  C   UNL     1      39.168   2.389  14.684  0.00  0.00    +0.000 A 
ATOM     20  C   UNL     1      40.062   2.207  13.652  0.00  0.00    +0.000 A 
ATOM     21  C   UNL     1      40.743   3.307  13.152  0.00  0.00    +0.000 A 
ATOM     22  C   UNL     1      40.538   4.558  13.671  0.00  0.00    +0.000 A 
ATOM     23  C   UNL     1      39.635   4.691  14.701  0.00  0.00    +0.000 A 
ENDBRANCH  17  18
BRANCH  17  24
ATOM     24  S   UNL     1      38.012   5.752  16.353  0.00  0.00    +0.000 S 
BRANCH  24  25
ATOM     25  C   UNL     1      38.597   6.391  17.877  0.00  0.00    +0.000 A 
ATOM     26  C   UNL     1      38.058   7.498  18.459  0.00  0.00    +0.000 A 
ATOM     27  C   UNL     1      38.564   7.966  19.672  0.00  0.00    +0.000 A 
ATOM     28  C   UNL     1      39.605   7.332  20.302  0.00  0.00    +0.000 A 
ATOM     29  C   UNL     1      40.152   6.220  19.722  0.00  0.00    +0.000 A 
ATOM     30  C   UNL     1      39.638   5.777  18.531  0.00  0.00    +0.000 A 
ENDBRANCH  24  25
ENDBRANCH  17  24
ENDBRANCH   1  17
TORSDOF 9
ENDMDL
MODEL 2
REMARK VINA RESULT:      -7.4      2.674      4.464
REMARK  Name = 
REMARK  9 active torsions:
REMARK  status: ('A' for Active; 'I' for Inactive)
REMARK    1  A    between atoms: C_2  and  C_3
REMARK    2  A    between atoms: C_9  and  N_10
REMARK    3  A    between atoms: C_11  and  C_13
REMARK    4  A    between atoms: C_13  and  O_14
REMARK    5  A    between atoms: O_14  and  C_15
REMARK    6  A    between atoms: C_15  and  C_17
REMARK    7  A    between atoms: C_17  and  S_18
REMARK    8  A    between atoms: C_17  and  C_25
REMARK    9  A    between atoms: S_18  and  C_19
REMARK                            x       y       z     vdW  Elec       q    Type
REMARK                         _______ _______ _______ _____ _____    ______ ____
ROOT
ATOM      1  C   UNL     1      38.736   3.437  14.395  0.00  0.00    +0.000 C 
ATOM      2  O   UNL     1      38.946   3.723  13.213  0.00  0.00    +0.000 OA
ENDROOT
BRANCH   1   3
ATOM      3  O   UNL     1      39.410   2.398  15.017  0.00  0.00    +0.000 OA
BRANCH   3   4
ATOM      4  C   UNL     1      39.289   1.121  14.469  0.00  0.00    +0.000 C 
BRANCH   4   6
ATOM      5  N   UNL     1      37.794  -0.192  16.073  0.00  0.00    +0.000 NA
ATOM      6  C   UNL     1      38.052   0.426  14.815  0.00  0.00    +0.000 C 
ATOM      7  O   UNL     1      37.141   0.359  13.952  0.00  0.00    +0.000 OA
BRANCH   5  14
ATOM      8  C   UNL     1      35.532  -0.181  16.973  0.00  0.00    +0.000 A 
ATOM      9  C   UNL     1      34.330  -0.785  17.296  0.00  0.00    +0.000 A 
ATOM     10  C   UNL     1      34.155  -2.119  17.023  0.00  0.00    +0.000 A 
ATOM     11  C   UNL     1      35.177  -2.828  16.432  0.00  0.00    +0.000 A 
ATOM     12  C   UNL     1      36.386  -2.200  16.113  0.00  0.00    +0.000 A 
ATOM     13  C   UNL     1      37.511  -2.937  15.474  0.00  0.00    +0.000 C 
ATOM     14  C   UNL     1      36.576  -0.863  16.382  0.00  0.00    +0.000 A 
BRANCH   8  16
ATOM     15  C   UNL     1      34.898   2.114  16.344  0.00  0.00    +0.000 C 
ATOM     16  C   UNL     1      35.763   1.278  17.255  0.00  0.00    +0.000 C 
ENDBRANCH   8  16
ENDBRANCH   5  14
ENDBRANCH   4   6
ENDBRANCH   3   4
ENDBRANCH   1   3
BRANCH   1  17
ATOM     17  C   UNL     1      37.703   4.275  15.135  0.00  0.00    +0.000 C 
BRANCH  17  18
ATOM     18  C   UNL     1      38.615   4.896  16.230  0.00  0.00    +0.000 A 
ATOM     19  C   UNL     1      39.674   5.669  15.958  0.00  0.00    +0.000 A 
ATOM     20  C   UNL     1      40.453   6.193  16.967  0.00  0.00    +0.000 A 
ATOM     21  C   UNL     1      40.125   5.909  18.284  0.00  0.00    +0.000 A 
ATOM     22  C   UNL     1      39.047   5.121  18.588  0.00  0.00    +0.000 A 
ATOM     23  C   UNL     1      38.297   4.620  17.548  0.00  0.00    +0.000 A 
ENDBRANCH  17  18
BRANCH  17  24
ATOM     24  S   UNL     1      37.604   5.769  13.987  0.00  0.00    +0.000 S 
BRANCH  24  25
ATOM     25  C   UNL     1      36.134   6.686  14.256  0.00  0.00    +0.000 A 
ATOM     26  C   UNL     1      36.144   7.941  14.782  0.00  0.00    +0.000 A 
ATOM     27  C   UNL     1      34.943   8.625  14.979  0.00  0.00    +0.000 A 
ATOM     28  C   UNL     1      33.738   8.058  14.651  0.00  0.00    +0.000 A 
ATOM     29  C   UNL     1      33.722   6.795  14.123  0.00  0.00    +0.000 A 
ATOM     30  C   UNL     1      34.913   6.143  13.938  0.00  0.00    +0.000 A 
ENDBRANCH  24  25
ENDBRANCH  17  24
ENDBRANCH   1  17
TORSDOF 9
ENDMDL
MODEL 3
REMARK VINA RESULT:      -7.1      2.014      3.725
REMARK  Name = 
REMARK  9 active torsions:
REMARK  status: ('A' for Active; 'I' for Inactive)
REMARK    1  A    between atoms: C_2  and  C_3
REMARK    2  A    between atoms: C_9  and  N_10
REMARK    3  A    between atoms: C_11  and  C_13
REMARK    4  A    between atoms: C_13  and  O_14
REMARK    5  A    between atoms: O_14  and  C_15
REMARK    6  A    between atoms: C_15  and  C_17
REMARK    7  A    between atoms: C_17  and  S_18
REMARK    8  A    between atoms: C_17  and  C_25
REMARK    9  A    between atoms: S_18  and  C_19
REMARK                            x       y       z     vdW  Elec       q    Type
REMARK                         _______ _______ _______ _____ _____    ______ ____
ROOT
ATOM      1  C   UNL     1      39.215   3.915  15.018  0.00  0.00    +0.000 C 
ATOM      2  O   UNL     1      39.969   4.230  14.093  0.00  0.00    +0.000 OA
ENDROOT
BRANCH   1   3
ATOM      3  O   UNL     1      39.155   2.613  15.488  0.00  0.00    +0.000 OA
BRANCH   3   4
ATOM      4  C   UNL     1      39.139   1.580  14.551  0.00  0.00    +0.000 C 
BRANCH   4   6
ATOM      5  N   UNL     1      38.024  -0.496  15.542  0.00  0.00    +0.000 NA
ATOM      6  C   UNL     1      38.023   0.648  14.693  0.00  0.00    +0.000 C 
ATOM      7  O   UNL     1      36.980   0.858  14.024  0.00  0.00    +0.000 OA
BRANCH   5  14
ATOM      8  C   UNL     1      36.006  -1.237  16.683  0.00  0.00    +0.000 A 
ATOM      9  C   UNL     1      34.917  -2.076  16.844  0.00  0.00    +0.000 A 
ATOM     10  C   UNL     1      34.727  -3.106  15.955  0.00  0.00    +0.000 A 
ATOM     11  C   UNL     1      35.620  -3.282  14.923  0.00  0.00    +0.000 A 
ATOM     12  C   UNL     1      36.715  -2.423  14.776  0.00  0.00    +0.000 A 
ATOM     13  C   UNL     1      37.699  -2.586  13.670  0.00  0.00    +0.000 C 
ATOM     14  C   UNL     1      36.920  -1.387  15.659  0.00  0.00    +0.000 A 
BRANCH   8  16
ATOM     15  C   UNL     1      35.628  -0.413  18.973  0.00  0.00    +0.000 C 
ATOM     16  C   UNL     1      36.249  -0.098  17.633  0.00  0.00    +0.000 C 
ENDBRANCH   8  16
ENDBRANCH   5  14
ENDBRANCH   4   6
ENDBRANCH   3   4
ENDBRANCH   1   3
BRANCH   1  17
ATOM     17  C   UNL     1      38.356   5.021  15.613  0.00  0.00    +0.000 C 
BRANCH  17  18
ATOM     18  C   UNL     1      36.952   4.374  15.444  0.00  0.00    +0.000 A 
ATOM     19  C   UNL     1      36.146   4.621  14.404  0.00  0.00    +0.000 A 
ATOM     20  C   UNL     1      34.909   4.024  14.303  0.00  0.00    +0.000 A 
ATOM     21  C   UNL     1      34.500   3.151  15.300  0.00  0.00    +0.000 A 
ATOM     22  C   UNL     1      35.308   2.882  16.373  0.00  0.00    +0.000 A 
ATOM     23  C   UNL     1      36.535   3.501  16.433  0.00  0.00    +0.000 A 
ENDBRANCH  17  18
BRANCH  17  24
ATOM     24  S   UNL     1      38.593   4.673  17.452  0.00  0.00    +0.000 S 
BRANCH  24  25
ATOM     25  C   UNL     1      39.855   5.680  18.136  0.00  0.00    +0.000 A 
ATOM     26  C   UNL     1      40.934   6.088  17.413  0.00  0.00    +0.000 A 
ATOM     27  C   UNL     1      41.912   6.886  18.008  0.00  0.00    +0.000 A 
ATOM     28  C   UNL     1      41.812   7.276  19.320  0.00  0.00    +0.000 A 
ATOM     29  C   UNL     1      40.730   6.869  20.051  0.00  0.00    +0.000 A 
ATOM     30  C   UNL     1      39.782   6.085  19.446  0.00  0.00    +0.000 A 
ENDBRANCH  24  25
ENDBRANCH  17  24
ENDBRANCH   1  17
TORSDOF 9
ENDMDL
MODEL 4
REMARK VINA RESULT:      -7.1      3.409      5.421
REMARK  Name = 
REMARK  9 active torsions:
REMARK  status: ('A' for Active; 'I' for Inactive)
REMARK    1  A    between atoms: C_2  and  C_3
REMARK    2  A    between atoms: C_9  and  N_10
REMARK    3  A    between atoms: C_11  and  C_13
REMARK    4  A    between atoms: C_13  and  O_14
REMARK    5  A    between atoms: O_14  and  C_15
REMARK    6  A    between atoms: C_15  and  C_17
REMARK    7  A    between atoms: C_17  and  S_18
REMARK    8  A    between atoms: C_17  and  C_25
REMARK    9  A    between atoms: S_18  and  C_19
REMARK                            x       y       z     vdW  Elec       q    Type
REMARK                         _______ _______ _______ _____ _____    ______ ____
ROOT
ATOM      1  C   UNL     1      36.649   2.224  16.200  0.00  0.00    +0.000 C 
ATOM      2  O   UNL     1      37.595   2.937  16.548  0.00  0.00    +0.000 OA
ENDROOT
BRANCH   1   3
ATOM      3  O   UNL     1      35.674   1.829  17.102  0.00  0.00    +0.000 OA
BRANCH   3   4
ATOM      4  C   UNL     1      36.061   1.017  18.168  0.00  0.00    +0.000 C 
BRANCH   4   6
ATOM      5  N   UNL     1      37.265  -1.035  17.232  0.00  0.00    +0.000 NA
ATOM      6  C   UNL     1      36.145  -0.406  17.849  0.00  0.00    +0.000 C 
ATOM      7  O   UNL     1      35.167  -1.142  18.133  0.00  0.00    +0.000 OA
BRANCH   5  14
ATOM      8  C   UNL     1      37.955  -3.302  17.789  0.00  0.00    +0.000 A 
ATOM      9  C   UNL     1      38.037  -4.661  17.545  0.00  0.00    +0.000 A 
ATOM     10  C   UNL     1      37.465  -5.174  16.406  0.00  0.00    +0.000 A 
ATOM     11  C   UNL     1      36.822  -4.327  15.532  0.00  0.00    +0.000 A 
ATOM     12  C   UNL     1      36.749  -2.955  15.796  0.00  0.00    +0.000 A 
ATOM     13  C   UNL     1      36.061  -2.012  14.871  0.00  0.00    +0.000 C 
ATOM     14  C   UNL     1      37.317  -2.426  16.933  0.00  0.00    +0.000 A 
BRANCH   8  16
ATOM     15  C   UNL     1      38.921  -3.798  19.999  0.00  0.00    +0.000 C 
ATOM     16  C   UNL     1      38.566  -2.701  19.024  0.00  0.00    +0.000 C 
ENDBRANCH   8  16
ENDBRANCH   5  14
ENDBRANCH   4   6
ENDBRANCH   3   4
ENDBRANCH   1   3
BRANCH   1  17
ATOM     17  C   UNL     1      36.606   1.801  14.739  0.00  0.00    +0.000 C 
BRANCH  17  18
ATOM     18  C   UNL     1      36.293   3.175  14.084  0.00  0.00    +0.000 A 
ATOM     19  C   UNL     1      35.299   3.976  14.487  0.00  0.00    +0.000 A 
ATOM     20  C   UNL     1      35.062   5.184  13.869  0.00  0.00    +0.000 A 
ATOM     21  C   UNL     1      35.874   5.570  12.812  0.00  0.00    +0.000 A 
ATOM     22  C   UNL     1      36.897   4.767  12.382  0.00  0.00    +0.000 A 
ATOM     23  C   UNL     1      37.097   3.569  13.029  0.00  0.00    +0.000 A 
ENDBRANCH  17  18
BRANCH  17  24
ATOM     24  S   UNL     1      38.452   1.733  14.358  0.00  0.00    +0.000 S 
BRANCH  24  25
ATOM     25  C   UNL     1      38.968   0.099  13.984  0.00  0.00    +0.000 A 
ATOM     26  C   UNL     1      38.638  -0.521  12.818  0.00  0.00    +0.000 A 
ATOM     27  C   UNL     1      39.073  -1.824  12.573  0.00  0.00    +0.000 A 
ATOM     28  C   UNL     1      39.834  -2.506  13.490  0.00  0.00    +0.000 A 
ATOM     29  C   UNL     1      40.167  -1.888  14.664  0.00  0.00    +0.000 A 
ATOM     30  C   UNL     1      39.730  -0.608  14.883  0.00  0.00    +0.000 A 
ENDBRANCH  24  25
ENDBRANCH  17  24
ENDBRANCH   1  17
TORSDOF 9
ENDMDL
MODEL 5
REMARK VINA RESULT:      -7.0      1.981      3.195
REMARK  Name = 
REMARK  9 active torsions:
REMARK  status: ('A' for Active; 'I' for Inactive)
REMARK    1  A    between atoms: C_2  and  C_3
REMARK    2  A    between atoms: C_9  and  N_10
REMARK    3  A    between atoms: C_11  and  C_13
REMARK    4  A    between atoms: C_13  and  O_14
REMARK    5  A    between atoms: O_14  and  C_15
REMARK    6  A    between atoms: C_15  and  C_17
REMARK    7  A    between atoms: C_17  and  S_18
REMARK    8  A    between atoms: C_17  and  C_25
REMARK    9  A    between atoms: S_18  and  C_19
REMARK                            x       y       z     vdW  Elec       q    Type
REMARK                         _______ _______ _______ _____ _____    ______ ____
ROOT
ATOM      1  C   UNL     1      39.508   4.221  14.309  0.00  0.00    +0.000 C 
ATOM      2  O   UNL     1      40.070   4.401  13.225  0.00  0.00    +0.000 OA
ENDROOT
BRANCH   1   3
ATOM      3  O   UNL     1      39.328   2.948  14.824  0.00  0.00    +0.000 OA
BRANCH   3   4
ATOM      4  C   UNL     1      38.939   1.936  13.946  0.00  0.00    +0.000 C 
BRANCH   4   6
ATOM      5  N   UNL     1      37.704   0.809  15.879  0.00  0.00    +0.000 NA
ATOM      6  C   UNL     1      37.956   1.004  14.490  0.00  0.00    +0.000 C 
ATOM      7  O   UNL     1      37.275   0.316  13.688  0.00  0.00    +0.000 OA
BRANCH   5  14
ATOM      8  C   UNL     1      37.084  -1.421  16.630  0.00  0.00    +0.000 A 
ATOM      9  C   UNL     1      36.184  -2.354  17.114  0.00  0.00    +0.000 A 
ATOM     10  C   UNL     1      34.888  -1.972  17.359  0.00  0.00    +0.000 A 
ATOM     11  C   UNL     1      34.511  -0.670  17.120  0.00  0.00    +0.000 A 
ATOM     12  C   UNL     1      35.435   0.260  16.631  0.00  0.00    +0.000 A 
ATOM     13  C   UNL     1      35.059   1.676  16.363  0.00  0.00    +0.000 C 
ATOM     14  C   UNL     1      36.738  -0.109  16.380  0.00  0.00    +0.000 A 
BRANCH   8  16
ATOM     15  C   UNL     1      38.897  -2.989  17.196  0.00  0.00    +0.000 C 
ATOM     16  C   UNL     1      38.512  -1.800  16.350  0.00  0.00    +0.000 C 
ENDBRANCH   8  16
ENDBRANCH   5  14
ENDBRANCH   4   6
ENDBRANCH   3   4
ENDBRANCH   1   3
BRANCH   1  17
ATOM     17  C   UNL     1      39.023   5.459  15.048  0.00  0.00    +0.000 C 
BRANCH  17  18
ATOM     18  C   UNL     1      37.582   5.553  14.473  0.00  0.00    +0.000 A 
ATOM     19  C   UNL     1      36.593   4.721  14.821  0.00  0.00    +0.000 A 
ATOM     20  C   UNL     1      35.333   4.845  14.278  0.00  0.00    +0.000 A 
ATOM     21  C   UNL     1      35.094   5.853  13.356  0.00  0.00    +0.000 A 
ATOM     22  C   UNL     1      36.090   6.716  12.984  0.00  0.00    +0.000 A 
ATOM     23  C   UNL     1      37.333   6.555  13.552  0.00  0.00    +0.000 A 
ENDBRANCH  17  18
BRANCH  17  24
ATOM     24  S   UNL     1      38.596   4.701  16.723  0.00  0.00    +0.000 S 
BRANCH  24  25
ATOM     25  C   UNL     1      38.846   5.848  18.025  0.00  0.00    +0.000 A 
ATOM     26  C   UNL     1      39.824   5.689  18.959  0.00  0.00    +0.000 A 
ATOM     27  C   UNL     1      39.977   6.630  19.977  0.00  0.00    +0.000 A 
ATOM     28  C   UNL     1      39.156   7.727  20.063  0.00  0.00    +0.000 A 
ATOM     29  C   UNL     1      38.170   7.891  19.128  0.00  0.00    +0.000 A 
ATOM     30  C   UNL     1      38.039   6.954  18.137  0.00  0.00    +0.000 A 
ENDBRANCH  24  25
ENDBRANCH  17  24
ENDBRANCH   1  17
TORSDOF 9
ENDMDL
MODEL 6
REMARK VINA RESULT:      -6.9     25.391     28.416
REMARK  Name = 
REMARK  9 active torsions:
REMARK  status: ('A' for Active; 'I' for Inactive)
REMARK    1  A    between atoms: C_2  and  C_3
REMARK    2  A    between atoms: C_9  and  N_10
REMARK    3  A    between atoms: C_11  and  C_13
REMARK    4  A    between atoms: C_13  and  O_14
REMARK    5  A    between atoms: O_14  and  C_15
REMARK    6  A    between atoms: C_15  and  C_17
REMARK    7  A    between atoms: C_17  and  S_18
REMARK    8  A    between atoms: C_17  and  C_25
REMARK    9  A    between atoms: S_18  and  C_19
REMARK                            x       y       z     vdW  Elec       q    Type
REMARK                         _______ _______ _______ _____ _____    ______ ____
ROOT
ATOM      1  C   UNL     1      25.904  14.798  38.941  0.00  0.00    +0.000 C 
ATOM      2  O   UNL     1      26.856  15.559  39.138  0.00  0.00    +0.000 OA
ENDROOT
BRANCH   1   3
ATOM      3  O   UNL     1      25.809  13.578  39.591  0.00  0.00    +0.000 OA
BRANCH   3   4
ATOM      4  C   UNL     1      26.132  13.534  40.947  0.00  0.00    +0.000 C 
BRANCH   4   6
ATOM      5  N   UNL     1      27.400  11.355  40.526  0.00  0.00    +0.000 NA
ATOM      6  C   UNL     1      27.112  12.513  41.306  0.00  0.00    +0.000 C 
ATOM      7  O   UNL     1      27.757  12.651  42.376  0.00  0.00    +0.000 OA
BRANCH   5  14
ATOM      8  C   UNL     1      27.982   9.261  41.621  0.00  0.00    +0.000 A 
ATOM      9  C   UNL     1      28.877   8.281  42.013  0.00  0.00    +0.000 A 
ATOM     10  C   UNL     1      30.204   8.413  41.682  0.00  0.00    +0.000 A 
ATOM     11  C   UNL     1      30.616   9.514  40.966  0.00  0.00    +0.000 A 
ATOM     12  C   UNL     1      29.697  10.494  40.577  0.00  0.00    +0.000 A 
ATOM     13  C   UNL     1      30.109  11.696  39.801  0.00  0.00    +0.000 C 
ATOM     14  C   UNL     1      28.363  10.377  40.902  0.00  0.00    +0.000 A 
BRANCH   8  16
ATOM     15  C   UNL     1      26.016   7.779  41.599  0.00  0.00    +0.000 C 
ATOM     16  C   UNL     1      26.522   9.154  41.962  0.00  0.00    +0.000 C 
ENDBRANCH   8  16
ENDBRANCH   5  14
ENDBRANCH   4   6
ENDBRANCH   3   4
ENDBRANCH   1   3
BRANCH   1  17
ATOM     17  C   UNL     1      24.845  15.261  37.951  0.00  0.00    +0.000 C 
BRANCH  17  18
ATOM     18  C   UNL     1      24.179  16.383  38.796  0.00  0.00    +0.000 A 
ATOM     19  C   UNL     1      23.591  16.166  39.979  0.00  0.00    +0.000 A 
ATOM     20  C   UNL     1      23.011  17.195  40.688  0.00  0.00    +0.000 A 
ATOM     21  C   UNL     1      23.043  18.476  40.159  0.00  0.00    +0.000 A 
ATOM     22  C   UNL     1      23.639  18.724  38.950  0.00  0.00    +0.000 A 
ATOM     23  C   UNL     1      24.205  17.665  38.278  0.00  0.00    +0.000 A 
ENDBRANCH  17  18
BRANCH  17  24
ATOM     24  S   UNL     1      25.895  16.356  36.829  0.00  0.00    +0.000 S 
BRANCH  24  25
ATOM     25  C   UNL     1      25.585  16.020  35.136  0.00  0.00    +0.000 A 
ATOM     26  C   UNL     1      25.101  16.962  34.282  0.00  0.00    +0.000 A 
ATOM     27  C   UNL     1      24.869  16.639  32.944  0.00  0.00    +0.000 A 
ATOM     28  C   UNL     1      25.120  15.380  32.462  0.00  0.00    +0.000 A 
ATOM     29  C   UNL     1      25.606  14.428  33.316  0.00  0.00    +0.000 A 
ATOM     30  C   UNL     1      25.827  14.767  34.625  0.00  0.00    +0.000 A 
ENDBRANCH  24  25
ENDBRANCH  17  24
ENDBRANCH   1  17
TORSDOF 9
ENDMDL
MODEL 7
REMARK VINA RESULT:      -6.8      2.492      7.642
REMARK  Name = 
REMARK  9 active torsions:
REMARK  status: ('A' for Active; 'I' for Inactive)
REMARK    1  A    between atoms: C_2  and  C_3
REMARK    2  A    between atoms: C_9  and  N_10
REMARK    3  A    between atoms: C_11  and  C_13
REMARK    4  A    between atoms: C_13  and  O_14
REMARK    5  A    between atoms: O_14  and  C_15
REMARK    6  A    between atoms: C_15  and  C_17
REMARK    7  A    between atoms: C_17  and  S_18
REMARK    8  A    between atoms: C_17  and  C_25
REMARK    9  A    between atoms: S_18  and  C_19
REMARK                            x       y       z     vdW  Elec       q    Type
REMARK                         _______ _______ _______ _____ _____    ______ ____
ROOT
ATOM      1  C   UNL     1      36.476   0.594  15.635  0.00  0.00    +0.000 C 
ATOM      2  O   UNL     1      36.018   0.791  14.506  0.00  0.00    +0.000 OA
ENDROOT
BRANCH   1   3
ATOM      3  O   UNL     1      36.164   1.430  16.696  0.00  0.00    +0.000 OA
BRANCH   3   4
ATOM      4  C   UNL     1      35.715   2.717  16.402  0.00  0.00    +0.000 C 
BRANCH   4   6
ATOM      5  N   UNL     1      38.138   3.528  16.466  0.00  0.00    +0.000 NA
ATOM      6  C   UNL     1      36.772   3.673  16.085  0.00  0.00    +0.000 C 
ATOM      7  O   UNL     1      36.472   4.702  15.428  0.00  0.00    +0.000 OA
BRANCH   5  14
ATOM      8  C   UNL     1      39.578   5.390  17.083  0.00  0.00    +0.000 A 
ATOM      9  C   UNL     1      40.553   6.335  16.820  0.00  0.00    +0.000 A 
ATOM     10  C   UNL     1      41.124   6.380  15.571  0.00  0.00    +0.000 A 
ATOM     11  C   UNL     1      40.717   5.483  14.609  0.00  0.00    +0.000 A 
ATOM     12  C   UNL     1      39.730   4.534  14.894  0.00  0.00    +0.000 A 
ATOM     13  C   UNL     1      39.267   3.550  13.877  0.00  0.00    +0.000 C 
ATOM     14  C   UNL     1      39.147   4.478  16.141  0.00  0.00    +0.000 A 
BRANCH   8  16
ATOM     15  C   UNL     1      39.660   6.206  19.405  0.00  0.00    +0.000 C 
ATOM     16  C   UNL     1      38.929   5.308  18.437  0.00  0.00    +0.000 C 
ENDBRANCH   8  16
ENDBRANCH   5  14
ENDBRANCH   4   6
ENDBRANCH   3   4
ENDBRANCH   1   3
BRANCH   1  17
ATOM     17  C   UNL     1      37.398  -0.605  15.806  0.00  0.00    +0.000 C 
BRANCH  17  18
ATOM     18  C   UNL     1      36.361  -1.751  15.638  0.00  0.00    +0.000 A 
ATOM     19  C   UNL     1      36.448  -2.692  14.689  0.00  0.00    +0.000 A 
ATOM     20  C   UNL     1      35.499  -3.685  14.580  0.00  0.00    +0.000 A 
ATOM     21  C   UNL     1      34.439  -3.702  15.475  0.00  0.00    +0.000 A 
ATOM     22  C   UNL     1      34.328  -2.751  16.454  0.00  0.00    +0.000 A 
ATOM     23  C   UNL     1      35.299  -1.778  16.524  0.00  0.00    +0.000 A 
ENDBRANCH  17  18
BRANCH  17  24
ATOM     24  S   UNL     1      38.166  -0.681  14.085  0.00  0.00    +0.000 S 
BRANCH  24  25
ATOM     25  C   UNL     1      39.905  -0.887  14.170  0.00  0.00    +0.000 A 
ATOM     26  C   UNL     1      40.485  -2.079  14.478  0.00  0.00    +0.000 A 
ATOM     27  C   UNL     1      41.875  -2.186  14.536  0.00  0.00    +0.000 A 
ATOM     28  C   UNL     1      42.684  -1.106  14.286  0.00  0.00    +0.000 A 
ATOM     29  C   UNL     1      42.107   0.096  13.977  0.00  0.00    +0.000 A 
ATOM     30  C   UNL     1      40.740   0.177  13.925  0.00  0.00    +0.000 A 
ENDBRANCH  24  25
ENDBRANCH  17  24
ENDBRANCH   1  17
TORSDOF 9
ENDMDL
MODEL 8
REMARK VINA RESULT:      -6.8      2.412      4.596
REMARK  Name = 
REMARK  9 active torsions:
REMARK  status: ('A' for Active; 'I' for Inactive)
REMARK    1  A    between atoms: C_2  and  C_3
REMARK    2  A    between atoms: C_9  and  N_10
REMARK    3  A    between atoms: C_11  and  C_13
REMARK    4  A    between atoms: C_13  and  O_14
REMARK    5  A    between atoms: O_14  and  C_15
REMARK    6  A    between atoms: C_15  and  C_17
REMARK    7  A    between atoms: C_17  and  S_18
REMARK    8  A    between atoms: C_17  and  C_25
REMARK    9  A    between atoms: S_18  and  C_19
REMARK                            x       y       z     vdW  Elec       q    Type
REMARK                         _______ _______ _______ _____ _____    ______ ____
ROOT
ATOM      1  C   UNL     1      38.156   3.972  16.589  0.00  0.00    +0.000 C 
ATOM      2  O   UNL     1      38.997   3.544  15.793  0.00  0.00    +0.000 OA
ENDROOT
BRANCH   1   3
ATOM      3  O   UNL     1      37.406   3.114  17.376  0.00  0.00    +0.000 OA
BRANCH   3   4
ATOM      4  C   UNL     1      36.135   2.756  16.925  0.00  0.00    +0.000 C 
BRANCH   4   6
ATOM      5  N   UNL     1      37.038   0.398  16.531  0.00  0.00    +0.000 NA
ATOM      6  C   UNL     1      35.969   1.333  16.643  0.00  0.00    +0.000 C 
ATOM      7  O   UNL     1      34.805   0.886  16.486  0.00  0.00    +0.000 OA
BRANCH   5  14
ATOM      8  C   UNL     1      36.633  -1.881  17.283  0.00  0.00    +0.000 A 
ATOM      9  C   UNL     1      36.441  -3.235  17.071  0.00  0.00    +0.000 A 
ATOM     10  C   UNL     1      36.461  -3.721  15.786  0.00  0.00    +0.000 A 
ATOM     11  C   UNL     1      36.670  -2.854  14.738  0.00  0.00    +0.000 A 
ATOM     12  C   UNL     1      36.861  -1.489  14.972  0.00  0.00    +0.000 A 
ATOM     13  C   UNL     1      37.088  -0.523  13.861  0.00  0.00    +0.000 C 
ATOM     14  C   UNL     1      36.844  -0.985  16.254  0.00  0.00    +0.000 A 
BRANCH   8  16
ATOM     15  C   UNL     1      37.575  -2.078  19.550  0.00  0.00    +0.000 C 
ATOM     16  C   UNL     1      36.617  -1.309  18.673  0.00  0.00    +0.000 C 
ENDBRANCH   8  16
ENDBRANCH   5  14
ENDBRANCH   4   6
ENDBRANCH   3   4
ENDBRANCH   1   3
BRANCH   1  17
ATOM     17  C   UNL     1      37.983   5.482  16.664  0.00  0.00    +0.000 C 
BRANCH  17  18
ATOM     18  C   UNL     1      39.291   5.853  17.417  0.00  0.00    +0.000 A 
ATOM     19  C   UNL     1      40.430   6.191  16.798  0.00  0.00    +0.000 A 
ATOM     20  C   UNL     1      41.564   6.507  17.514  0.00  0.00    +0.000 A 
ATOM     21  C   UNL     1      41.516   6.473  18.899  0.00  0.00    +0.000 A 
ATOM     22  C   UNL     1      40.363   6.131  19.555  0.00  0.00    +0.000 A 
ATOM     23  C   UNL     1      39.254   5.822  18.800  0.00  0.00    +0.000 A 
ENDBRANCH  17  18
BRANCH  17  24
ATOM     24  S   UNL     1      38.528   5.966  14.923  0.00  0.00    +0.000 S 
BRANCH  24  25
ATOM     25  C   UNL     1      37.150   6.271  13.883  0.00  0.00    +0.000 A 
ATOM     26  C   UNL     1      36.194   7.190  14.191  0.00  0.00    +0.000 A 
ATOM     27  C   UNL     1      35.115   7.390  13.330  0.00  0.00    +0.000 A 
ATOM     28  C   UNL     1      34.991   6.676  12.164  0.00  0.00    +0.000 A 
ATOM     29  C   UNL     1      35.949   5.751  11.850  0.00  0.00    +0.000 A 
ATOM     30  C   UNL     1      37.000   5.571  12.711  0.00  0.00    +0.000 A 
ENDBRANCH  24  25
ENDBRANCH  17  24
ENDBRANCH   1  17
TORSDOF 9
ENDMDL
MODEL 9
REMARK VINA RESULT:      -6.8      4.049      9.448
REMARK  Name = 
REMARK  9 active torsions:
REMARK  status: ('A' for Active; 'I' for Inactive)
REMARK    1  A    between atoms: C_2  and  C_3
REMARK    2  A    between atoms: C_9  and  N_10
REMARK    3  A    between atoms: C_11  and  C_13
REMARK    4  A    between atoms: C_13  and  O_14
REMARK    5  A    between atoms: O_14  and  C_15
REMARK    6  A    between atoms: C_15  and  C_17
REMARK    7  A    between atoms: C_17  and  S_18
REMARK    8  A    between atoms: C_17  and  C_25
REMARK    9  A    between atoms: S_18  and  C_19
REMARK                            x       y       z     vdW  Elec       q    Type
REMARK                         _______ _______ _______ _____ _____    ______ ____
ROOT
ATOM      1  C   UNL     1      36.981  -3.546  14.931  0.00  0.00    +0.000 C 
ATOM      2  O   UNL     1      36.289  -3.454  13.914  0.00  0.00    +0.000 OA
ENDROOT
BRANCH   1   3
ATOM      3  O   UNL     1      38.276  -3.055  14.969  0.00  0.00    +0.000 OA
BRANCH   3   4
ATOM      4  C   UNL     1      38.619  -2.048  14.067  0.00  0.00    +0.000 C 
BRANCH   4   6
ATOM      5  N   UNL     1      38.204   0.473  14.000  0.00  0.00    +0.000 NA
ATOM      6  C   UNL     1      38.676  -0.708  14.644  0.00  0.00    +0.000 C 
ATOM      7  O   UNL     1      39.174  -0.569  15.789  0.00  0.00    +0.000 OA
BRANCH   5  14
ATOM      8  C   UNL     1      37.246   2.228  15.388  0.00  0.00    +0.000 A 
ATOM      9  C   UNL     1      37.261   3.477  15.982  0.00  0.00    +0.000 A 
ATOM     10  C   UNL     1      38.337   4.306  15.774  0.00  0.00    +0.000 A 
ATOM     11  C   UNL     1      39.378   3.876  14.982  0.00  0.00    +0.000 A 
ATOM     12  C   UNL     1      39.344   2.609  14.390  0.00  0.00    +0.000 A 
ATOM     13  C   UNL     1      40.454   2.114  13.529  0.00  0.00    +0.000 C 
ATOM     14  C   UNL     1      38.273   1.767  14.589  0.00  0.00    +0.000 A 
BRANCH   8  16
ATOM     15  C   UNL     1      34.869   2.075  16.016  0.00  0.00    +0.000 C 
ATOM     16  C   UNL     1      36.087   1.291  15.592  0.00  0.00    +0.000 C 
ENDBRANCH   8  16
ENDBRANCH   5  14
ENDBRANCH   4   6
ENDBRANCH   3   4
ENDBRANCH   1   3
BRANCH   1  17
ATOM     17  C   UNL     1      36.348  -4.225  16.137  0.00  0.00    +0.000 C 
BRANCH  17  18
ATOM     18  C   UNL     1      36.014  -2.970  16.991  0.00  0.00    +0.000 A 
ATOM     19  C   UNL     1      36.866  -2.425  17.867  0.00  0.00    +0.000 A 
ATOM     20  C   UNL     1      36.519  -1.313  18.603  0.00  0.00    +0.000 A 
ATOM     21  C   UNL     1      35.262  -0.755  18.425  0.00  0.00    +0.000 A 
ATOM     22  C   UNL     1      34.373  -1.294  17.534  0.00  0.00    +0.000 A 
ATOM     23  C   UNL     1      34.763  -2.405  16.821  0.00  0.00    +0.000 A 
ENDBRANCH  17  18
BRANCH  17  24
ATOM     24  S   UNL     1      34.619  -4.560  15.460  0.00  0.00    +0.000 S 
BRANCH  24  25
ATOM     25  C   UNL     1      34.389  -6.261  15.106  0.00  0.00    +0.000 A 
ATOM     26  C   UNL     1      34.550  -7.230  16.049  0.00  0.00    +0.000 A 
ATOM     27  C   UNL     1      34.358  -8.571  15.712  0.00  0.00    +0.000 A 
ATOM     28  C   UNL     1      34.006  -8.943  14.439  0.00  0.00    +0.000 A 
ATOM     29  C   UNL     1      33.844  -7.973  13.487  0.00  0.00    +0.000 A 
ATOM     30  C   UNL     1      34.037  -6.663  13.841  0.00  0.00    +0.000 A 
ENDBRANCH  24  25
ENDBRANCH  17  24
ENDBRANCH   1  17
TORSDOF 9
ENDMDL
MODEL 10
REMARK VINA RESULT:      -6.7      2.239      3.652
REMARK  Name = 
REMARK  9 active torsions:
REMARK  status: ('A' for Active; 'I' for Inactive)
REMARK    1  A    between atoms: C_2  and  C_3
REMARK    2  A    between atoms: C_9  and  N_10
REMARK    3  A    between atoms: C_11  and  C_13
REMARK    4  A    between atoms: C_13  and  O_14
REMARK    5  A    between atoms: O_14  and  C_15
REMARK    6  A    between atoms: C_15  and  C_17
REMARK    7  A    between atoms: C_17  and  S_18
REMARK    8  A    between atoms: C_17  and  C_25
REMARK    9  A    between atoms: S_18  and  C_19
REMARK                            x       y       z     vdW  Elec       q    Type
REMARK                         _______ _______ _______ _____ _____    ______ ____
ROOT
ATOM      1  C   UNL     1      37.616   3.876  13.035  0.00  0.00    +0.000 C 
ATOM      2  O   UNL     1      38.098   4.476  12.070  0.00  0.00    +0.000 OA
ENDROOT
BRANCH   1   3
ATOM      3  O   UNL     1      37.196   2.560  12.930  0.00  0.00    +0.000 OA
BRANCH   3   4
ATOM      4  C   UNL     1      38.008   1.669  12.229  0.00  0.00    +0.000 C 
BRANCH   4   6
ATOM      5  N   UNL     1      38.480   0.243  14.297  0.00  0.00    +0.000 NA
ATOM      6  C   UNL     1      38.231   0.392  12.902  0.00  0.00    +0.000 C 
ATOM      7  O   UNL     1      38.205  -0.660  12.215  0.00  0.00    +0.000 OA
BRANCH   5  14
ATOM      8  C   UNL     1      37.636  -1.717  15.468  0.00  0.00    +0.000 A 
ATOM      9  C   UNL     1      37.789  -2.942  16.091  0.00  0.00    +0.000 A 
ATOM     10  C   UNL     1      39.043  -3.497  16.182  0.00  0.00    +0.000 A 
ATOM     11  C   UNL     1      40.120  -2.824  15.650  0.00  0.00    +0.000 A 
ATOM     12  C   UNL     1      39.945  -1.585  15.024  0.00  0.00    +0.000 A 
ATOM     13  C   UNL     1      41.089  -0.832  14.438  0.00  0.00    +0.000 C 
ATOM     14  C   UNL     1      38.695  -1.016  14.925  0.00  0.00    +0.000 A 
BRANCH   8  16
ATOM     15  C   UNL     1      35.368  -1.616  16.421  0.00  0.00    +0.000 C 
ATOM     16  C   UNL     1      36.281  -1.077  15.347  0.00  0.00    +0.000 C 
ENDBRANCH   8  16
ENDBRANCH   5  14
ENDBRANCH   4   6
ENDBRANCH   3   4
ENDBRANCH   1   3
BRANCH   1  17
ATOM     17  C   UNL     1      37.506   4.648  14.342  0.00  0.00    +0.000 C 
BRANCH  17  18
ATOM     18  C   UNL     1      36.413   3.800  15.049  0.00  0.00    +0.000 A 
ATOM     19  C   UNL     1      35.106   3.906  14.778  0.00  0.00    +0.000 A 
ATOM     20  C   UNL     1      34.175   3.133  15.437  0.00  0.00    +0.000 A 
ATOM     21  C   UNL     1      34.610   2.230  16.395  0.00  0.00    +0.000 A 
ATOM     22  C   UNL     1      35.942   2.103  16.690  0.00  0.00    +0.000 A 
ATOM     23  C   UNL     1      36.835   2.896  16.007  0.00  0.00    +0.000 A 
ENDBRANCH  17  18
BRANCH  17  24
ATOM     24  S   UNL     1      39.009   3.969  15.258  0.00  0.00    +0.000 S 
BRANCH  24  25
ATOM     25  C   UNL     1      39.441   4.985  16.620  0.00  0.00    +0.000 A 
ATOM     26  C   UNL     1      38.828   4.880  17.831  0.00  0.00    +0.000 A 
ATOM     27  C   UNL     1      39.208   5.717  18.881  0.00  0.00    +0.000 A 
ATOM     28  C   UNL     1      40.197   6.656  18.722  0.00  0.00    +0.000 A 
ATOM     29  C   UNL     1      40.815   6.767  17.506  0.00  0.00    +0.000 A 
ATOM     30  C   UNL     1      40.426   5.934  16.490  0.00  0.00    +0.000 A 
ENDBRANCH  24  25
ENDBRANCH  17  24
ENDBRANCH   1  17
TORSDOF 9
ENDMDL
