MODEL 1
REMARK VINA RESULT:      -7.1      0.000      0.000
REMARK  Name = 
REMARK  2 active torsions:
REMARK  status: ('A' for Active; 'I' for Inactive)
REMARK    1  A    between atoms: C_2  and  C_3
REMARK    2  A    between atoms: C_3  and  C_4
REMARK                            x       y       z     vdW  Elec       q    Type
REMARK                         _______ _______ _______ _____ _____    ______ ____
ROOT
ATOM      1  C   UNL     1      14.829  11.801  36.875  0.00  0.00    +0.000 A 
ATOM      2  C   UNL     1      13.507  12.120  36.546  0.00  0.00    +0.000 A 
ATOM      3  C   UNL     1      12.451  11.731  37.351  0.00  0.00    +0.000 A 
ATOM      4  O   UNL     1      11.252  12.023  37.043  0.00  0.00    +0.000 OA
ATOM      5  O   UNL     1      12.746  11.059  38.421  0.00  0.00    +0.000 OA
ATOM      6  C   UNL     1      13.959  10.719  38.802  0.00  0.00    +0.000 A 
ATOM      7  C   UNL     1      14.178  10.004  39.963  0.00  0.00    +0.000 A 
ATOM      8  C   UNL     1      15.418   9.629  40.404  0.00  0.00    +0.000 A 
ATOM      9  O   UNL     1      15.642   8.905  41.576  0.00  0.00    +0.000 OA
ATOM     10  C   UNL     1      16.496  10.003  39.617  0.00  0.00    +0.000 A 
ATOM     11  C   UNL     1      16.315  10.720  38.451  0.00  0.00    +0.000 A 
ATOM     12  C   UNL     1      15.047  11.087  38.028  0.00  0.00    +0.000 A 
ATOM     13  O   UNL     1      17.418  11.072  37.707  0.00  0.00    +0.000 OA
ATOM     14  C   UNL     1      18.734  10.719  38.034  0.00  0.00    +0.000 C 
ATOM     15  C   UNL     1      19.562  11.986  38.069  0.00  0.00    +0.000 C 
ATOM     16  C   UNL     1      19.289   9.901  36.857  0.00  0.00    +0.000 C 
ATOM     17  C   UNL     1      18.857   9.958  39.285  0.00  0.00    +0.000 C 
ATOM     18  C   UNL     1      17.829   9.619  40.030  0.00  0.00    +0.000 C 
ENDROOT
BRANCH   1  19
ATOM     19  C   UNL     1      15.970  12.202  36.020  0.00  0.00    +0.000 C 
BRANCH  19  21
ATOM     20  C   UNL     1      16.844  10.806  34.186  0.00  0.00    +0.000 C 
ATOM     21  C   UNL     1      15.725  11.782  34.564  0.00  0.00    +0.000 C 
ENDBRANCH  19  21
ENDBRANCH   1  19
TORSDOF 2
ENDMDL
MODEL 2
REMARK VINA RESULT:      -6.7     19.925     21.784
REMARK  Name = 
REMARK  2 active torsions:
REMARK  status: ('A' for Active; 'I' for Inactive)
REMARK    1  A    between atoms: C_2  and  C_3
REMARK    2  A    between atoms: C_3  and  C_4
REMARK                            x       y       z     vdW  Elec       q    Type
REMARK                         _______ _______ _______ _____ _____    ______ ____
ROOT
ATOM      1  C   UNL     1      26.552  23.347  25.593  0.00  0.00    +0.000 A 
ATOM      2  C   UNL     1      25.665  23.228  24.519  0.00  0.00    +0.000 A 
ATOM      3  C   UNL     1      26.120  23.058  23.224  0.00  0.00    +0.000 A 
ATOM      4  O   UNL     1      25.305  22.954  22.252  0.00  0.00    +0.000 OA
ATOM      5  O   UNL     1      27.406  23.015  23.055  0.00  0.00    +0.000 OA
ATOM      6  C   UNL     1      28.308  23.119  24.008  0.00  0.00    +0.000 A 
ATOM      7  C   UNL     1      29.659  23.058  23.735  0.00  0.00    +0.000 A 
ATOM      8  C   UNL     1      30.635  23.158  24.689  0.00  0.00    +0.000 A 
ATOM      9  O   UNL     1      32.002  23.098  24.415  0.00  0.00    +0.000 OA
ATOM     10  C   UNL     1      30.209  23.330  25.996  0.00  0.00    +0.000 A 
ATOM     11  C   UNL     1      28.865  23.393  26.308  0.00  0.00    +0.000 A 
ATOM     12  C   UNL     1      27.898  23.290  25.321  0.00  0.00    +0.000 A 
ATOM     13  O   UNL     1      28.492  23.561  27.622  0.00  0.00    +0.000 OA
ATOM     14  C   UNL     1      29.395  23.709  28.685  0.00  0.00    +0.000 C 
ATOM     15  C   UNL     1      29.055  22.672  29.734  0.00  0.00    +0.000 C 
ATOM     16  C   UNL     1      29.102  25.067  29.341  0.00  0.00    +0.000 C 
ATOM     17  C   UNL     1      30.807  23.631  28.286  0.00  0.00    +0.000 C 
ATOM     18  C   UNL     1      31.200  23.455  27.044  0.00  0.00    +0.000 C 
ENDROOT
BRANCH   1  19
ATOM     19  C   UNL     1      26.082  23.538  26.984  0.00  0.00    +0.000 C 
BRANCH  19  21
ATOM     20  C   UNL     1      25.307  25.313  28.510  0.00  0.00    +0.000 C 
ATOM     21  C   UNL     1      25.176  24.774  27.081  0.00  0.00    +0.000 C 
ENDBRANCH  19  21
ENDBRANCH   1  19
TORSDOF 2
ENDMDL
MODEL 3
REMARK VINA RESULT:      -6.6     18.855     21.033
REMARK  Name = 
REMARK  2 active torsions:
REMARK  status: ('A' for Active; 'I' for Inactive)
REMARK    1  A    between atoms: C_2  and  C_3
REMARK    2  A    between atoms: C_3  and  C_4
REMARK                            x       y       z     vdW  Elec       q    Type
REMARK                         _______ _______ _______ _____ _____    ______ ____
ROOT
ATOM      1  C   UNL     1      30.200  22.476  27.486  0.00  0.00    +0.000 A 
ATOM      2  C   UNL     1      31.399  22.025  28.046  0.00  0.00    +0.000 A 
ATOM      3  C   UNL     1      31.570  21.947  29.417  0.00  0.00    +0.000 A 
ATOM      4  O   UNL     1      32.667  21.538  29.917  0.00  0.00    +0.000 OA
ATOM      5  O   UNL     1      30.567  22.312  30.154  0.00  0.00    +0.000 OA
ATOM      6  C   UNL     1      29.407  22.747  29.709  0.00  0.00    +0.000 A 
ATOM      7  C   UNL     1      28.392  23.110  30.572  0.00  0.00    +0.000 A 
ATOM      8  C   UNL     1      27.169  23.565  30.160  0.00  0.00    +0.000 A 
ATOM      9  O   UNL     1      26.142  23.934  31.030  0.00  0.00    +0.000 OA
ATOM     10  C   UNL     1      26.969  23.655  28.792  0.00  0.00    +0.000 A 
ATOM     11  C   UNL     1      27.960  23.298  27.899  0.00  0.00    +0.000 A 
ATOM     12  C   UNL     1      29.190  22.841  28.344  0.00  0.00    +0.000 A 
ATOM     13  O   UNL     1      27.711  23.401  26.549  0.00  0.00    +0.000 OA
ATOM     14  C   UNL     1      26.514  23.884  26.004  0.00  0.00    +0.000 C 
ATOM     15  C   UNL     1      25.991  22.846  25.034  0.00  0.00    +0.000 C 
ATOM     16  C   UNL     1      26.869  25.106  25.142  0.00  0.00    +0.000 C 
ATOM     17  C   UNL     1      25.501  24.245  27.006  0.00  0.00    +0.000 C 
ATOM     18  C   UNL     1      25.697  24.144  28.302  0.00  0.00    +0.000 C 
ENDROOT
BRANCH   1  19
ATOM     19  C   UNL     1      30.003  22.573  26.022  0.00  0.00    +0.000 C 
BRANCH  19  21
ATOM     20  C   UNL     1      30.715  23.962  24.113  0.00  0.00    +0.000 C 
ATOM     21  C   UNL     1      31.224  23.226  25.358  0.00  0.00    +0.000 C 
ENDBRANCH  19  21
ENDBRANCH   1  19
TORSDOF 2
ENDMDL
MODEL 4
REMARK VINA RESULT:      -6.6     18.445     21.011
REMARK  Name = 
REMARK  2 active torsions:
REMARK  status: ('A' for Active; 'I' for Inactive)
REMARK    1  A    between atoms: C_2  and  C_3
REMARK    2  A    between atoms: C_3  and  C_4
REMARK                            x       y       z     vdW  Elec       q    Type
REMARK                         _______ _______ _______ _____ _____    ______ ____
ROOT
ATOM      1  C   UNL     1      28.250  22.896  25.513  0.00  0.00    +0.000 A 
ATOM      2  C   UNL     1      28.545  22.816  24.148  0.00  0.00    +0.000 A 
ATOM      3  C   UNL     1      27.777  23.474  23.205  0.00  0.00    +0.000 A 
ATOM      4  O   UNL     1      28.051  23.393  21.965  0.00  0.00    +0.000 OA
ATOM      5  O   UNL     1      26.772  24.166  23.647  0.00  0.00    +0.000 OA
ATOM      6  C   UNL     1      26.426  24.293  24.910  0.00  0.00    +0.000 A 
ATOM      7  C   UNL     1      25.340  25.057  25.288  0.00  0.00    +0.000 A 
ATOM      8  C   UNL     1      24.941  25.223  26.587  0.00  0.00    +0.000 A 
ATOM      9  O   UNL     1      23.842  25.993  26.972  0.00  0.00    +0.000 OA
ATOM     10  C   UNL     1      25.691  24.575  27.555  0.00  0.00    +0.000 A 
ATOM     11  C   UNL     1      26.785  23.804  27.213  0.00  0.00    +0.000 A 
ATOM     12  C   UNL     1      27.167  23.652  25.890  0.00  0.00    +0.000 A 
ATOM     13  O   UNL     1      27.502  23.183  28.212  0.00  0.00    +0.000 OA
ATOM     14  C   UNL     1      27.175  23.249  29.573  0.00  0.00    +0.000 C 
ATOM     15  C   UNL     1      28.400  23.724  30.325  0.00  0.00    +0.000 C 
ATOM     16  C   UNL     1      26.935  21.808  30.051  0.00  0.00    +0.000 C 
ATOM     17  C   UNL     1      26.002  24.084  29.868  0.00  0.00    +0.000 C 
ATOM     18  C   UNL     1      25.304  24.705  28.943  0.00  0.00    +0.000 C 
ENDROOT
BRANCH   1  19
ATOM     19  C   UNL     1      29.057  22.191  26.535  0.00  0.00    +0.000 C 
BRANCH  19  21
ATOM     20  C   UNL     1      31.192  22.236  27.768  0.00  0.00    +0.000 C 
ATOM     21  C   UNL     1      30.532  22.605  26.434  0.00  0.00    +0.000 C 
ENDBRANCH  19  21
ENDBRANCH   1  19
TORSDOF 2
ENDMDL
MODEL 5
REMARK VINA RESULT:      -6.5     21.346     23.353
REMARK  Name = 
REMARK  2 active torsions:
REMARK  status: ('A' for Active; 'I' for Inactive)
REMARK    1  A    between atoms: C_2  and  C_3
REMARK    2  A    between atoms: C_3  and  C_4
REMARK                            x       y       z     vdW  Elec       q    Type
REMARK                         _______ _______ _______ _____ _____    ______ ____
ROOT
ATOM      1  C   UNL     1      21.735  -8.831  25.435  0.00  0.00    +0.000 A 
ATOM      2  C   UNL     1      22.882  -8.493  24.710  0.00  0.00    +0.000 A 
ATOM      3  C   UNL     1      23.121  -7.192  24.305  0.00  0.00    +0.000 A 
ATOM      4  O   UNL     1      24.166  -6.895  23.642  0.00  0.00    +0.000 OA
ATOM      5  O   UNL     1      22.232  -6.304  24.629  0.00  0.00    +0.000 OA
ATOM      6  C   UNL     1      21.128  -6.537  25.307  0.00  0.00    +0.000 A 
ATOM      7  C   UNL     1      20.239  -5.526  25.610  0.00  0.00    +0.000 A 
ATOM      8  C   UNL     1      19.082  -5.715  26.315  0.00  0.00    +0.000 A 
ATOM      9  O   UNL     1      18.180  -4.694  26.622  0.00  0.00    +0.000 OA
ATOM     10  C   UNL     1      18.814  -7.009  26.733  0.00  0.00    +0.000 A 
ATOM     11  C   UNL     1      19.682  -8.045  26.450  0.00  0.00    +0.000 A 
ATOM     12  C   UNL     1      20.848  -7.825  25.734  0.00  0.00    +0.000 A 
ATOM     13  O   UNL     1      19.374  -9.312  26.891  0.00  0.00    +0.000 OA
ATOM     14  C   UNL     1      18.204  -9.640  27.592  0.00  0.00    +0.000 C 
ATOM     15  C   UNL     1      18.608 -10.345  28.870  0.00  0.00    +0.000 C 
ATOM     16  C   UNL     1      17.460 -10.696  26.759  0.00  0.00    +0.000 C 
ATOM     17  C   UNL     1      17.326  -8.493  27.861  0.00  0.00    +0.000 C 
ATOM     18  C   UNL     1      17.595  -7.267  27.470  0.00  0.00    +0.000 C 
ENDROOT
BRANCH   1  19
ATOM     19  C   UNL     1      21.459 -10.219  25.869  0.00  0.00    +0.000 C 
BRANCH  19  21
ATOM     20  C   UNL     1      22.280 -10.794  28.122  0.00  0.00    +0.000 C 
ATOM     21  C   UNL     1      22.660 -10.791  26.637  0.00  0.00    +0.000 C 
ENDBRANCH  19  21
ENDBRANCH   1  19
TORSDOF 2
ENDMDL
MODEL 6
REMARK VINA RESULT:      -6.5     19.377     21.683
REMARK  Name = 
REMARK  2 active torsions:
REMARK  status: ('A' for Active; 'I' for Inactive)
REMARK    1  A    between atoms: C_2  and  C_3
REMARK    2  A    between atoms: C_3  and  C_4
REMARK                            x       y       z     vdW  Elec       q    Type
REMARK                         _______ _______ _______ _____ _____    ______ ____
ROOT
ATOM      1  C   UNL     1      29.823  22.948  24.953  0.00  0.00    +0.000 A 
ATOM      2  C   UNL     1      29.262  23.033  23.675  0.00  0.00    +0.000 A 
ATOM      3  C   UNL     1      27.896  23.153  23.495  0.00  0.00    +0.000 A 
ATOM      4  O   UNL     1      27.393  23.227  22.328  0.00  0.00    +0.000 OA
ATOM      5  O   UNL     1      27.164  23.182  24.565  0.00  0.00    +0.000 OA
ATOM      6  C   UNL     1      27.610  23.107  25.801  0.00  0.00    +0.000 A 
ATOM      7  C   UNL     1      26.754  23.150  26.883  0.00  0.00    +0.000 A 
ATOM      8  C   UNL     1      27.168  23.079  28.186  0.00  0.00    +0.000 A 
ATOM      9  O   UNL     1      26.304  23.121  29.281  0.00  0.00    +0.000 OA
ATOM     10  C   UNL     1      28.532  22.958  28.398  0.00  0.00    +0.000 A 
ATOM     11  C   UNL     1      29.418  22.914  27.340  0.00  0.00    +0.000 A 
ATOM     12  C   UNL     1      28.972  22.987  26.030  0.00  0.00    +0.000 A 
ATOM     13  O   UNL     1      30.765  22.797  27.602  0.00  0.00    +0.000 OA
ATOM     14  C   UNL     1      31.310  22.682  28.888  0.00  0.00    +0.000 C 
ATOM     15  C   UNL     1      32.362  23.759  29.047  0.00  0.00    +0.000 C 
ATOM     16  C   UNL     1      32.076  21.350  28.938  0.00  0.00    +0.000 C 
ATOM     17  C   UNL     1      30.314  22.737  29.968  0.00  0.00    +0.000 C 
ATOM     18  C   UNL     1      29.023  22.865  29.756  0.00  0.00    +0.000 C 
ENDROOT
BRANCH   1  19
ATOM     19  C   UNL     1      31.283  22.811  25.163  0.00  0.00    +0.000 C 
BRANCH  19  21
ATOM     20  C   UNL     1      32.202  25.090  25.359  0.00  0.00    +0.000 C 
ATOM     21  C   UNL     1      32.041  23.906  24.399  0.00  0.00    +0.000 C 
ENDBRANCH  19  21
ENDBRANCH   1  19
TORSDOF 2
ENDMDL
MODEL 7
REMARK VINA RESULT:      -6.4     21.784     23.609
REMARK  Name = 
REMARK  2 active torsions:
REMARK  status: ('A' for Active; 'I' for Inactive)
REMARK    1  A    between atoms: C_2  and  C_3
REMARK    2  A    between atoms: C_3  and  C_4
REMARK                            x       y       z     vdW  Elec       q    Type
REMARK                         _______ _______ _______ _____ _____    ______ ____
ROOT
ATOM      1  C   UNL     1      19.201  -7.920  26.749  0.00  0.00    +0.000 A 
ATOM      2  C   UNL     1      18.453  -6.745  26.872  0.00  0.00    +0.000 A 
ATOM      3  C   UNL     1      18.890  -5.553  26.323  0.00  0.00    +0.000 A 
ATOM      4  O   UNL     1      18.204  -4.487  26.443  0.00  0.00    +0.000 OA
ATOM      5  O   UNL     1      20.022  -5.578  25.691  0.00  0.00    +0.000 OA
ATOM      6  C   UNL     1      20.786  -6.638  25.529  0.00  0.00    +0.000 A 
ATOM      7  C   UNL     1      21.977  -6.572  24.835  0.00  0.00    +0.000 A 
ATOM      8  C   UNL     1      22.804  -7.644  24.637  0.00  0.00    +0.000 A 
ATOM      9  O   UNL     1      24.010  -7.579  23.937  0.00  0.00    +0.000 OA
ATOM     10  C   UNL     1      22.394  -8.852  25.177  0.00  0.00    +0.000 A 
ATOM     11  C   UNL     1      21.207  -8.957  25.875  0.00  0.00    +0.000 A 
ATOM     12  C   UNL     1      20.388  -7.855  26.061  0.00  0.00    +0.000 A 
ATOM     13  O   UNL     1      20.841 -10.181  26.388  0.00  0.00    +0.000 OA
ATOM     14  C   UNL     1      21.616 -11.344  26.282  0.00  0.00    +0.000 C 
ATOM     15  C   UNL     1      20.750 -12.428  25.676  0.00  0.00    +0.000 C 
ATOM     16  C   UNL     1      21.922 -11.816  27.712  0.00  0.00    +0.000 C 
ATOM     17  C   UNL     1      22.864 -11.164  25.527  0.00  0.00    +0.000 C 
ATOM     18  C   UNL     1      23.238 -10.016  25.009  0.00  0.00    +0.000 C 
ENDROOT
BRANCH   1  19
ATOM     19  C   UNL     1      18.752  -9.203  27.337  0.00  0.00    +0.000 C 
BRANCH  19  21
ATOM     20  C   UNL     1      19.508  -9.698  29.631  0.00  0.00    +0.000 C 
ATOM     21  C   UNL     1      18.398  -9.020  28.820  0.00  0.00    +0.000 C 
ENDBRANCH  19  21
ENDBRANCH   1  19
TORSDOF 2
ENDMDL
MODEL 8
REMARK VINA RESULT:      -6.3     21.589     23.094
REMARK  Name = 
REMARK  2 active torsions:
REMARK  status: ('A' for Active; 'I' for Inactive)
REMARK    1  A    between atoms: C_2  and  C_3
REMARK    2  A    between atoms: C_3  and  C_4
REMARK                            x       y       z     vdW  Elec       q    Type
REMARK                         _______ _______ _______ _____ _____    ______ ____
ROOT
ATOM      1  C   UNL     1      20.315  -7.110  25.930  0.00  0.00    +0.000 A 
ATOM      2  C   UNL     1      19.766  -5.824  25.884  0.00  0.00    +0.000 A 
ATOM      3  C   UNL     1      18.624  -5.503  26.595  0.00  0.00    +0.000 A 
ATOM      4  O   UNL     1      18.130  -4.331  26.544  0.00  0.00    +0.000 OA
ATOM      5  O   UNL     1      18.089  -6.448  27.304  0.00  0.00    +0.000 OA
ATOM      6  C   UNL     1      18.540  -7.681  27.403  0.00  0.00    +0.000 A 
ATOM      7  C   UNL     1      17.905  -8.623  28.187  0.00  0.00    +0.000 A 
ATOM      8  C   UNL     1      18.335  -9.914  28.325  0.00  0.00    +0.000 A 
ATOM      9  O   UNL     1      17.694 -10.869  29.117  0.00  0.00    +0.000 OA
ATOM     10  C   UNL     1      19.477 -10.267  27.624  0.00  0.00    +0.000 A 
ATOM     11  C   UNL     1      20.139  -9.351  26.831  0.00  0.00    +0.000 A 
ATOM     12  C   UNL     1      19.682  -8.049  26.708  0.00  0.00    +0.000 A 
ATOM     13  O   UNL     1      21.272  -9.748  26.157  0.00  0.00    +0.000 OA
ATOM     14  C   UNL     1      21.793 -11.049  26.190  0.00  0.00    +0.000 C 
ATOM     15  C   UNL     1      23.247 -10.960  26.603  0.00  0.00    +0.000 C 
ATOM     16  C   UNL     1      21.810 -11.566  24.742  0.00  0.00    +0.000 C 
ATOM     17  C   UNL     1      21.042 -11.973  27.052  0.00  0.00    +0.000 C 
ATOM     18  C   UNL     1      19.967 -11.625  27.723  0.00  0.00    +0.000 C 
ENDROOT
BRANCH   1  19
ATOM     19  C   UNL     1      21.532  -7.473  25.169  0.00  0.00    +0.000 C 
BRANCH  19  21
ATOM     20  C   UNL     1      23.632  -6.421  24.420  0.00  0.00    +0.000 C 
ATOM     21  C   UNL     1      22.110  -6.241  24.460  0.00  0.00    +0.000 C 
ENDBRANCH  19  21
ENDBRANCH   1  19
TORSDOF 2
ENDMDL
MODEL 9
REMARK VINA RESULT:      -6.2     18.720     20.812
REMARK  Name = 
REMARK  2 active torsions:
REMARK  status: ('A' for Active; 'I' for Inactive)
REMARK    1  A    between atoms: C_2  and  C_3
REMARK    2  A    between atoms: C_3  and  C_4
REMARK                            x       y       z     vdW  Elec       q    Type
REMARK                         _______ _______ _______ _____ _____    ______ ____
ROOT
ATOM      1  C   UNL     1      25.767  24.572  28.064  0.00  0.00    +0.000 A 
ATOM      2  C   UNL     1      25.448  24.721  29.417  0.00  0.00    +0.000 A 
ATOM      3  C   UNL     1      26.268  24.215  30.410  0.00  0.00    +0.000 A 
ATOM      4  O   UNL     1      25.967  24.353  31.640  0.00  0.00    +0.000 OA
ATOM      5  O   UNL     1      27.342  23.598  30.026  0.00  0.00    +0.000 OA
ATOM      6  C   UNL     1      27.715  23.414  28.778  0.00  0.00    +0.000 A 
ATOM      7  C   UNL     1      28.881  22.747  28.462  0.00  0.00    +0.000 A 
ATOM      8  C   UNL     1      29.314  22.533  27.182  0.00  0.00    +0.000 A 
ATOM      9  O   UNL     1      30.492  21.856  26.861  0.00  0.00    +0.000 OA
ATOM     10  C   UNL     1      28.513  23.027  26.165  0.00  0.00    +0.000 A 
ATOM     11  C   UNL     1      27.341  23.702  26.443  0.00  0.00    +0.000 A 
ATOM     12  C   UNL     1      26.926  23.905  27.749  0.00  0.00    +0.000 A 
ATOM     13  O   UNL     1      26.582  24.179  25.398  0.00  0.00    +0.000 OA
ATOM     14  C   UNL     1      26.900  23.995  24.045  0.00  0.00    +0.000 C 
ATOM     15  C   UNL     1      26.913  25.355  23.380  0.00  0.00    +0.000 C 
ATOM     16  C   UNL     1      25.727  23.237  23.404  0.00  0.00    +0.000 C 
ATOM     17  C   UNL     1      28.159  23.271  23.819  0.00  0.00    +0.000 C 
ATOM     18  C   UNL     1      28.918  22.816  24.791  0.00  0.00    +0.000 C 
ENDROOT
BRANCH   1  19
ATOM     19  C   UNL     1      24.897  25.101  26.988  0.00  0.00    +0.000 C 
BRANCH  19  21
ATOM     20  C   UNL     1      22.678  26.168  26.870  0.00  0.00    +0.000 C 
ATOM     21  C   UNL     1      24.070  26.288  27.500  0.00  0.00    +0.000 C 
ENDBRANCH  19  21
ENDBRANCH   1  19
TORSDOF 2
ENDMDL
MODEL 10
REMARK VINA RESULT:      -6.2     19.611     20.834
REMARK  Name = 
REMARK  2 active torsions:
REMARK  status: ('A' for Active; 'I' for Inactive)
REMARK    1  A    between atoms: C_2  and  C_3
REMARK    2  A    between atoms: C_3  and  C_4
REMARK                            x       y       z     vdW  Elec       q    Type
REMARK                         _______ _______ _______ _____ _____    ______ ____
ROOT
ATOM      1  C   UNL     1      34.168   2.599  37.565  0.00  0.00    +0.000 A 
ATOM      2  C   UNL     1      34.328   3.773  38.309  0.00  0.00    +0.000 A 
ATOM      3  C   UNL     1      34.354   5.014  37.698  0.00  0.00    +0.000 A 
ATOM      4  O   UNL     1      34.503   6.076  38.383  0.00  0.00    +0.000 OA
ATOM      5  O   UNL     1      34.222   5.036  36.408  0.00  0.00    +0.000 OA
ATOM      6  C   UNL     1      34.067   3.981  35.636  0.00  0.00    +0.000 A 
ATOM      7  C   UNL     1      33.931   4.101  34.268  0.00  0.00    +0.000 A 
ATOM      8  C   UNL     1      33.764   3.038  33.423  0.00  0.00    +0.000 A 
ATOM      9  O   UNL     1      33.627   3.156  32.038  0.00  0.00    +0.000 OA
ATOM     10  C   UNL     1      33.736   1.781  34.005  0.00  0.00    +0.000 A 
ATOM     11  C   UNL     1      33.868   1.623  35.370  0.00  0.00    +0.000 A 
ATOM     12  C   UNL     1      34.035   2.717  36.203  0.00  0.00    +0.000 A 
ATOM     13  O   UNL     1      33.829   0.353  35.902  0.00  0.00    +0.000 OA
ATOM     14  C   UNL     1      33.697  -0.816  35.140  0.00  0.00    +0.000 C 
ATOM     15  C   UNL     1      32.524  -1.601  35.688  0.00  0.00    +0.000 C 
ATOM     16  C   UNL     1      34.936  -1.681  35.422  0.00  0.00    +0.000 C 
ATOM     17  C   UNL     1      33.561  -0.578  33.696  0.00  0.00    +0.000 C 
ATOM     18  C   UNL     1      33.577   0.620  33.155  0.00  0.00    +0.000 C 
ENDROOT
BRANCH   1  19
ATOM     19  C   UNL     1      34.147   1.262  38.202  0.00  0.00    +0.000 C 
BRANCH  19  21
ATOM     20  C   UNL     1      32.567   0.022  39.631  0.00  0.00    +0.000 C 
ATOM     21  C   UNL     1      33.387   1.313  39.535  0.00  0.00    +0.000 C 
ENDBRANCH  19  21
ENDBRANCH   1  19
TORSDOF 2
ENDMDL
