MODEL 1
REMARK VINA RESULT:      -8.2      0.000      0.000
REMARK  Name = 
REMARK  6 active torsions:
REMARK  status: ('A' for Active; 'I' for Inactive)
REMARK    1  A    between atoms: O_2  and  C_3
REMARK    2  A    between atoms: C_6  and  C_7
REMARK    3  A    between atoms: C_17  and  O_18
REMARK    4  A    between atoms: O_18  and  C_19
REMARK    5  A    between atoms: C_19  and  C_20
REMARK    6  A    between atoms: C_29  and  O_30
REMARK                            x       y       z     vdW  Elec       q    Type
REMARK                         _______ _______ _______ _____ _____    ______ ____
ROOT
ATOM      1  C   UNL     1      38.118  -1.584  14.275  0.00  0.00    +0.000 C 
ATOM      2  N   UNL     1      39.610  -1.619  13.906  0.00  0.00    +0.000 NA
ATOM      3  C   UNL     1      40.408  -0.884  14.811  0.00  0.00    +0.000 C 
ATOM      4  C   UNL     1      40.299   0.543  14.286  0.00  0.00    +0.000 C 
ATOM      5  C   UNL     1      38.890   0.867  14.519  0.00  0.00    +0.000 A 
ATOM      6  C   UNL     1      37.926  -0.040  14.522  0.00  0.00    +0.000 A 
ATOM      7  N   UNL     1      36.701   0.550  14.769  0.00  0.00    +0.000 NA
ATOM      8  C   UNL     1      36.916   1.877  14.927  0.00  0.00    +0.000 A 
ATOM      9  C   UNL     1      36.103   2.968  15.190  0.00  0.00    +0.000 A 
ATOM     10  C   UNL     1      36.691   4.209  15.286  0.00  0.00    +0.000 A 
ATOM     11  C   UNL     1      38.041   4.454  15.138  0.00  0.00    +0.000 A 
ATOM     12  C   UNL     1      38.834   3.353  14.876  0.00  0.00    +0.000 A 
ATOM     13  C   UNL     1      38.284   2.095  14.773  0.00  0.00    +0.000 A 
ENDROOT
BRANCH   1  17
ATOM     14  C   UNL     1      38.623  -3.137  18.295  0.00  0.00    +0.000 A 
ATOM     15  C   UNL     1      38.992  -3.862  17.192  0.00  0.00    +0.000 A 
ATOM     16  C   UNL     1      38.826  -3.348  15.926  0.00  0.00    +0.000 A 
ATOM     17  C   UNL     1      38.278  -2.087  15.773  0.00  0.00    +0.000 A 
ATOM     18  C   UNL     1      37.924  -1.393  16.830  0.00  0.00    +0.000 A 
ATOM     19  C   UNL     1      38.082  -1.887  18.105  0.00  0.00    +0.000 A 
BRANCH  14  21
ATOM     20  C   UNL     1      39.060  -5.012  19.798  0.00  0.00    +0.000 C 
ATOM     21  O   UNL     1      38.781  -3.637  19.603  0.00  0.00    +0.000 OA
ENDBRANCH  14  21
BRANCH  19  22
ATOM     22  O   UNL     1      37.707  -1.152  19.216  0.00  0.00    +0.000 OA
ATOM     23  C   UNL     1      36.547  -0.338  19.236  0.00  0.00    +0.000 C 
ENDBRANCH  19  22
ENDBRANCH   1  17
BRANCH  11  24
ATOM     24  O   UNL     1      38.588   5.714  15.241  0.00  0.00    +0.000 OA
BRANCH  24  25
ATOM     25  C   UNL     1      38.534   6.614  16.248  0.00  0.00    +0.000 C 
BRANCH  25  26
ATOM     26  C   UNL     1      39.526   6.533  17.318  0.00  0.00    +0.000 A 
ATOM     27  C   UNL     1      40.883   6.494  17.159  0.00  0.00    +0.000 A 
ATOM     28  C   UNL     1      41.759   6.417  18.230  0.00  0.00    +0.000 A 
ATOM     29  C   UNL     1      41.241   6.378  19.502  0.00  0.00    +0.000 A 
ATOM     30  C   UNL     1      39.880   6.413  19.718  0.00  0.00    +0.000 A 
ATOM     31  C   UNL     1      39.054   6.491  18.616  0.00  0.00    +0.000 A 
ENDBRANCH  25  26
ENDBRANCH  24  25
ENDBRANCH  11  24
TORSDOF 6
ENDMDL
MODEL 2
REMARK VINA RESULT:      -8.0      3.725      6.986
REMARK  Name = 
REMARK  6 active torsions:
REMARK  status: ('A' for Active; 'I' for Inactive)
REMARK    1  A    between atoms: O_2  and  C_3
REMARK    2  A    between atoms: C_6  and  C_7
REMARK    3  A    between atoms: C_17  and  O_18
REMARK    4  A    between atoms: O_18  and  C_19
REMARK    5  A    between atoms: C_19  and  C_20
REMARK    6  A    between atoms: C_29  and  O_30
REMARK                            x       y       z     vdW  Elec       q    Type
REMARK                         _______ _______ _______ _____ _____    ______ ____
ROOT
ATOM      1  C   UNL     1      36.424  -2.738  15.581  0.00  0.00    +0.000 C 
ATOM      2  N   UNL     1      36.870  -2.985  17.032  0.00  0.00    +0.000 NA
ATOM      3  C   UNL     1      37.893  -2.101  17.440  0.00  0.00    +0.000 C 
ATOM      4  C   UNL     1      39.158  -2.775  16.924  0.00  0.00    +0.000 C 
ATOM      5  C   UNL     1      39.002  -2.686  15.470  0.00  0.00    +0.000 A 
ATOM      6  C   UNL     1      37.825  -2.666  14.865  0.00  0.00    +0.000 A 
ATOM      7  N   UNL     1      37.982  -2.576  13.495  0.00  0.00    +0.000 NA
ATOM      8  C   UNL     1      39.311  -2.538  13.241  0.00  0.00    +0.000 A 
ATOM      9  C   UNL     1      40.078  -2.451  12.091  0.00  0.00    +0.000 A 
ATOM     10  C   UNL     1      41.449  -2.438  12.222  0.00  0.00    +0.000 A 
ATOM     11  C   UNL     1      42.124  -2.504  13.423  0.00  0.00    +0.000 A 
ATOM     12  C   UNL     1      41.342  -2.590  14.559  0.00  0.00    +0.000 A 
ATOM     13  C   UNL     1      39.968  -2.606  14.469  0.00  0.00    +0.000 A 
ENDROOT
BRANCH   1  17
ATOM     14  C   UNL     1      35.424   1.447  16.141  0.00  0.00    +0.000 A 
ATOM     15  C   UNL     1      34.819   0.458  16.874  0.00  0.00    +0.000 A 
ATOM     16  C   UNL     1      35.154  -0.863  16.681  0.00  0.00    +0.000 A 
ATOM     17  C   UNL     1      36.111  -1.189  15.737  0.00  0.00    +0.000 A 
ATOM     18  C   UNL     1      36.690  -0.241  15.035  0.00  0.00    +0.000 A 
ATOM     19  C   UNL     1      36.370   1.086  15.212  0.00  0.00    +0.000 A 
BRANCH  14  21
ATOM     20  C   UNL     1      34.116   3.405  15.493  0.00  0.00    +0.000 C 
ATOM     21  O   UNL     1      35.101   2.807  16.316  0.00  0.00    +0.000 OA
ENDBRANCH  14  21
BRANCH  19  22
ATOM     22  O   UNL     1      36.982   2.080  14.470  0.00  0.00    +0.000 OA
ATOM     23  C   UNL     1      38.360   2.390  14.599  0.00  0.00    +0.000 C 
ENDBRANCH  19  22
ENDBRANCH   1  17
BRANCH  11  24
ATOM     24  O   UNL     1      43.500  -2.488  13.510  0.00  0.00    +0.000 OA
BRANCH  24  25
ATOM     25  C   UNL     1      44.350  -1.469  13.760  0.00  0.00    +0.000 C 
BRANCH  25  26
ATOM     26  C   UNL     1      44.917  -1.338  15.100  0.00  0.00    +0.000 A 
ATOM     27  C   UNL     1      45.009  -0.186  15.828  0.00  0.00    +0.000 A 
ATOM     28  C   UNL     1      45.562  -0.145  17.098  0.00  0.00    +0.000 A 
ATOM     29  C   UNL     1      46.036  -1.313  17.647  0.00  0.00    +0.000 A 
ATOM     30  C   UNL     1      45.967  -2.503  16.955  0.00  0.00    +0.000 A 
ATOM     31  C   UNL     1      45.407  -2.486  15.694  0.00  0.00    +0.000 A 
ENDBRANCH  25  26
ENDBRANCH  24  25
ENDBRANCH  11  24
TORSDOF 6
ENDMDL
MODEL 3
REMARK VINA RESULT:      -8.0      2.183      2.428
REMARK  Name = 
REMARK  6 active torsions:
REMARK  status: ('A' for Active; 'I' for Inactive)
REMARK    1  A    between atoms: O_2  and  C_3
REMARK    2  A    between atoms: C_6  and  C_7
REMARK    3  A    between atoms: C_17  and  O_18
REMARK    4  A    between atoms: O_18  and  C_19
REMARK    5  A    between atoms: C_19  and  C_20
REMARK    6  A    between atoms: C_29  and  O_30
REMARK                            x       y       z     vdW  Elec       q    Type
REMARK                         _______ _______ _______ _____ _____    ______ ____
ROOT
ATOM      1  C   UNL     1      38.266  -0.622  12.600  0.00  0.00    +0.000 C 
ATOM      2  N   UNL     1      39.680  -0.928  13.118  0.00  0.00    +0.000 NA
ATOM      3  C   UNL     1      39.803  -0.720  14.510  0.00  0.00    +0.000 C 
ATOM      4  C   UNL     1      40.076   0.775  14.613  0.00  0.00    +0.000 C 
ATOM      5  C   UNL     1      38.817   1.366  14.151  0.00  0.00    +0.000 A 
ATOM      6  C   UNL     1      38.014   0.776  13.279  0.00  0.00    +0.000 A 
ATOM      7  N   UNL     1      36.904   1.561  13.031  0.00  0.00    +0.000 NA
ATOM      8  C   UNL     1      37.024   2.682  13.780  0.00  0.00    +0.000 A 
ATOM      9  C   UNL     1      36.251   3.818  13.960  0.00  0.00    +0.000 A 
ATOM     10  C   UNL     1      36.705   4.783  14.831  0.00  0.00    +0.000 A 
ATOM     11  C   UNL     1      37.883   4.705  15.545  0.00  0.00    +0.000 A 
ATOM     12  C   UNL     1      38.640   3.566  15.352  0.00  0.00    +0.000 A 
ATOM     13  C   UNL     1      38.220   2.578  14.490  0.00  0.00    +0.000 A 
ENDROOT
BRANCH   1  17
ATOM     14  C   UNL     1      36.210  -3.362  15.263  0.00  0.00    +0.000 A 
ATOM     15  C   UNL     1      37.097  -3.807  14.317  0.00  0.00    +0.000 A 
ATOM     16  C   UNL     1      37.740  -2.920  13.485  0.00  0.00    +0.000 A 
ATOM     17  C   UNL     1      37.483  -1.566  13.609  0.00  0.00    +0.000 A 
ATOM     18  C   UNL     1      36.633  -1.140  14.516  0.00  0.00    +0.000 A 
ATOM     19  C   UNL     1      35.980  -2.011  15.359  0.00  0.00    +0.000 A 
BRANCH  14  21
ATOM     20  C   UNL     1      35.216  -5.553  15.684  0.00  0.00    +0.000 C 
ATOM     21  O   UNL     1      35.538  -4.247  16.129  0.00  0.00    +0.000 OA
ENDBRANCH  14  21
BRANCH  19  22
ATOM     22  O   UNL     1      35.085  -1.557  16.311  0.00  0.00    +0.000 OA
ATOM     23  C   UNL     1      35.494  -1.132  17.601  0.00  0.00    +0.000 C 
ENDBRANCH  19  22
ENDBRANCH   1  17
BRANCH  11  24
ATOM     24  O   UNL     1      38.300   5.696  16.408  0.00  0.00    +0.000 OA
BRANCH  24  25
ATOM     25  C   UNL     1      38.475   5.676  17.747  0.00  0.00    +0.000 C 
BRANCH  25  26
ATOM     26  C   UNL     1      39.790   6.009  18.290  0.00  0.00    +0.000 A 
ATOM     27  C   UNL     1      40.097   6.188  19.609  0.00  0.00    +0.000 A 
ATOM     28  C   UNL     1      41.374   6.502  20.044  0.00  0.00    +0.000 A 
ATOM     29  C   UNL     1      42.372   6.640  19.110  0.00  0.00    +0.000 A 
ATOM     30  C   UNL     1      42.116   6.470  17.766  0.00  0.00    +0.000 A 
ATOM     31  C   UNL     1      40.827   6.157  17.388  0.00  0.00    +0.000 A 
ENDBRANCH  25  26
ENDBRANCH  24  25
ENDBRANCH  11  24
TORSDOF 6
ENDMDL
MODEL 4
REMARK VINA RESULT:      -7.5      4.103      6.739
REMARK  Name = 
REMARK  6 active torsions:
REMARK  status: ('A' for Active; 'I' for Inactive)
REMARK    1  A    between atoms: O_2  and  C_3
REMARK    2  A    between atoms: C_6  and  C_7
REMARK    3  A    between atoms: C_17  and  O_18
REMARK    4  A    between atoms: O_18  and  C_19
REMARK    5  A    between atoms: C_19  and  C_20
REMARK    6  A    between atoms: C_29  and  O_30
REMARK                            x       y       z     vdW  Elec       q    Type
REMARK                         _______ _______ _______ _____ _____    ______ ____
ROOT
ATOM      1  C   UNL     1      37.028  -2.841  14.642  0.00  0.00    +0.000 C 
ATOM      2  N   UNL     1      37.380  -3.409  16.027  0.00  0.00    +0.000 NA
ATOM      3  C   UNL     1      38.255  -2.569  16.749  0.00  0.00    +0.000 C 
ATOM      4  C   UNL     1      39.629  -2.968  16.223  0.00  0.00    +0.000 C 
ATOM      5  C   UNL     1      39.583  -2.523  14.827  0.00  0.00    +0.000 A 
ATOM      6  C   UNL     1      38.465  -2.458  14.122  0.00  0.00    +0.000 A 
ATOM      7  N   UNL     1      38.722  -2.005  12.842  0.00  0.00    +0.000 NA
ATOM      8  C   UNL     1      40.053  -1.780  12.752  0.00  0.00    +0.000 A 
ATOM      9  C   UNL     1      40.896  -1.331  11.748  0.00  0.00    +0.000 A 
ATOM     10  C   UNL     1      42.240  -1.224  12.027  0.00  0.00    +0.000 A 
ATOM     11  C   UNL     1      42.819  -1.534  13.241  0.00  0.00    +0.000 A 
ATOM     12  C   UNL     1      41.961  -1.981  14.228  0.00  0.00    +0.000 A 
ATOM     13  C   UNL     1      40.611  -2.101  13.989  0.00  0.00    +0.000 A 
ENDROOT
BRANCH   1  17
ATOM     14  C   UNL     1      35.713   1.121  15.824  0.00  0.00    +0.000 A 
ATOM     15  C   UNL     1      36.234   0.877  14.580  0.00  0.00    +0.000 A 
ATOM     16  C   UNL     1      36.642  -0.388  14.225  0.00  0.00    +0.000 A 
ATOM     17  C   UNL     1      36.524  -1.420  15.139  0.00  0.00    +0.000 A 
ATOM     18  C   UNL     1      36.024  -1.186  16.332  0.00  0.00    +0.000 A 
ATOM     19  C   UNL     1      35.610   0.072  16.707  0.00  0.00    +0.000 A 
BRANCH  14  21
ATOM     20  C   UNL     1      34.458   3.162  15.351  0.00  0.00    +0.000 C 
ATOM     21  O   UNL     1      35.288   2.406  16.215  0.00  0.00    +0.000 OA
ENDBRANCH  14  21
BRANCH  19  22
ATOM     22  O   UNL     1      35.085   0.314  17.964  0.00  0.00    +0.000 OA
ATOM     23  C   UNL     1      35.597  -0.298  19.135  0.00  0.00    +0.000 C 
ENDBRANCH  19  22
ENDBRANCH   1  17
BRANCH  11  24
ATOM     24  O   UNL     1      44.171  -1.413  13.477  0.00  0.00    +0.000 OA
BRANCH  24  25
ATOM     25  C   UNL     1      44.998  -2.162  14.238  0.00  0.00    +0.000 C 
BRANCH  25  26
ATOM     26  C   UNL     1      45.343  -1.690  15.578  0.00  0.00    +0.000 A 
ATOM     27  C   UNL     1      45.246  -0.404  16.030  0.00  0.00    +0.000 A 
ATOM     28  C   UNL     1      45.594  -0.037  17.320  0.00  0.00    +0.000 A 
ATOM     29  C   UNL     1      46.054  -1.006  18.178  0.00  0.00    +0.000 A 
ATOM     30  C   UNL     1      46.171  -2.319  17.773  0.00  0.00    +0.000 A 
ATOM     31  C   UNL     1      45.811  -2.629  16.478  0.00  0.00    +0.000 A 
ENDBRANCH  25  26
ENDBRANCH  24  25
ENDBRANCH  11  24
TORSDOF 6
ENDMDL
MODEL 5
REMARK VINA RESULT:      -7.2     23.840     26.782
REMARK  Name = 
REMARK  6 active torsions:
REMARK  status: ('A' for Active; 'I' for Inactive)
REMARK    1  A    between atoms: O_2  and  C_3
REMARK    2  A    between atoms: C_6  and  C_7
REMARK    3  A    between atoms: C_17  and  O_18
REMARK    4  A    between atoms: O_18  and  C_19
REMARK    5  A    between atoms: C_19  and  C_20
REMARK    6  A    between atoms: C_29  and  O_30
REMARK                            x       y       z     vdW  Elec       q    Type
REMARK                         _______ _______ _______ _____ _____    ______ ____
ROOT
ATOM      1  C   UNL     1      11.640   0.028  28.246  0.00  0.00    +0.000 C 
ATOM      2  N   UNL     1      11.072  -0.245  26.843  0.00  0.00    +0.000 NA
ATOM      3  C   UNL     1      11.708  -1.333  26.205  0.00  0.00    +0.000 C 
ATOM      4  C   UNL     1      12.949  -0.695  25.591  0.00  0.00    +0.000 C 
ATOM      5  C   UNL     1      13.730  -0.309  26.769  0.00  0.00    +0.000 A 
ATOM      6  C   UNL     1      13.184   0.007  27.932  0.00  0.00    +0.000 A 
ATOM      7  N   UNL     1      14.159   0.327  28.858  0.00  0.00    +0.000 NA
ATOM      8  C   UNL     1      15.358   0.203  28.243  0.00  0.00    +0.000 A 
ATOM      9  C   UNL     1      16.674   0.383  28.636  0.00  0.00    +0.000 A 
ATOM     10  C   UNL     1      17.667   0.158  27.708  0.00  0.00    +0.000 A 
ATOM     11  C   UNL     1      17.449  -0.237  26.404  0.00  0.00    +0.000 A 
ATOM     12  C   UNL     1      16.130  -0.410  26.031  0.00  0.00    +0.000 A 
ATOM     13  C   UNL     1      15.109  -0.195  26.930  0.00  0.00    +0.000 A 
ENDROOT
BRANCH   1  17
ATOM     14  C   UNL     1      10.934  -3.981  29.748  0.00  0.00    +0.000 A 
ATOM     15  C   UNL     1       9.971  -3.290  29.059  0.00  0.00    +0.000 A 
ATOM     16  C   UNL     1      10.218  -2.021  28.589  0.00  0.00    +0.000 A 
ATOM     17  C   UNL     1      11.452  -1.441  28.819  0.00  0.00    +0.000 A 
ATOM     18  C   UNL     1      12.375  -2.103  29.480  0.00  0.00    +0.000 A 
ATOM     19  C   UNL     1      12.149  -3.374  29.958  0.00  0.00    +0.000 A 
BRANCH  14  21
ATOM     20  C   UNL     1       9.389  -5.789  30.303  0.00  0.00    +0.000 C 
ATOM     21  O   UNL     1      10.710  -5.281  30.241  0.00  0.00    +0.000 OA
ENDBRANCH  14  21
BRANCH  19  22
ATOM     22  O   UNL     1      13.124  -4.066  30.654  0.00  0.00    +0.000 OA
ATOM     23  C   UNL     1      13.317  -3.917  32.051  0.00  0.00    +0.000 C 
ENDBRANCH  19  22
ENDBRANCH   1  17
BRANCH  11  24
ATOM     24  O   UNL     1      18.473  -0.451  25.507  0.00  0.00    +0.000 OA
BRANCH  24  25
ATOM     25  C   UNL     1      19.200   0.426  24.781  0.00  0.00    +0.000 C 
BRANCH  25  26
ATOM     26  C   UNL     1      19.826  -0.034  23.542  0.00  0.00    +0.000 A 
ATOM     27  C   UNL     1      20.304   0.758  22.537  0.00  0.00    +0.000 A 
ATOM     28  C   UNL     1      20.885   0.242  21.391  0.00  0.00    +0.000 A 
ATOM     29  C   UNL     1      20.984  -1.122  21.260  0.00  0.00    +0.000 A 
ATOM     30  C   UNL     1      20.517  -1.967  22.244  0.00  0.00    +0.000 A 
ATOM     31  C   UNL     1      19.948  -1.399  23.365  0.00  0.00    +0.000 A 
ENDBRANCH  25  26
ENDBRANCH  24  25
ENDBRANCH  11  24
TORSDOF 6
ENDMDL
MODEL 6
REMARK VINA RESULT:      -7.2      1.973      3.203
REMARK  Name = 
REMARK  6 active torsions:
REMARK  status: ('A' for Active; 'I' for Inactive)
REMARK    1  A    between atoms: O_2  and  C_3
REMARK    2  A    between atoms: C_6  and  C_7
REMARK    3  A    between atoms: C_17  and  O_18
REMARK    4  A    between atoms: O_18  and  C_19
REMARK    5  A    between atoms: C_19  and  C_20
REMARK    6  A    between atoms: C_29  and  O_30
REMARK                            x       y       z     vdW  Elec       q    Type
REMARK                         _______ _______ _______ _____ _____    ______ ____
ROOT
ATOM      1  C   UNL     1      36.857   1.023  13.268  0.00  0.00    +0.000 C 
ATOM      2  N   UNL     1      38.175   0.233  13.215  0.00  0.00    +0.000 NA
ATOM      3  C   UNL     1      38.932   0.365  14.400  0.00  0.00    +0.000 C 
ATOM      4  C   UNL     1      39.690   1.669  14.182  0.00  0.00    +0.000 C 
ATOM      5  C   UNL     1      38.620   2.670  14.184  0.00  0.00    +0.000 A 
ATOM      6  C   UNL     1      37.382   2.411  13.793  0.00  0.00    +0.000 A 
ATOM      7  N   UNL     1      36.591   3.539  13.904  0.00  0.00    +0.000 NA
ATOM      8  C   UNL     1      37.371   4.536  14.382  0.00  0.00    +0.000 A 
ATOM      9  C   UNL     1      37.159   5.869  14.699  0.00  0.00    +0.000 A 
ATOM     10  C   UNL     1      38.223   6.601  15.177  0.00  0.00    +0.000 A 
ATOM     11  C   UNL     1      39.497   6.106  15.366  0.00  0.00    +0.000 A 
ATOM     12  C   UNL     1      39.688   4.775  15.044  0.00  0.00    +0.000 A 
ATOM     13  C   UNL     1      38.649   4.009  14.564  0.00  0.00    +0.000 A 
ENDROOT
BRANCH   1  17
ATOM     14  C   UNL     1      35.321  -0.492  17.033  0.00  0.00    +0.000 A 
ATOM     15  C   UNL     1      35.238   0.837  16.703  0.00  0.00    +0.000 A 
ATOM     16  C   UNL     1      35.729   1.294  15.502  0.00  0.00    +0.000 A 
ATOM     17  C   UNL     1      36.313   0.400  14.623  0.00  0.00    +0.000 A 
ATOM     18  C   UNL     1      36.392  -0.873  14.939  0.00  0.00    +0.000 A 
ATOM     19  C   UNL     1      35.907  -1.352  16.135  0.00  0.00    +0.000 A 
BRANCH  14  21
ATOM     20  C   UNL     1      35.501  -0.678  19.461  0.00  0.00    +0.000 C 
ATOM     21  O   UNL     1      34.827  -0.989  18.255  0.00  0.00    +0.000 OA
ENDBRANCH  14  21
BRANCH  19  22
ATOM     22  O   UNL     1      35.994  -2.693  16.463  0.00  0.00    +0.000 OA
ATOM     23  C   UNL     1      37.189  -3.440  16.313  0.00  0.00    +0.000 C 
ENDBRANCH  19  22
ENDBRANCH   1  17
BRANCH  11  24
ATOM     24  O   UNL     1      40.535   6.875  15.847  0.00  0.00    +0.000 OA
BRANCH  24  25
ATOM     25  C   UNL     1      41.734   6.512  16.352  0.00  0.00    +0.000 C 
BRANCH  25  26
ATOM     26  C   UNL     1      41.921   6.531  17.801  0.00  0.00    +0.000 A 
ATOM     27  C   UNL     1      43.098   6.748  18.460  0.00  0.00    +0.000 A 
ATOM     28  C   UNL     1      43.193   6.750  19.842  0.00  0.00    +0.000 A 
ATOM     29  C   UNL     1      42.056   6.524  20.580  0.00  0.00    +0.000 A 
ATOM     30  C   UNL     1      40.842   6.299  19.965  0.00  0.00    +0.000 A 
ATOM     31  C   UNL     1      40.805   6.309  18.586  0.00  0.00    +0.000 A 
ENDBRANCH  25  26
ENDBRANCH  24  25
ENDBRANCH  11  24
TORSDOF 6
ENDMDL
MODEL 7
REMARK VINA RESULT:      -7.1     25.758     27.914
REMARK  Name = 
REMARK  6 active torsions:
REMARK  status: ('A' for Active; 'I' for Inactive)
REMARK    1  A    between atoms: O_2  and  C_3
REMARK    2  A    between atoms: C_6  and  C_7
REMARK    3  A    between atoms: C_17  and  O_18
REMARK    4  A    between atoms: O_18  and  C_19
REMARK    5  A    between atoms: C_19  and  C_20
REMARK    6  A    between atoms: C_29  and  O_30
REMARK                            x       y       z     vdW  Elec       q    Type
REMARK                         _______ _______ _______ _____ _____    ______ ____
ROOT
ATOM      1  C   UNL     1      27.677  15.108  40.341  0.00  0.00    +0.000 C 
ATOM      2  N   UNL     1      26.166  15.011  40.610  0.00  0.00    +0.000 NA
ATOM      3  C   UNL     1      25.519  14.109  39.738  0.00  0.00    +0.000 C 
ATOM      4  C   UNL     1      25.255  14.956  38.498  0.00  0.00    +0.000 C 
ATOM      5  C   UNL     1      26.606  15.221  37.995  0.00  0.00    +0.000 A 
ATOM      6  C   UNL     1      27.672  15.290  38.777  0.00  0.00    +0.000 A 
ATOM      7  N   UNL     1      28.806  15.550  38.031  0.00  0.00    +0.000 NA
ATOM      8  C   UNL     1      28.427  15.646  36.736  0.00  0.00    +0.000 A 
ATOM      9  C   UNL     1      29.091  15.888  35.544  0.00  0.00    +0.000 A 
ATOM     10  C   UNL     1      28.353  15.914  34.382  0.00  0.00    +0.000 A 
ATOM     11  C   UNL     1      26.990  15.717  34.311  0.00  0.00    +0.000 A 
ATOM     12  C   UNL     1      26.345  15.477  35.510  0.00  0.00    +0.000 A 
ATOM     13  C   UNL     1      27.048  15.443  36.694  0.00  0.00    +0.000 A 
ENDROOT
BRANCH   1  17
ATOM     14  C   UNL     1      28.721  10.902  40.541  0.00  0.00    +0.000 A 
ATOM     15  C   UNL     1      29.635  11.854  40.169  0.00  0.00    +0.000 A 
ATOM     16  C   UNL     1      29.282  13.182  40.115  0.00  0.00    +0.000 A 
ATOM     17  C   UNL     1      27.990  13.555  40.440  0.00  0.00    +0.000 A 
ATOM     18  C   UNL     1      27.115  12.643  40.797  0.00  0.00    +0.000 A 
ATOM     19  C   UNL     1      27.446  11.308  40.858  0.00  0.00    +0.000 A 
BRANCH  14  21
ATOM     20  C   UNL     1      30.314   9.143  41.117  0.00  0.00    +0.000 C 
ATOM     21  O   UNL     1      29.053   9.534  40.605  0.00  0.00    +0.000 OA
ENDBRANCH  14  21
BRANCH  19  22
ATOM     22  O   UNL     1      26.520  10.351  41.233  0.00  0.00    +0.000 OA
ATOM     23  C   UNL     1      26.142  10.144  42.584  0.00  0.00    +0.000 C 
ENDBRANCH  19  22
ENDBRANCH   1  17
BRANCH  11  24
ATOM     24  O   UNL     1      26.290  15.752  33.124  0.00  0.00    +0.000 OA
BRANCH  24  25
ATOM     25  C   UNL     1      25.007  16.090  32.873  0.00  0.00    +0.000 C 
BRANCH  25  26
ATOM     26  C   UNL     1      24.625  17.499  32.938  0.00  0.00    +0.000 A 
ATOM     27  C   UNL     1      24.675  18.299  34.045  0.00  0.00    +0.000 A 
ATOM     28  C   UNL     1      24.294  19.630  34.024  0.00  0.00    +0.000 A 
ATOM     29  C   UNL     1      23.847  20.168  32.841  0.00  0.00    +0.000 A 
ATOM     30  C   UNL     1      23.776  19.405  31.695  0.00  0.00    +0.000 A 
ATOM     31  C   UNL     1      24.169  18.085  31.772  0.00  0.00    +0.000 A 
ENDBRANCH  25  26
ENDBRANCH  24  25
ENDBRANCH  11  24
TORSDOF 6
ENDMDL
MODEL 8
REMARK VINA RESULT:      -7.0      2.344      4.156
REMARK  Name = 
REMARK  6 active torsions:
REMARK  status: ('A' for Active; 'I' for Inactive)
REMARK    1  A    between atoms: O_2  and  C_3
REMARK    2  A    between atoms: C_6  and  C_7
REMARK    3  A    between atoms: C_17  and  O_18
REMARK    4  A    between atoms: O_18  and  C_19
REMARK    5  A    between atoms: C_19  and  C_20
REMARK    6  A    between atoms: C_29  and  O_30
REMARK                            x       y       z     vdW  Elec       q    Type
REMARK                         _______ _______ _______ _____ _____    ______ ____
ROOT
ATOM      1  C   UNL     1      36.471   2.549  13.901  0.00  0.00    +0.000 C 
ATOM      2  N   UNL     1      37.096   3.051  12.589  0.00  0.00    +0.000 NA
ATOM      3  C   UNL     1      38.508   3.030  12.620  0.00  0.00    +0.000 C 
ATOM      4  C   UNL     1      38.858   4.345  13.304  0.00  0.00    +0.000 C 
ATOM      5  C   UNL     1      38.347   4.150  14.663  0.00  0.00    +0.000 A 
ATOM      6  C   UNL     1      37.314   3.373  14.946  0.00  0.00    +0.000 A 
ATOM      7  N   UNL     1      37.058   3.378  16.304  0.00  0.00    +0.000 NA
ATOM      8  C   UNL     1      37.971   4.190  16.886  0.00  0.00    +0.000 A 
ATOM      9  C   UNL     1      38.225   4.591  18.188  0.00  0.00    +0.000 A 
ATOM     10  C   UNL     1      39.273   5.456  18.409  0.00  0.00    +0.000 A 
ATOM     11  C   UNL     1      40.098   5.960  17.425  0.00  0.00    +0.000 A 
ATOM     12  C   UNL     1      39.828   5.549  16.133  0.00  0.00    +0.000 A 
ATOM     13  C   UNL     1      38.789   4.685  15.871  0.00  0.00    +0.000 A 
ENDROOT
BRANCH   1  17
ATOM     14  C   UNL     1      38.511  -1.279  13.867  0.00  0.00    +0.000 A 
ATOM     15  C   UNL     1      37.934  -0.761  12.737  0.00  0.00    +0.000 A 
ATOM     16  C   UNL     1      37.294   0.456  12.770  0.00  0.00    +0.000 A 
ATOM     17  C   UNL     1      37.236   1.159  13.960  0.00  0.00    +0.000 A 
ATOM     18  C   UNL     1      37.790   0.663  15.043  0.00  0.00    +0.000 A 
ATOM     19  C   UNL     1      38.435  -0.553  15.032  0.00  0.00    +0.000 A 
BRANCH  14  21
ATOM     20  C   UNL     1      40.500  -2.610  13.377  0.00  0.00    +0.000 C 
ATOM     21  O   UNL     1      39.172  -2.524  13.863  0.00  0.00    +0.000 OA
ENDBRANCH  14  21
BRANCH  19  22
ATOM     22  O   UNL     1      39.016  -1.072  16.175  0.00  0.00    +0.000 OA
ATOM     23  C   UNL     1      38.275  -1.786  17.151  0.00  0.00    +0.000 C 
ENDBRANCH  19  22
ENDBRANCH   1  17
BRANCH  11  24
ATOM     24  O   UNL     1      41.137   6.825  17.691  0.00  0.00    +0.000 OA
BRANCH  24  25
ATOM     25  C   UNL     1      42.473   6.622  17.678  0.00  0.00    +0.000 C 
BRANCH  25  26
ATOM     26  C   UNL     1      43.196   6.618  18.948  0.00  0.00    +0.000 A 
ATOM     27  C   UNL     1      44.535   6.834  19.115  0.00  0.00    +0.000 A 
ATOM     28  C   UNL     1      45.147   6.814  20.358  0.00  0.00    +0.000 A 
ATOM     29  C   UNL     1      44.374   6.567  21.467  0.00  0.00    +0.000 A 
ATOM     30  C   UNL     1      43.019   6.343  21.355  0.00  0.00    +0.000 A 
ATOM     31  C   UNL     1      42.461   6.374  20.093  0.00  0.00    +0.000 A 
ENDBRANCH  25  26
ENDBRANCH  24  25
ENDBRANCH  11  24
TORSDOF 6
ENDMDL
MODEL 9
REMARK VINA RESULT:      -7.0      2.592      3.783
REMARK  Name = 
REMARK  6 active torsions:
REMARK  status: ('A' for Active; 'I' for Inactive)
REMARK    1  A    between atoms: O_2  and  C_3
REMARK    2  A    between atoms: C_6  and  C_7
REMARK    3  A    between atoms: C_17  and  O_18
REMARK    4  A    between atoms: O_18  and  C_19
REMARK    5  A    between atoms: C_19  and  C_20
REMARK    6  A    between atoms: C_29  and  O_30
REMARK                            x       y       z     vdW  Elec       q    Type
REMARK                         _______ _______ _______ _____ _____    ______ ____
ROOT
ATOM      1  C   UNL     1      37.687   0.408  11.707  0.00  0.00    +0.000 C 
ATOM      2  N   UNL     1      38.563   1.295  10.807  0.00  0.00    +0.000 NA
ATOM      3  C   UNL     1      39.718   1.764  11.472  0.00  0.00    +0.000 C 
ATOM      4  C   UNL     1      39.212   2.996  12.213  0.00  0.00    +0.000 C 
ATOM      5  C   UNL     1      38.292   2.425  13.200  0.00  0.00    +0.000 A 
ATOM      6  C   UNL     1      37.621   1.301  13.002  0.00  0.00    +0.000 A 
ATOM      7  N   UNL     1      36.834   1.005  14.099  0.00  0.00    +0.000 NA
ATOM      8  C   UNL     1      37.027   1.984  15.013  0.00  0.00    +0.000 A 
ATOM      9  C   UNL     1      36.531   2.241  16.281  0.00  0.00    +0.000 A 
ATOM     10  C   UNL     1      36.967   3.373  16.933  0.00  0.00    +0.000 A 
ATOM     11  C   UNL     1      37.868   4.281  16.416  0.00  0.00    +0.000 A 
ATOM     12  C   UNL     1      38.350   4.007  15.150  0.00  0.00    +0.000 A 
ATOM     13  C   UNL     1      37.939   2.886  14.465  0.00  0.00    +0.000 A 
ENDROOT
BRANCH   1  17
ATOM     14  C   UNL     1      40.827  -2.425  12.673  0.00  0.00    +0.000 A 
ATOM     15  C   UNL     1      40.552  -2.070  11.378  0.00  0.00    +0.000 A 
ATOM     16  C   UNL     1      39.553  -1.168  11.095  0.00  0.00    +0.000 A 
ATOM     17  C   UNL     1      38.822  -0.617  12.133  0.00  0.00    +0.000 A 
ATOM     18  C   UNL     1      39.087  -0.957  13.374  0.00  0.00    +0.000 A 
ATOM     19  C   UNL     1      40.082  -1.858  13.679  0.00  0.00    +0.000 A 
BRANCH  14  21
ATOM     20  C   UNL     1      43.194  -2.919  13.023  0.00  0.00    +0.000 C 
ATOM     21  O   UNL     1      41.844  -3.347  12.993  0.00  0.00    +0.000 OA
ENDBRANCH  14  21
BRANCH  19  22
ATOM     22  O   UNL     1      40.356  -2.214  14.988  0.00  0.00    +0.000 OA
ATOM     23  C   UNL     1      39.379  -2.162  16.013  0.00  0.00    +0.000 C 
ENDBRANCH  19  22
ENDBRANCH   1  17
BRANCH  11  24
ATOM     24  O   UNL     1      38.277   5.403  17.104  0.00  0.00    +0.000 OA
BRANCH  24  25
ATOM     25  C   UNL     1      38.661   5.551  18.390  0.00  0.00    +0.000 C 
BRANCH  25  26
ATOM     26  C   UNL     1      40.030   5.980  18.671  0.00  0.00    +0.000 A 
ATOM     27  C   UNL     1      40.563   6.221  19.906  0.00  0.00    +0.000 A 
ATOM     28  C   UNL     1      41.875   6.626  20.089  0.00  0.00    +0.000 A 
ATOM     29  C   UNL     1      42.672   6.792  18.982  0.00  0.00    +0.000 A 
ATOM     30  C   UNL     1      42.184   6.563  17.713  0.00  0.00    +0.000 A 
ATOM     31  C   UNL     1      40.870   6.160  17.589  0.00  0.00    +0.000 A 
ENDBRANCH  25  26
ENDBRANCH  24  25
ENDBRANCH  11  24
TORSDOF 6
ENDMDL
MODEL 10
REMARK VINA RESULT:      -6.9     28.284     31.473
REMARK  Name = 
REMARK  6 active torsions:
REMARK  status: ('A' for Active; 'I' for Inactive)
REMARK    1  A    between atoms: O_2  and  C_3
REMARK    2  A    between atoms: C_6  and  C_7
REMARK    3  A    between atoms: C_17  and  O_18
REMARK    4  A    between atoms: O_18  and  C_19
REMARK    5  A    between atoms: C_19  and  C_20
REMARK    6  A    between atoms: C_29  and  O_30
REMARK                            x       y       z     vdW  Elec       q    Type
REMARK                         _______ _______ _______ _____ _____    ______ ____
ROOT
ATOM      1  C   UNL     1      23.494  14.696  44.414  0.00  0.00    +0.000 C 
ATOM      2  N   UNL     1      22.135  15.398  44.262  0.00  0.00    +0.000 NA
ATOM      3  C   UNL     1      21.422  14.958  43.126  0.00  0.00    +0.000 C 
ATOM      4  C   UNL     1      22.001  15.811  42.004  0.00  0.00    +0.000 C 
ATOM      5  C   UNL     1      23.383  15.335  41.915  0.00  0.00    +0.000 A 
ATOM      6  C   UNL     1      24.051  14.845  42.948  0.00  0.00    +0.000 A 
ATOM      7  N   UNL     1      25.328  14.475  42.571  0.00  0.00    +0.000 NA
ATOM      8  C   UNL     1      25.456  14.746  41.252  0.00  0.00    +0.000 A 
ATOM      9  C   UNL     1      26.476  14.601  40.325  0.00  0.00    +0.000 A 
ATOM     10  C   UNL     1      26.238  15.000  39.028  0.00  0.00    +0.000 A 
ATOM     11  C   UNL     1      25.051  15.538  38.576  0.00  0.00    +0.000 A 
ATOM     12  C   UNL     1      24.046  15.674  39.516  0.00  0.00    +0.000 A 
ATOM     13  C   UNL     1      24.245  15.287  40.822  0.00  0.00    +0.000 A 
ENDROOT
BRANCH   1  17
ATOM     14  C   UNL     1      21.865  10.675  44.391  0.00  0.00    +0.000 A 
ATOM     15  C   UNL     1      21.299  11.677  45.137  0.00  0.00    +0.000 A 
ATOM     16  C   UNL     1      21.831  12.945  45.127  0.00  0.00    +0.000 A 
ATOM     17  C   UNL     1      22.949  13.206  44.355  0.00  0.00    +0.000 A 
ATOM     18  C   UNL     1      23.490  12.246  43.640  0.00  0.00    +0.000 A 
ATOM     19  C   UNL     1      22.974  10.970  43.635  0.00  0.00    +0.000 A 
BRANCH  14  21
ATOM     20  C   UNL     1      19.983   9.153  44.719  0.00  0.00    +0.000 C 
ATOM     21  O   UNL     1      21.342   9.367  44.382  0.00  0.00    +0.000 OA
ENDBRANCH  14  21
BRANCH  19  22
ATOM     22  O   UNL     1      23.549   9.962  42.882  0.00  0.00    +0.000 OA
ATOM     23  C   UNL     1      24.726   9.283  43.286  0.00  0.00    +0.000 C 
ENDBRANCH  19  22
ENDBRANCH   1  17
BRANCH  11  24
ATOM     24  O   UNL     1      24.855  15.924  37.268  0.00  0.00    +0.000 OA
BRANCH  24  25
ATOM     25  C   UNL     1      25.735  16.368  36.344  0.00  0.00    +0.000 C 
BRANCH  25  26
ATOM     26  C   UNL     1      25.510  16.031  34.940  0.00  0.00    +0.000 A 
ATOM     27  C   UNL     1      25.013  16.867  33.979  0.00  0.00    +0.000 A 
ATOM     28  C   UNL     1      24.829  16.469  32.665  0.00  0.00    +0.000 A 
ATOM     29  C   UNL     1      25.160  15.182  32.314  0.00  0.00    +0.000 A 
ATOM     30  C   UNL     1      25.664  14.299  33.244  0.00  0.00    +0.000 A 
ATOM     31  C   UNL     1      25.828  14.747  34.538  0.00  0.00    +0.000 A 
ENDBRANCH  25  26
ENDBRANCH  24  25
ENDBRANCH  11  24
TORSDOF 6
ENDMDL
