MODEL 1
REMARK VINA RESULT:      -8.2      0.000      0.000
REMARK  Name = 
REMARK  7 active torsions:
REMARK  status: ('A' for Active; 'I' for Inactive)
REMARK    1  A    between atoms: C_2  and  N_3
REMARK    2  A    between atoms: N_3  and  C_4
REMARK    3  A    between atoms: N_3  and  C_6
REMARK    4  A    between atoms: C_9  and  N_10
REMARK    5  A    between atoms: C_11  and  C_13
REMARK    6  A    between atoms: C_15  and  C_16
REMARK    7  A    between atoms: C_19  and  O_20
REMARK                            x       y       z     vdW  Elec       q    Type
REMARK                         _______ _______ _______ _____ _____    ______ ____
ROOT
ATOM      1  C   UNL     1      37.326   4.050  16.044  0.00  0.00    +0.000 A 
ATOM      2  C   UNL     1      38.318   4.398  16.968  0.00  0.00    +0.000 A 
ATOM      3  C   UNL     1      38.900   5.650  16.940  0.00  0.00    +0.000 A 
ATOM      4  N   UNL     1      38.469   6.502  15.993  0.00  0.00    +0.000 NA
ATOM      5  C   UNL     1      37.518   6.204  15.089  0.00  0.00    +0.000 A 
ATOM      6  C   UNL     1      37.095   7.101  14.132  0.00  0.00    +0.000 A 
ATOM      7  C   UNL     1      36.116   6.799  13.206  0.00  0.00    +0.000 A 
ATOM      8  C   UNL     1      35.544   5.547  13.245  0.00  0.00    +0.000 A 
ATOM      9  C   UNL     1      35.929   4.611  14.180  0.00  0.00    +0.000 A 
ATOM     10  C   UNL     1      36.918   4.956  15.094  0.00  0.00    +0.000 A 
ENDROOT
BRANCH   3  11
ATOM     11  C   UNL     1      39.933   6.009  17.901  0.00  0.00    +0.000 A 
ATOM     12  C   UNL     1      41.218   6.306  17.481  0.00  0.00    +0.000 A 
ATOM     13  C   UNL     1      42.227   6.641  18.360  0.00  0.00    +0.000 A 
ATOM     14  C   UNL     1      41.993   6.695  19.739  0.00  0.00    +0.000 A 
ATOM     15  C   UNL     1      40.719   6.400  20.150  0.00  0.00    +0.000 A 
ATOM     16  C   UNL     1      39.709   6.065  19.259  0.00  0.00    +0.000 A 
BRANCH  14  17
ATOM     17  O   UNL     1      43.006   7.031  20.628  0.00  0.00    +0.000 OA
ATOM     18  C   UNL     1      43.414   6.109  21.635  0.00  0.00    +0.000 C 
ENDBRANCH  14  17
ENDBRANCH   3  11
BRANCH   1  20
ATOM     19  N   UNL     1      37.438   1.599  15.630  0.00  0.00    +0.000 NA
ATOM     20  C   UNL     1      36.706   2.720  16.059  0.00  0.00    +0.000 C 
ATOM     21  O   UNL     1      35.520   2.563  16.455  0.00  0.00    +0.000 OA
BRANCH  19  25
ATOM     22  C   UNL     1      35.958  -2.287  15.483  0.00  0.00    +0.000 A 
ATOM     23  C   UNL     1      36.651  -1.758  14.398  0.00  0.00    +0.000 A 
ATOM     24  C   UNL     1      37.124  -0.485  14.481  0.00  0.00    +0.000 A 
ATOM     25  C   UNL     1      36.930   0.274  15.606  0.00  0.00    +0.000 A 
ATOM     26  C   UNL     1      36.238  -0.241  16.701  0.00  0.00    +0.000 A 
ATOM     27  C   UNL     1      35.766  -1.516  16.616  0.00  0.00    +0.000 A 
BRANCH  22  28
ATOM     28  N   UNL     1      35.439  -3.603  15.476  0.00  0.00    +0.000 N 
BRANCH  28  30
ATOM     29  C   UNL     1      37.275  -4.770  16.605  0.00  0.00    +0.000 C 
ATOM     30  C   UNL     1      36.299  -4.758  15.431  0.00  0.00    +0.000 C 
ENDBRANCH  28  30
BRANCH  28  31
ATOM     31  C   UNL     1      34.014  -3.792  15.506  0.00  0.00    +0.000 C 
ATOM     32  C   UNL     1      33.624  -4.738  14.392  0.00  0.00    +0.000 C 
ENDBRANCH  28  31
ENDBRANCH  22  28
ENDBRANCH  19  25
ENDBRANCH   1  20
TORSDOF 7
ENDMDL
MODEL 2
REMARK VINA RESULT:      -8.1     23.912     26.561
REMARK  Name = 
REMARK  7 active torsions:
REMARK  status: ('A' for Active; 'I' for Inactive)
REMARK    1  A    between atoms: C_2  and  N_3
REMARK    2  A    between atoms: N_3  and  C_4
REMARK    3  A    between atoms: N_3  and  C_6
REMARK    4  A    between atoms: C_9  and  N_10
REMARK    5  A    between atoms: C_11  and  C_13
REMARK    6  A    between atoms: C_15  and  C_16
REMARK    7  A    between atoms: C_19  and  O_20
REMARK                            x       y       z     vdW  Elec       q    Type
REMARK                         _______ _______ _______ _____ _____    ______ ____
ROOT
ATOM      1  C   UNL     1      13.804   0.301  28.593  0.00  0.00    +0.000 A 
ATOM      2  C   UNL     1      14.118   0.110  29.944  0.00  0.00    +0.000 A 
ATOM      3  C   UNL     1      13.223   0.469  30.933  0.00  0.00    +0.000 A 
ATOM      4  N   UNL     1      12.054   1.000  30.535  0.00  0.00    +0.000 NA
ATOM      5  C   UNL     1      11.717   1.199  29.247  0.00  0.00    +0.000 A 
ATOM      6  C   UNL     1      10.508   1.744  28.870  0.00  0.00    +0.000 A 
ATOM      7  C   UNL     1      10.159   1.944  27.550  0.00  0.00    +0.000 A 
ATOM      8  C   UNL     1      11.060   1.582  26.573  0.00  0.00    +0.000 A 
ATOM      9  C   UNL     1      12.283   1.033  26.893  0.00  0.00    +0.000 A 
ATOM     10  C   UNL     1      12.595   0.849  28.235  0.00  0.00    +0.000 A 
ENDROOT
BRANCH   3  11
ATOM     11  C   UNL     1      13.552   0.271  32.337  0.00  0.00    +0.000 A 
ATOM     12  C   UNL     1      14.569   0.995  32.935  0.00  0.00    +0.000 A 
ATOM     13  C   UNL     1      14.918   0.829  34.259  0.00  0.00    +0.000 A 
ATOM     14  C   UNL     1      14.250  -0.094  35.071  0.00  0.00    +0.000 A 
ATOM     15  C   UNL     1      13.243  -0.810  34.474  0.00  0.00    +0.000 A 
ATOM     16  C   UNL     1      12.898  -0.636  33.141  0.00  0.00    +0.000 A 
BRANCH  14  17
ATOM     17  O   UNL     1      14.598  -0.265  36.405  0.00  0.00    +0.000 OA
ATOM     18  C   UNL     1      13.679  -0.856  37.318  0.00  0.00    +0.000 C 
ENDBRANCH  14  17
ENDBRANCH   3  11
BRANCH   1  20
ATOM     19  N   UNL     1      16.066   0.424  27.564  0.00  0.00    +0.000 NA
ATOM     20  C   UNL     1      14.750  -0.069  27.533  0.00  0.00    +0.000 C 
ATOM     21  O   UNL     1      14.401  -0.827  26.590  0.00  0.00    +0.000 OA
BRANCH  19  25
ATOM     22  C   UNL     1      18.935  -0.389  24.663  0.00  0.00    +0.000 A 
ATOM     23  C   UNL     1      18.241   0.817  24.645  0.00  0.00    +0.000 A 
ATOM     24  C   UNL     1      17.312   1.051  25.611  0.00  0.00    +0.000 A 
ATOM     25  C   UNL     1      17.054   0.128  26.590  0.00  0.00    +0.000 A 
ATOM     26  C   UNL     1      17.740  -1.086  26.621  0.00  0.00    +0.000 A 
ATOM     27  C   UNL     1      18.670  -1.319  25.654  0.00  0.00    +0.000 A 
BRANCH  22  28
ATOM     28  N   UNL     1      19.919  -0.707  23.697  0.00  0.00    +0.000 N 
BRANCH  28  30
ATOM     29  C   UNL     1      20.526  -1.851  21.615  0.00  0.00    +0.000 C 
ATOM     30  C   UNL     1      19.931  -1.977  23.015  0.00  0.00    +0.000 C 
ENDBRANCH  28  30
BRANCH  28  31
ATOM     31  C   UNL     1      20.938   0.260  23.393  0.00  0.00    +0.000 C 
ATOM     32  C   UNL     1      21.741   0.533  24.647  0.00  0.00    +0.000 C 
ENDBRANCH  28  31
ENDBRANCH  22  28
ENDBRANCH  19  25
ENDBRANCH   1  20
TORSDOF 7
ENDMDL
MODEL 3
REMARK VINA RESULT:      -7.6     24.166     27.155
REMARK  Name = 
REMARK  7 active torsions:
REMARK  status: ('A' for Active; 'I' for Inactive)
REMARK    1  A    between atoms: C_2  and  N_3
REMARK    2  A    between atoms: N_3  and  C_4
REMARK    3  A    between atoms: N_3  and  C_6
REMARK    4  A    between atoms: C_9  and  N_10
REMARK    5  A    between atoms: C_11  and  C_13
REMARK    6  A    between atoms: C_15  and  C_16
REMARK    7  A    between atoms: C_19  and  O_20
REMARK                            x       y       z     vdW  Elec       q    Type
REMARK                         _______ _______ _______ _____ _____    ______ ____
ROOT
ATOM      1  C   UNL     1      13.367   0.272  28.322  0.00  0.00    +0.000 A 
ATOM      2  C   UNL     1      13.221  -0.582  29.421  0.00  0.00    +0.000 A 
ATOM      3  C   UNL     1      12.285  -0.316  30.401  0.00  0.00    +0.000 A 
ATOM      4  N   UNL     1      11.534   0.788  30.244  0.00  0.00    +0.000 NA
ATOM      5  C   UNL     1      11.645   1.633  29.202  0.00  0.00    +0.000 A 
ATOM      6  C   UNL     1      10.858   2.756  29.067  0.00  0.00    +0.000 A 
ATOM      7  C   UNL     1      10.968   3.621  27.997  0.00  0.00    +0.000 A 
ATOM      8  C   UNL     1      11.906   3.344  27.026  0.00  0.00    +0.000 A 
ATOM      9  C   UNL     1      12.719   2.235  27.110  0.00  0.00    +0.000 A 
ATOM     10  C   UNL     1      12.576   1.390  28.205  0.00  0.00    +0.000 A 
ENDROOT
BRANCH   3  11
ATOM     11  C   UNL     1      12.135  -1.205  31.544  0.00  0.00    +0.000 A 
ATOM     12  C   UNL     1      12.220  -0.716  32.836  0.00  0.00    +0.000 A 
ATOM     13  C   UNL     1      12.094  -1.527  33.946  0.00  0.00    +0.000 A 
ATOM     14  C   UNL     1      11.872  -2.902  33.812  0.00  0.00    +0.000 A 
ATOM     15  C   UNL     1      11.788  -3.381  32.530  0.00  0.00    +0.000 A 
ATOM     16  C   UNL     1      11.915  -2.559  31.420  0.00  0.00    +0.000 A 
BRANCH  14  17
ATOM     17  O   UNL     1      11.745  -3.722  34.926  0.00  0.00    +0.000 OA
ATOM     18  C   UNL     1      12.541  -4.897  35.048  0.00  0.00    +0.000 C 
ENDBRANCH  14  17
ENDBRANCH   3  11
BRANCH   1  20
ATOM     19  N   UNL     1      15.715   0.326  27.499  0.00  0.00    +0.000 NA
ATOM     20  C   UNL     1      14.364   0.004  27.279  0.00  0.00    +0.000 C 
ATOM     21  O   UNL     1      14.029  -0.515  26.181  0.00  0.00    +0.000 OA
BRANCH  19  25
ATOM     22  C   UNL     1      18.776  -0.380  24.771  0.00  0.00    +0.000 A 
ATOM     23  C   UNL     1      18.327  -1.402  25.603  0.00  0.00    +0.000 A 
ATOM     24  C   UNL     1      17.322  -1.137  26.481  0.00  0.00    +0.000 A 
ATOM     25  C   UNL     1      16.752   0.107  26.556  0.00  0.00    +0.000 A 
ATOM     26  C   UNL     1      17.191   1.142  25.731  0.00  0.00    +0.000 A 
ATOM     27  C   UNL     1      18.197   0.875  24.852  0.00  0.00    +0.000 A 
BRANCH  22  28
ATOM     28  N   UNL     1      19.813  -0.576  23.830  0.00  0.00    +0.000 N 
BRANCH  28  30
ATOM     29  C   UNL     1      20.679  -1.621  21.788  0.00  0.00    +0.000 C 
ATOM     30  C   UNL     1      19.975  -1.824  23.128  0.00  0.00    +0.000 C 
ENDBRANCH  28  30
BRANCH  28  31
ATOM     31  C   UNL     1      20.736   0.497  23.573  0.00  0.00    +0.000 C 
ATOM     32  C   UNL     1      21.785   0.510  24.663  0.00  0.00    +0.000 C 
ENDBRANCH  28  31
ENDBRANCH  22  28
ENDBRANCH  19  25
ENDBRANCH   1  20
TORSDOF 7
ENDMDL
MODEL 4
REMARK VINA RESULT:      -7.5      4.336      9.154
REMARK  Name = 
REMARK  7 active torsions:
REMARK  status: ('A' for Active; 'I' for Inactive)
REMARK    1  A    between atoms: C_2  and  N_3
REMARK    2  A    between atoms: N_3  and  C_4
REMARK    3  A    between atoms: N_3  and  C_6
REMARK    4  A    between atoms: C_9  and  N_10
REMARK    5  A    between atoms: C_11  and  C_13
REMARK    6  A    between atoms: C_15  and  C_16
REMARK    7  A    between atoms: C_19  and  O_20
REMARK                            x       y       z     vdW  Elec       q    Type
REMARK                         _______ _______ _______ _____ _____    ______ ____
ROOT
ATOM      1  C   UNL     1      37.463   0.447  15.186  0.00  0.00    +0.000 A 
ATOM      2  C   UNL     1      38.618  -0.085  14.600  0.00  0.00    +0.000 A 
ATOM      3  C   UNL     1      38.895  -1.435  14.685  0.00  0.00    +0.000 A 
ATOM      4  N   UNL     1      38.009  -2.198  15.348  0.00  0.00    +0.000 NA
ATOM      5  C   UNL     1      36.889  -1.725  15.924  0.00  0.00    +0.000 A 
ATOM      6  C   UNL     1      35.998  -2.534  16.595  0.00  0.00    +0.000 A 
ATOM      7  C   UNL     1      34.846  -2.051  17.182  0.00  0.00    +0.000 A 
ATOM      8  C   UNL     1      34.582  -0.702  17.091  0.00  0.00    +0.000 A 
ATOM      9  C   UNL     1      35.438   0.153  16.432  0.00  0.00    +0.000 A 
ATOM     10  C   UNL     1      36.587  -0.375  15.854  0.00  0.00    +0.000 A 
ENDROOT
BRANCH   3  11
ATOM     11  C   UNL     1      40.097  -1.985  14.075  0.00  0.00    +0.000 A 
ATOM     12  C   UNL     1      41.350  -1.670  14.572  0.00  0.00    +0.000 A 
ATOM     13  C   UNL     1      42.513  -2.162  14.017  0.00  0.00    +0.000 A 
ATOM     14  C   UNL     1      42.479  -3.015  12.908  0.00  0.00    +0.000 A 
ATOM     15  C   UNL     1      41.235  -3.325  12.419  0.00  0.00    +0.000 A 
ATOM     16  C   UNL     1      40.070  -2.826  12.985  0.00  0.00    +0.000 A 
BRANCH  14  17
ATOM     17  O   UNL     1      43.647  -3.512  12.345  0.00  0.00    +0.000 OA
ATOM     18  C   UNL     1      44.895  -3.336  13.008  0.00  0.00    +0.000 C 
ENDBRANCH  14  17
ENDBRANCH   3  11
BRANCH   1  20
ATOM     19  N   UNL     1      36.436   2.389  14.018  0.00  0.00    +0.000 NA
ATOM     20  C   UNL     1      37.163   1.881  15.109  0.00  0.00    +0.000 C 
ATOM     21  O   UNL     1      37.546   2.672  16.012  0.00  0.00    +0.000 OA
BRANCH  19  25
ATOM     22  C   UNL     1      35.510   6.413  13.504  0.00  0.00    +0.000 A 
ATOM     23  C   UNL     1      36.651   5.874  12.916  0.00  0.00    +0.000 A 
ATOM     24  C   UNL     1      36.922   4.554  13.102  0.00  0.00    +0.000 A 
ATOM     25  C   UNL     1      36.096   3.756  13.851  0.00  0.00    +0.000 A 
ATOM     26  C   UNL     1      34.950   4.280  14.447  0.00  0.00    +0.000 A 
ATOM     27  C   UNL     1      34.680   5.603  14.260  0.00  0.00    +0.000 A 
BRANCH  22  28
ATOM     28  N   UNL     1      35.157   7.774  13.356  0.00  0.00    +0.000 N 
BRANCH  28  30
ATOM     29  C   UNL     1      33.678   7.403  11.436  0.00  0.00    +0.000 C 
ATOM     30  C   UNL     1      34.716   8.310  12.093  0.00  0.00    +0.000 C 
ENDBRANCH  28  30
BRANCH  28  31
ATOM     31  C   UNL     1      35.251   8.649  14.493  0.00  0.00    +0.000 C 
ATOM     32  C   UNL     1      33.859   9.105  14.874  0.00  0.00    +0.000 C 
ENDBRANCH  28  31
ENDBRANCH  22  28
ENDBRANCH  19  25
ENDBRANCH   1  20
TORSDOF 7
ENDMDL
MODEL 5
REMARK VINA RESULT:      -7.5      4.769      9.108
REMARK  Name = 
REMARK  7 active torsions:
REMARK  status: ('A' for Active; 'I' for Inactive)
REMARK    1  A    between atoms: C_2  and  N_3
REMARK    2  A    between atoms: N_3  and  C_4
REMARK    3  A    between atoms: N_3  and  C_6
REMARK    4  A    between atoms: C_9  and  N_10
REMARK    5  A    between atoms: C_11  and  C_13
REMARK    6  A    between atoms: C_15  and  C_16
REMARK    7  A    between atoms: C_19  and  O_20
REMARK                            x       y       z     vdW  Elec       q    Type
REMARK                         _______ _______ _______ _____ _____    ______ ____
ROOT
ATOM      1  C   UNL     1      38.339  -0.297  14.818  0.00  0.00    +0.000 A 
ATOM      2  C   UNL     1      39.556  -0.632  14.215  0.00  0.00    +0.000 A 
ATOM      3  C   UNL     1      40.346  -1.640  14.733  0.00  0.00    +0.000 A 
ATOM      4  N   UNL     1      39.890  -2.270  15.829  0.00  0.00    +0.000 NA
ATOM      5  C   UNL     1      38.726  -1.976  16.437  0.00  0.00    +0.000 A 
ATOM      6  C   UNL     1      38.283  -2.642  17.559  0.00  0.00    +0.000 A 
ATOM      7  C   UNL     1      37.088  -2.345  18.182  0.00  0.00    +0.000 A 
ATOM      8  C   UNL     1      36.309  -1.338  17.654  0.00  0.00    +0.000 A 
ATOM      9  C   UNL     1      36.703  -0.639  16.535  0.00  0.00    +0.000 A 
ATOM     10  C   UNL     1      37.914  -0.970  15.939  0.00  0.00    +0.000 A 
ENDROOT
BRANCH   3  11
ATOM     11  C   UNL     1      41.613  -1.987  14.104  0.00  0.00    +0.000 A 
ATOM     12  C   UNL     1      41.663  -2.914  13.078  0.00  0.00    +0.000 A 
ATOM     13  C   UNL     1      42.843  -3.279  12.464  0.00  0.00    +0.000 A 
ATOM     14  C   UNL     1      44.064  -2.718  12.858  0.00  0.00    +0.000 A 
ATOM     15  C   UNL     1      44.009  -1.799  13.874  0.00  0.00    +0.000 A 
ATOM     16  C   UNL     1      42.817  -1.438  14.486  0.00  0.00    +0.000 A 
BRANCH  14  17
ATOM     17  O   UNL     1      45.255  -3.082  12.242  0.00  0.00    +0.000 OA
ATOM     18  C   UNL     1      45.652  -4.449  12.198  0.00  0.00    +0.000 C 
ENDBRANCH  14  17
ENDBRANCH   3  11
BRANCH   1  20
ATOM     19  N   UNL     1      37.665   2.097  14.734  0.00  0.00    +0.000 NA
ATOM     20  C   UNL     1      37.495   0.777  14.281  0.00  0.00    +0.000 C 
ATOM     21  O   UNL     1      36.615   0.535  13.413  0.00  0.00    +0.000 OA
BRANCH  19  25
ATOM     22  C   UNL     1      35.365   5.313  13.439  0.00  0.00    +0.000 A 
ATOM     23  C   UNL     1      34.941   4.534  14.511  0.00  0.00    +0.000 A 
ATOM     24  C   UNL     1      35.719   3.492  14.910  0.00  0.00    +0.000 A 
ATOM     25  C   UNL     1      36.901   3.203  14.279  0.00  0.00    +0.000 A 
ATOM     26  C   UNL     1      37.340   3.974  13.203  0.00  0.00    +0.000 A 
ATOM     27  C   UNL     1      36.559   5.017  12.805  0.00  0.00    +0.000 A 
BRANCH  22  28
ATOM     28  N   UNL     1      34.615   6.415  12.966  0.00  0.00    +0.000 N 
BRANCH  28  30
ATOM     29  C   UNL     1      33.590   7.303  10.923  0.00  0.00    +0.000 C 
ATOM     30  C   UNL     1      34.882   7.022  11.687  0.00  0.00    +0.000 C 
ENDBRANCH  28  30
BRANCH  28  31
ATOM     31  C   UNL     1      33.564   6.950  13.788  0.00  0.00    +0.000 C 
ATOM     32  C   UNL     1      34.074   8.190  14.489  0.00  0.00    +0.000 C 
ENDBRANCH  28  31
ENDBRANCH  22  28
ENDBRANCH  19  25
ENDBRANCH   1  20
TORSDOF 7
ENDMDL
MODEL 6
REMARK VINA RESULT:      -7.4      3.368      9.725
REMARK  Name = 
REMARK  7 active torsions:
REMARK  status: ('A' for Active; 'I' for Inactive)
REMARK    1  A    between atoms: C_2  and  N_3
REMARK    2  A    between atoms: N_3  and  C_4
REMARK    3  A    between atoms: N_3  and  C_6
REMARK    4  A    between atoms: C_9  and  N_10
REMARK    5  A    between atoms: C_11  and  C_13
REMARK    6  A    between atoms: C_15  and  C_16
REMARK    7  A    between atoms: C_19  and  O_20
REMARK                            x       y       z     vdW  Elec       q    Type
REMARK                         _______ _______ _______ _____ _____    ______ ____
ROOT
ATOM      1  C   UNL     1      37.183   1.310  15.030  0.00  0.00    +0.000 A 
ATOM      2  C   UNL     1      37.962   0.914  13.936  0.00  0.00    +0.000 A 
ATOM      3  C   UNL     1      37.943  -0.394  13.494  0.00  0.00    +0.000 A 
ATOM      4  N   UNL     1      37.149  -1.252  14.159  0.00  0.00    +0.000 NA
ATOM      5  C   UNL     1      36.387  -0.909  15.214  0.00  0.00    +0.000 A 
ATOM      6  C   UNL     1      35.581  -1.811  15.874  0.00  0.00    +0.000 A 
ATOM      7  C   UNL     1      34.795  -1.460  16.953  0.00  0.00    +0.000 A 
ATOM      8  C   UNL     1      34.823  -0.152  17.384  0.00  0.00    +0.000 A 
ATOM      9  C   UNL     1      35.612   0.792  16.762  0.00  0.00    +0.000 A 
ATOM     10  C   UNL     1      36.387   0.396  15.678  0.00  0.00    +0.000 A 
ENDROOT
BRANCH   3  11
ATOM     11  C   UNL     1      38.753  -0.804  12.356  0.00  0.00    +0.000 A 
ATOM     12  C   UNL     1      39.232  -2.099  12.259  0.00  0.00    +0.000 A 
ATOM     13  C   UNL     1      40.012  -2.525  11.203  0.00  0.00    +0.000 A 
ATOM     14  C   UNL     1      40.361  -1.651  10.167  0.00  0.00    +0.000 A 
ATOM     15  C   UNL     1      39.885  -0.369  10.268  0.00  0.00    +0.000 A 
ATOM     16  C   UNL     1      39.100   0.050  11.333  0.00  0.00    +0.000 A 
BRANCH  14  17
ATOM     17  O   UNL     1      41.146  -2.074   9.102  0.00  0.00    +0.000 OA
ATOM     18  C   UNL     1      42.389  -2.728   9.341  0.00  0.00    +0.000 C 
ENDBRANCH  14  17
ENDBRANCH   3  11
BRANCH   1  20
ATOM     19  N   UNL     1      38.327   3.185  16.200  0.00  0.00    +0.000 NA
ATOM     20  C   UNL     1      37.202   2.695  15.514  0.00  0.00    +0.000 C 
ATOM     21  O   UNL     1      36.220   3.460  15.322  0.00  0.00    +0.000 OA
BRANCH  19  25
ATOM     22  C   UNL     1      38.657   7.029  17.757  0.00  0.00    +0.000 A 
ATOM     23  C   UNL     1      38.795   5.921  18.588  0.00  0.00    +0.000 A 
ATOM     24  C   UNL     1      38.684   4.678  18.044  0.00  0.00    +0.000 A 
ATOM     25  C   UNL     1      38.443   4.505  16.706  0.00  0.00    +0.000 A 
ATOM     26  C   UNL     1      38.302   5.605  15.861  0.00  0.00    +0.000 A 
ATOM     27  C   UNL     1      38.413   6.848  16.407  0.00  0.00    +0.000 A 
BRANCH  22  28
ATOM     28  N   UNL     1      38.762   8.353  18.244  0.00  0.00    +0.000 N 
BRANCH  28  30
ATOM     29  C   UNL     1      38.371   8.895  20.603  0.00  0.00    +0.000 C 
ATOM     30  C   UNL     1      37.811   8.894  19.182  0.00  0.00    +0.000 C 
ENDBRANCH  28  30
BRANCH  28  31
ATOM     31  C   UNL     1      39.842   9.183  17.783  0.00  0.00    +0.000 C 
ATOM     32  C   UNL     1      41.151   8.580  18.242  0.00  0.00    +0.000 C 
ENDBRANCH  28  31
ENDBRANCH  22  28
ENDBRANCH  19  25
ENDBRANCH   1  20
TORSDOF 7
ENDMDL
MODEL 7
REMARK VINA RESULT:      -7.3      3.391      9.599
REMARK  Name = 
REMARK  7 active torsions:
REMARK  status: ('A' for Active; 'I' for Inactive)
REMARK    1  A    between atoms: C_2  and  N_3
REMARK    2  A    between atoms: N_3  and  C_4
REMARK    3  A    between atoms: N_3  and  C_6
REMARK    4  A    between atoms: C_9  and  N_10
REMARK    5  A    between atoms: C_11  and  C_13
REMARK    6  A    between atoms: C_15  and  C_16
REMARK    7  A    between atoms: C_19  and  O_20
REMARK                            x       y       z     vdW  Elec       q    Type
REMARK                         _______ _______ _______ _____ _____    ______ ____
ROOT
ATOM      1  C   UNL     1      37.182   4.415  15.619  0.00  0.00    +0.000 A 
ATOM      2  C   UNL     1      36.778   5.228  14.553  0.00  0.00    +0.000 A 
ATOM      3  C   UNL     1      35.589   4.988  13.894  0.00  0.00    +0.000 A 
ATOM      4  N   UNL     1      34.852   3.949  14.325  0.00  0.00    +0.000 NA
ATOM      5  C   UNL     1      35.205   3.146  15.345  0.00  0.00    +0.000 A 
ATOM      6  C   UNL     1      34.426   2.090  15.765  0.00  0.00    +0.000 A 
ATOM      7  C   UNL     1      34.785   1.268  16.814  0.00  0.00    +0.000 A 
ATOM      8  C   UNL     1      35.974   1.518  17.463  0.00  0.00    +0.000 A 
ATOM      9  C   UNL     1      36.793   2.560  17.084  0.00  0.00    +0.000 A 
ATOM     10  C   UNL     1      36.393   3.364  16.023  0.00  0.00    +0.000 A 
ENDROOT
BRANCH   3  11
ATOM     11  C   UNL     1      35.172   5.834  12.785  0.00  0.00    +0.000 A 
ATOM     12  C   UNL     1      35.849   5.805  11.579  0.00  0.00    +0.000 A 
ATOM     13  C   UNL     1      35.493   6.599  10.508  0.00  0.00    +0.000 A 
ATOM     14  C   UNL     1      34.412   7.484  10.595  0.00  0.00    +0.000 A 
ATOM     15  C   UNL     1      33.743   7.509  11.793  0.00  0.00    +0.000 A 
ATOM     16  C   UNL     1      34.109   6.707  12.865  0.00  0.00    +0.000 A 
BRANCH  14  17
ATOM     17  O   UNL     1      34.049   8.285   9.520  0.00  0.00    +0.000 OA
ATOM     18  C   UNL     1      34.787   8.231   8.303  0.00  0.00    +0.000 C 
ENDBRANCH  14  17
ENDBRANCH   3  11
BRANCH   1  20
ATOM     19  N   UNL     1      38.547   5.708  17.248  0.00  0.00    +0.000 NA
ATOM     20  C   UNL     1      38.448   4.655  16.322  0.00  0.00    +0.000 C 
ATOM     21  O   UNL     1      39.454   3.928  16.109  0.00  0.00    +0.000 OA
BRANCH  19  25
ATOM     22  C   UNL     1      42.037   6.618  19.323  0.00  0.00    +0.000 A 
ATOM     23  C   UNL     1      42.035   6.590  17.931  0.00  0.00    +0.000 A 
ATOM     24  C   UNL     1      40.875   6.292  17.285  0.00  0.00    +0.000 A 
ATOM     25  C   UNL     1      39.723   6.022  17.977  0.00  0.00    +0.000 A 
ATOM     26  C   UNL     1      39.709   6.046  19.371  0.00  0.00    +0.000 A 
ATOM     27  C   UNL     1      40.871   6.345  20.017  0.00  0.00    +0.000 A 
BRANCH  22  28
ATOM     28  N   UNL     1      43.200   6.923  20.068  0.00  0.00    +0.000 N 
BRANCH  28  30
ATOM     29  C   UNL     1      44.309   5.486  21.716  0.00  0.00    +0.000 C 
ATOM     30  C   UNL     1      43.306   6.611  21.471  0.00  0.00    +0.000 C 
ENDBRANCH  28  30
BRANCH  28  31
ATOM     31  C   UNL     1      44.302   7.569  19.409  0.00  0.00    +0.000 C 
ATOM     32  C   UNL     1      44.484   8.949  20.002  0.00  0.00    +0.000 C 
ENDBRANCH  28  31
ENDBRANCH  22  28
ENDBRANCH  19  25
ENDBRANCH   1  20
TORSDOF 7
ENDMDL
MODEL 8
REMARK VINA RESULT:      -7.3      3.471      8.048
REMARK  Name = 
REMARK  7 active torsions:
REMARK  status: ('A' for Active; 'I' for Inactive)
REMARK    1  A    between atoms: C_2  and  N_3
REMARK    2  A    between atoms: N_3  and  C_4
REMARK    3  A    between atoms: N_3  and  C_6
REMARK    4  A    between atoms: C_9  and  N_10
REMARK    5  A    between atoms: C_11  and  C_13
REMARK    6  A    between atoms: C_15  and  C_16
REMARK    7  A    between atoms: C_19  and  O_20
REMARK                            x       y       z     vdW  Elec       q    Type
REMARK                         _______ _______ _______ _____ _____    ______ ____
ROOT
ATOM      1  C   UNL     1      36.936   5.303  15.061  0.00  0.00    +0.000 A 
ATOM      2  C   UNL     1      37.976   5.817  15.845  0.00  0.00    +0.000 A 
ATOM      3  C   UNL     1      38.469   5.102  16.919  0.00  0.00    +0.000 A 
ATOM      4  N   UNL     1      37.906   3.907  17.166  0.00  0.00    +0.000 NA
ATOM      5  C   UNL     1      36.905   3.380  16.436  0.00  0.00    +0.000 A 
ATOM      6  C   UNL     1      36.351   2.149  16.713  0.00  0.00    +0.000 A 
ATOM      7  C   UNL     1      35.328   1.605  15.962  0.00  0.00    +0.000 A 
ATOM      8  C   UNL     1      34.845   2.328  14.894  0.00  0.00    +0.000 A 
ATOM      9  C   UNL     1      35.363   3.564  14.572  0.00  0.00    +0.000 A 
ATOM     10  C   UNL     1      36.392   4.075  15.353  0.00  0.00    +0.000 A 
ENDROOT
BRANCH   3  11
ATOM     11  C   UNL     1      39.549   5.639  17.734  0.00  0.00    +0.000 A 
ATOM     12  C   UNL     1      39.376   5.848  19.091  0.00  0.00    +0.000 A 
ATOM     13  C   UNL     1      40.371   6.364  19.895  0.00  0.00    +0.000 A 
ATOM     14  C   UNL     1      41.621   6.706  19.366  0.00  0.00    +0.000 A 
ATOM     15  C   UNL     1      41.788   6.497  18.021  0.00  0.00    +0.000 A 
ATOM     16  C   UNL     1      40.782   5.977  17.219  0.00  0.00    +0.000 A 
BRANCH  14  17
ATOM     17  O   UNL     1      42.625   7.227  20.171  0.00  0.00    +0.000 OA
ATOM     18  C   UNL     1      43.355   6.376  21.051  0.00  0.00    +0.000 C 
ENDBRANCH  14  17
ENDBRANCH   3  11
BRANCH   1  20
ATOM     19  N   UNL     1      36.992   5.929  12.653  0.00  0.00    +0.000 NA
ATOM     20  C   UNL     1      36.399   6.057  13.922  0.00  0.00    +0.000 C 
ATOM     21  O   UNL     1      35.408   6.821  14.061  0.00  0.00    +0.000 OA
BRANCH  19  25
ATOM     22  C   UNL     1      35.714   8.001   9.279  0.00  0.00    +0.000 A 
ATOM     23  C   UNL     1      36.546   8.619  10.210  0.00  0.00    +0.000 A 
ATOM     24  C   UNL     1      36.947   7.910  11.300  0.00  0.00    +0.000 A 
ATOM     25  C   UNL     1      36.549   6.613  11.492  0.00  0.00    +0.000 A 
ATOM     26  C   UNL     1      35.716   5.980  10.570  0.00  0.00    +0.000 A 
ATOM     27  C   UNL     1      35.316   6.691   9.479  0.00  0.00    +0.000 A 
BRANCH  22  28
ATOM     28  N   UNL     1      35.257   8.668   8.119  0.00  0.00    +0.000 N 
BRANCH  28  30
ATOM     29  C   UNL     1      33.620   8.116   6.380  0.00  0.00    +0.000 C 
ATOM     30  C   UNL     1      35.057   7.972   6.873  0.00  0.00    +0.000 C 
ENDBRANCH  28  30
BRANCH  28  31
ATOM     31  C   UNL     1      34.993  10.080   8.182  0.00  0.00    +0.000 C 
ATOM     32  C   UNL     1      35.988  10.803   7.302  0.00  0.00    +0.000 C 
ENDBRANCH  28  31
ENDBRANCH  22  28
ENDBRANCH  19  25
ENDBRANCH   1  20
TORSDOF 7
ENDMDL
MODEL 9
REMARK VINA RESULT:      -7.3     24.441     27.517
REMARK  Name = 
REMARK  7 active torsions:
REMARK  status: ('A' for Active; 'I' for Inactive)
REMARK    1  A    between atoms: C_2  and  N_3
REMARK    2  A    between atoms: N_3  and  C_4
REMARK    3  A    between atoms: N_3  and  C_6
REMARK    4  A    between atoms: C_9  and  N_10
REMARK    5  A    between atoms: C_11  and  C_13
REMARK    6  A    between atoms: C_15  and  C_16
REMARK    7  A    between atoms: C_19  and  O_20
REMARK                            x       y       z     vdW  Elec       q    Type
REMARK                         _______ _______ _______ _____ _____    ______ ____
ROOT
ATOM      1  C   UNL     1      12.802  -0.308  27.676  0.00  0.00    +0.000 A 
ATOM      2  C   UNL     1      12.257   0.882  28.174  0.00  0.00    +0.000 A 
ATOM      3  C   UNL     1      11.206   0.856  29.069  0.00  0.00    +0.000 A 
ATOM      4  N   UNL     1      10.742  -0.353  29.431  0.00  0.00    +0.000 NA
ATOM      5  C   UNL     1      11.239  -1.518  28.974  0.00  0.00    +0.000 A 
ATOM      6  C   UNL     1      10.744  -2.742  29.366  0.00  0.00    +0.000 A 
ATOM      7  C   UNL     1      11.255  -3.938  28.903  0.00  0.00    +0.000 A 
ATOM      8  C   UNL     1      12.303  -3.898  28.010  0.00  0.00    +0.000 A 
ATOM      9  C   UNL     1      12.838  -2.701  27.584  0.00  0.00    +0.000 A 
ATOM     10  C   UNL     1      12.293  -1.520  28.076  0.00  0.00    +0.000 A 
ENDROOT
BRANCH   3  11
ATOM     11  C   UNL     1      10.640   2.094  29.585  0.00  0.00    +0.000 A 
ATOM     12  C   UNL     1      10.607   2.344  30.946  0.00  0.00    +0.000 A 
ATOM     13  C   UNL     1      10.070   3.500  31.476  0.00  0.00    +0.000 A 
ATOM     14  C   UNL     1       9.526   4.487  30.647  0.00  0.00    +0.000 A 
ATOM     15  C   UNL     1       9.561   4.236  29.299  0.00  0.00    +0.000 A 
ATOM     16  C   UNL     1      10.104   3.071  28.775  0.00  0.00    +0.000 A 
BRANCH  14  17
ATOM     17  O   UNL     1       8.984   5.652  31.175  0.00  0.00    +0.000 OA
ATOM     18  C   UNL     1       7.801   6.213  30.615  0.00  0.00    +0.000 C 
ENDBRANCH  14  17
ENDBRANCH   3  11
BRANCH   1  20
ATOM     19  N   UNL     1      15.239  -0.229  27.183  0.00  0.00    +0.000 NA
ATOM     20  C   UNL     1      13.913  -0.292  26.718  0.00  0.00    +0.000 C 
ATOM     21  O   UNL     1      13.700  -0.337  25.478  0.00  0.00    +0.000 OA
BRANCH  19  25
ATOM     22  C   UNL     1      18.598  -0.245  24.728  0.00  0.00    +0.000 A 
ATOM     23  C   UNL     1      18.004  -1.443  25.113  0.00  0.00    +0.000 A 
ATOM     24  C   UNL     1      16.905  -1.401  25.913  0.00  0.00    +0.000 A 
ATOM     25  C   UNL     1      16.381  -0.209  26.341  0.00  0.00    +0.000 A 
ATOM     26  C   UNL     1      16.964   1.000  25.964  0.00  0.00    +0.000 A 
ATOM     27  C   UNL     1      18.064   0.956  25.162  0.00  0.00    +0.000 A 
BRANCH  22  28
ATOM     28  N   UNL     1      19.740  -0.203  23.894  0.00  0.00    +0.000 N 
BRANCH  28  30
ATOM     29  C   UNL     1      20.503  -0.706  21.619  0.00  0.00    +0.000 C 
ATOM     30  C   UNL     1      20.039  -1.262  22.963  0.00  0.00    +0.000 C 
ENDBRANCH  28  30
BRANCH  28  31
ATOM     31  C   UNL     1      20.632   0.921  23.985  0.00  0.00    +0.000 C 
ATOM     32  C   UNL     1      21.830   0.527  24.821  0.00  0.00    +0.000 C 
ENDBRANCH  28  31
ENDBRANCH  22  28
ENDBRANCH  19  25
ENDBRANCH   1  20
TORSDOF 7
ENDMDL
MODEL 10
REMARK VINA RESULT:      -7.2      4.352      6.343
REMARK  Name = 
REMARK  7 active torsions:
REMARK  status: ('A' for Active; 'I' for Inactive)
REMARK    1  A    between atoms: C_2  and  N_3
REMARK    2  A    between atoms: N_3  and  C_4
REMARK    3  A    between atoms: N_3  and  C_6
REMARK    4  A    between atoms: C_9  and  N_10
REMARK    5  A    between atoms: C_11  and  C_13
REMARK    6  A    between atoms: C_15  and  C_16
REMARK    7  A    between atoms: C_19  and  O_20
REMARK                            x       y       z     vdW  Elec       q    Type
REMARK                         _______ _______ _______ _____ _____    ______ ____
ROOT
ATOM      1  C   UNL     1      35.883   5.821  13.317  0.00  0.00    +0.000 A 
ATOM      2  C   UNL     1      35.396   7.012  13.868  0.00  0.00    +0.000 A 
ATOM      3  C   UNL     1      35.146   8.109  13.066  0.00  0.00    +0.000 A 
ATOM      4  N   UNL     1      35.391   7.972  11.752  0.00  0.00    +0.000 NA
ATOM      5  C   UNL     1      35.859   6.844  11.186  0.00  0.00    +0.000 A 
ATOM      6  C   UNL     1      36.097   6.733   9.833  0.00  0.00    +0.000 A 
ATOM      7  C   UNL     1      36.573   5.576   9.251  0.00  0.00    +0.000 A 
ATOM      8  C   UNL     1      36.818   4.489  10.061  0.00  0.00    +0.000 A 
ATOM      9  C   UNL     1      36.598   4.544  11.420  0.00  0.00    +0.000 A 
ATOM     10  C   UNL     1      36.118   5.729  11.966  0.00  0.00    +0.000 A 
ENDROOT
BRANCH   3  11
ATOM     11  C   UNL     1      34.640   9.347  13.641  0.00  0.00    +0.000 A 
ATOM     12  C   UNL     1      34.394   9.448  14.999  0.00  0.00    +0.000 A 
ATOM     13  C   UNL     1      33.904  10.600  15.580  0.00  0.00    +0.000 A 
ATOM     14  C   UNL     1      33.629  11.736  14.810  0.00  0.00    +0.000 A 
ATOM     15  C   UNL     1      33.875  11.631  13.465  0.00  0.00    +0.000 A 
ATOM     16  C   UNL     1      34.368  10.468  12.888  0.00  0.00    +0.000 A 
BRANCH  14  17
ATOM     17  O   UNL     1      33.136  12.897  15.391  0.00  0.00    +0.000 OA
ATOM     18  C   UNL     1      32.401  13.835  14.610  0.00  0.00    +0.000 C 
ENDBRANCH  14  17
ENDBRANCH   3  11
BRANCH   1  20
ATOM     19  N   UNL     1      35.215   3.615  14.255  0.00  0.00    +0.000 NA
ATOM     20  C   UNL     1      36.160   4.652  14.160  0.00  0.00    +0.000 C 
ATOM     21  O   UNL     1      37.239   4.559  14.804  0.00  0.00    +0.000 OA
BRANCH  19  25
ATOM     22  C   UNL     1      35.739   0.149  16.496  0.00  0.00    +0.000 A 
ATOM     23  C   UNL     1      36.243   0.230  15.201  0.00  0.00    +0.000 A 
ATOM     24  C   UNL     1      36.056   1.380  14.498  0.00  0.00    +0.000 A 
ATOM     25  C   UNL     1      35.387   2.446  15.041  0.00  0.00    +0.000 A 
ATOM     26  C   UNL     1      34.876   2.380  16.336  0.00  0.00    +0.000 A 
ATOM     27  C   UNL     1      35.064   1.228  17.039  0.00  0.00    +0.000 A 
BRANCH  22  28
ATOM     28  N   UNL     1      35.894  -1.010  17.293  0.00  0.00    +0.000 N 
BRANCH  28  30
ATOM     29  C   UNL     1      34.566  -2.837  16.341  0.00  0.00    +0.000 C 
ATOM     30  C   UNL     1      35.956  -2.327  16.713  0.00  0.00    +0.000 C 
ENDBRANCH  28  30
BRANCH  28  31
ATOM     31  C   UNL     1      35.984  -0.869  18.721  0.00  0.00    +0.000 C 
ATOM     32  C   UNL     1      37.326  -1.392  19.180  0.00  0.00    +0.000 C 
ENDBRANCH  28  31
ENDBRANCH  22  28
ENDBRANCH  19  25
ENDBRANCH   1  20
TORSDOF 7
ENDMDL
