MODEL 1
REMARK VINA RESULT:      -6.1      0.000      0.000
REMARK  Name = 
REMARK  5 active torsions:
REMARK  status: ('A' for Active; 'I' for Inactive)
REMARK    1  A    between atoms: N_2  and  C_4
REMARK    2  A    between atoms: C_6  and  N_7
REMARK    3  A    between atoms: N_7  and  C_8
REMARK    4  A    between atoms: C_8  and  N_10
REMARK    5  A    between atoms: N_10  and  C_11
REMARK                            x       y       z     vdW  Elec       q    Type
REMARK                         _______ _______ _______ _____ _____    ______ ____
ROOT
ATOM      1  C   UNL     1      27.603  22.984  12.362  0.00  0.00    +0.000 A 
ATOM      2  C   UNL     1      28.111  22.255  11.299  0.00  0.00    +0.000 A 
ATOM      3  C   UNL     1      29.465  22.025  11.163  0.00  0.00    +0.000 A 
ATOM      4  C   UNL     1      30.300  22.544  12.116  0.00  0.00    +0.000 A 
ATOM      5  C   UNL     1      29.827  23.275  13.187  0.00  0.00    +0.000 A 
ATOM      6  C   UNL     1      28.469  23.495  13.308  0.00  0.00    +0.000 A 
ATOM      7  F   UNL     1      27.952  24.202  14.333  0.00  0.00    +0.000 F 
ENDROOT
BRANCH   1   9
ATOM      8  O   UNL     1      25.556  22.506  13.260  0.00  0.00    +0.000 OA
ATOM      9  N   UNL     1      26.214  23.208  12.483  0.00  0.00    +0.000 N 
ATOM     10  O   UNL     1      25.614  24.183  11.756  0.00  0.00    +0.000 OA
ENDBRANCH   1   9
BRANCH   3  11
ATOM     11  N   UNL     1      29.892  21.272  10.049  0.00  0.00    +0.000 NA
BRANCH  11  12
ATOM     12  C   UNL     1      31.170  21.362   9.456  0.00  0.00    +0.000 C 
ATOM     13  S   UNL     1      31.404  22.441   8.266  0.00  0.00    +0.000 S 
BRANCH  12  14
ATOM     14  N   UNL     1      32.214  20.545   9.876  0.00  0.00    +0.000 NA
BRANCH  14  15
ATOM     15  C   UNL     1      33.401  20.945  10.551  0.00  0.00    +0.000 C 
ATOM     16  C   UNL     1      33.587  20.374  11.916  0.00  0.00    +0.000 C 
ATOM     17  C   UNL     1      35.058  20.272  12.263  0.00  0.00    +0.000 C 
ATOM     18  C   UNL     1      35.810  19.418  11.271  0.00  0.00    +0.000 C 
ATOM     19  C   UNL     1      35.449  19.729   9.847  0.00  0.00    +0.000 C 
ATOM     20  C   UNL     1      34.623  20.976   9.699  0.00  0.00    +0.000 C 
ENDBRANCH  14  15
ENDBRANCH  12  14
ENDBRANCH  11  12
ENDBRANCH   3  11
TORSDOF 5
ENDMDL
MODEL 2
REMARK VINA RESULT:      -6.0     13.290     14.967
REMARK  Name = 
REMARK  5 active torsions:
REMARK  status: ('A' for Active; 'I' for Inactive)
REMARK    1  A    between atoms: N_2  and  C_4
REMARK    2  A    between atoms: C_6  and  N_7
REMARK    3  A    between atoms: N_7  and  C_8
REMARK    4  A    between atoms: C_8  and  N_10
REMARK    5  A    between atoms: N_10  and  C_11
REMARK                            x       y       z     vdW  Elec       q    Type
REMARK                         _______ _______ _______ _____ _____    ______ ____
ROOT
ATOM      1  C   UNL     1      26.251  23.385  24.553  0.00  0.00    +0.000 A 
ATOM      2  C   UNL     1      27.117  22.619  25.316  0.00  0.00    +0.000 A 
ATOM      3  C   UNL     1      27.236  22.804  26.678  0.00  0.00    +0.000 A 
ATOM      4  C   UNL     1      26.468  23.776  27.261  0.00  0.00    +0.000 A 
ATOM      5  C   UNL     1      25.595  24.557  26.531  0.00  0.00    +0.000 A 
ATOM      6  C   UNL     1      25.488  24.359  25.168  0.00  0.00    +0.000 A 
ATOM      7  F   UNL     1      24.652  25.092  24.406  0.00  0.00    +0.000 F 
ENDROOT
BRANCH   1   9
ATOM      8  O   UNL     1      27.081  23.512  22.428  0.00  0.00    +0.000 OA
ATOM      9  N   UNL     1      26.142  23.180  23.160  0.00  0.00    +0.000 N 
ATOM     10  O   UNL     1      25.020  22.624  22.638  0.00  0.00    +0.000 OA
ENDBRANCH   1   9
BRANCH   3  11
ATOM     11  N   UNL     1      28.144  21.977  27.373  0.00  0.00    +0.000 NA
BRANCH  11  12
ATOM     12  C   UNL     1      29.402  22.392  27.862  0.00  0.00    +0.000 C 
ATOM     13  S   UNL     1      29.481  23.081  29.329  0.00  0.00    +0.000 S 
BRANCH  12  14
ATOM     14  N   UNL     1      30.557  22.217  27.107  0.00  0.00    +0.000 NA
BRANCH  14  15
ATOM     15  C   UNL     1      31.042  23.061  26.069  0.00  0.00    +0.000 C 
ATOM     16  C   UNL     1      30.574  22.722  24.694  0.00  0.00    +0.000 C 
ATOM     17  C   UNL     1      30.545  23.955  23.815  0.00  0.00    +0.000 C 
ATOM     18  C   UNL     1      29.649  25.029  24.384  0.00  0.00    +0.000 C 
ATOM     19  C   UNL     1      29.847  25.228  25.859  0.00  0.00    +0.000 C 
ATOM     20  C   UNL     1      31.053  24.513  26.401  0.00  0.00    +0.000 C 
ENDBRANCH  14  15
ENDBRANCH  12  14
ENDBRANCH  11  12
ENDBRANCH   3  11
TORSDOF 5
ENDMDL
MODEL 3
REMARK VINA RESULT:      -6.0     29.994     31.882
REMARK  Name = 
REMARK  5 active torsions:
REMARK  status: ('A' for Active; 'I' for Inactive)
REMARK    1  A    between atoms: N_2  and  C_4
REMARK    2  A    between atoms: C_6  and  N_7
REMARK    3  A    between atoms: N_7  and  C_8
REMARK    4  A    between atoms: C_8  and  N_10
REMARK    5  A    between atoms: N_10  and  C_11
REMARK                            x       y       z     vdW  Elec       q    Type
REMARK                         _______ _______ _______ _____ _____    ______ ____
ROOT
ATOM      1  C   UNL     1      15.718  11.401  35.188  0.00  0.00    +0.000 A 
ATOM      2  C   UNL     1      16.735  10.879  35.970  0.00  0.00    +0.000 A 
ATOM      3  C   UNL     1      17.787  10.178  35.416  0.00  0.00    +0.000 A 
ATOM      4  C   UNL     1      17.797  10.011  34.057  0.00  0.00    +0.000 A 
ATOM      5  C   UNL     1      16.800  10.518  33.248  0.00  0.00    +0.000 A 
ATOM      6  C   UNL     1      15.755  11.216  33.819  0.00  0.00    +0.000 A 
ATOM      7  F   UNL     1      14.755  11.733  33.078  0.00  0.00    +0.000 F 
ENDROOT
BRANCH   1   9
ATOM      8  O   UNL     1      14.577  13.337  35.604  0.00  0.00    +0.000 OA
ATOM      9  N   UNL     1      14.651  12.115  35.775  0.00  0.00    +0.000 N 
ATOM     10  O   UNL     1      13.720  11.462  36.516  0.00  0.00    +0.000 OA
ENDBRANCH   1   9
BRANCH   3  11
ATOM     11  N   UNL     1      18.777   9.683  36.291  0.00  0.00    +0.000 NA
BRANCH  11  12
ATOM     12  C   UNL     1      18.815   9.920  37.682  0.00  0.00    +0.000 C 
ATOM     13  S   UNL     1      19.467  11.306  38.220  0.00  0.00    +0.000 S 
BRANCH  12  14
ATOM     14  N   UNL     1      18.307   8.989  38.582  0.00  0.00    +0.000 NA
BRANCH  14  15
ATOM     15  C   UNL     1      17.806   9.240  39.889  0.00  0.00    +0.000 C 
ATOM     16  C   UNL     1      16.408   9.754  39.953  0.00  0.00    +0.000 C 
ATOM     17  C   UNL     1      15.747   9.361  41.258  0.00  0.00    +0.000 C 
ATOM     18  C   UNL     1      15.725   7.863  41.447  0.00  0.00    +0.000 C 
ATOM     19  C   UNL     1      17.037   7.216  41.106  0.00  0.00    +0.000 C 
ATOM     20  C   UNL     1      18.153   8.202  40.900  0.00  0.00    +0.000 C 
ENDBRANCH  14  15
ENDBRANCH  12  14
ENDBRANCH  11  12
ENDBRANCH   3  11
TORSDOF 5
ENDMDL
MODEL 4
REMARK VINA RESULT:      -6.0     14.501     16.217
REMARK  Name = 
REMARK  5 active torsions:
REMARK  status: ('A' for Active; 'I' for Inactive)
REMARK    1  A    between atoms: N_2  and  C_4
REMARK    2  A    between atoms: C_6  and  N_7
REMARK    3  A    between atoms: N_7  and  C_8
REMARK    4  A    between atoms: C_8  and  N_10
REMARK    5  A    between atoms: N_10  and  C_11
REMARK                            x       y       z     vdW  Elec       q    Type
REMARK                         _______ _______ _______ _____ _____    ______ ____
ROOT
ATOM      1  C   UNL     1      27.390  22.704  29.480  0.00  0.00    +0.000 A 
ATOM      2  C   UNL     1      27.092  22.629  28.129  0.00  0.00    +0.000 A 
ATOM      3  C   UNL     1      28.084  22.604  27.170  0.00  0.00    +0.000 A 
ATOM      4  C   UNL     1      29.385  22.657  27.596  0.00  0.00    +0.000 A 
ATOM      5  C   UNL     1      29.717  22.732  28.933  0.00  0.00    +0.000 A 
ATOM      6  C   UNL     1      28.711  22.756  29.879  0.00  0.00    +0.000 A 
ATOM      7  F   UNL     1      28.977  22.829  31.199  0.00  0.00    +0.000 F 
ENDROOT
BRANCH   1   9
ATOM      8  O   UNL     1      25.884  21.660  30.846  0.00  0.00    +0.000 OA
ATOM      9  N   UNL     1      26.360  22.729  30.445  0.00  0.00    +0.000 N 
ATOM     10  O   UNL     1      25.902  23.913  30.925  0.00  0.00    +0.000 OA
ENDBRANCH   1   9
BRANCH   3  11
ATOM     11  N   UNL     1      27.686  22.527  25.819  0.00  0.00    +0.000 NA
BRANCH  11  12
ATOM     12  C   UNL     1      27.612  23.626  24.936  0.00  0.00    +0.000 C 
ATOM     13  S   UNL     1      26.585  23.551  23.681  0.00  0.00    +0.000 S 
BRANCH  12  14
ATOM     14  N   UNL     1      28.401  24.755  25.129  0.00  0.00    +0.000 NA
BRANCH  14  15
ATOM     15  C   UNL     1      29.641  25.056  24.500  0.00  0.00    +0.000 C 
ATOM     16  C   UNL     1      30.609  25.834  25.326  0.00  0.00    +0.000 C 
ATOM     17  C   UNL     1      32.035  25.536  24.912  0.00  0.00    +0.000 C 
ATOM     18  C   UNL     1      32.359  24.067  25.037  0.00  0.00    +0.000 C 
ATOM     19  C   UNL     1      31.274  23.184  24.490  0.00  0.00    +0.000 C 
ATOM     20  C   UNL     1      30.229  23.935  23.713  0.00  0.00    +0.000 C 
ENDBRANCH  14  15
ENDBRANCH  12  14
ENDBRANCH  11  12
ENDBRANCH   3  11
TORSDOF 5
ENDMDL
MODEL 5
REMARK VINA RESULT:      -5.7     14.986     16.729
REMARK  Name = 
REMARK  5 active torsions:
REMARK  status: ('A' for Active; 'I' for Inactive)
REMARK    1  A    between atoms: N_2  and  C_4
REMARK    2  A    between atoms: C_6  and  N_7
REMARK    3  A    between atoms: N_7  and  C_8
REMARK    4  A    between atoms: C_8  and  N_10
REMARK    5  A    between atoms: N_10  and  C_11
REMARK                            x       y       z     vdW  Elec       q    Type
REMARK                         _______ _______ _______ _____ _____    ______ ____
ROOT
ATOM      1  C   UNL     1      26.277  23.313  29.260  0.00  0.00    +0.000 A 
ATOM      2  C   UNL     1      26.431  23.026  27.914  0.00  0.00    +0.000 A 
ATOM      3  C   UNL     1      26.003  23.900  26.935  0.00  0.00    +0.000 A 
ATOM      4  C   UNL     1      25.416  25.070  27.336  0.00  0.00    +0.000 A 
ATOM      5  C   UNL     1      25.247  25.387  28.669  0.00  0.00    +0.000 A 
ATOM      6  C   UNL     1      25.680  24.501  29.635  0.00  0.00    +0.000 A 
ATOM      7  F   UNL     1      25.541  24.758  30.951  0.00  0.00    +0.000 F 
ENDROOT
BRANCH   1   9
ATOM      8  O   UNL     1      25.897  21.680  30.814  0.00  0.00    +0.000 OA
ATOM      9  N   UNL     1      26.722  22.405  30.246  0.00  0.00    +0.000 N 
ATOM     10  O   UNL     1      28.040  22.333  30.561  0.00  0.00    +0.000 OA
ENDBRANCH   1   9
BRANCH   3  11
ATOM     11  N   UNL     1      26.202  23.524  25.590  0.00  0.00    +0.000 NA
BRANCH  11  12
ATOM     12  C   UNL     1      27.164  24.093  24.727  0.00  0.00    +0.000 C 
ATOM     13  S   UNL     1      26.824  25.504  24.001  0.00  0.00    +0.000 S 
BRANCH  12  14
ATOM     14  N   UNL     1      28.382  23.462  24.496  0.00  0.00    +0.000 NA
BRANCH  14  15
ATOM     15  C   UNL     1      29.594  23.644  25.218  0.00  0.00    +0.000 C 
ATOM     16  C   UNL     1      29.536  24.630  26.335  0.00  0.00    +0.000 C 
ATOM     17  C   UNL     1      30.545  24.288  27.411  0.00  0.00    +0.000 C 
ATOM     18  C   UNL     1      30.320  22.904  27.972  0.00  0.00    +0.000 C 
ATOM     19  C   UNL     1      30.065  21.880  26.903  0.00  0.00    +0.000 C 
ATOM     20  C   UNL     1      30.337  22.386  25.514  0.00  0.00    +0.000 C 
ENDBRANCH  14  15
ENDBRANCH  12  14
ENDBRANCH  11  12
ENDBRANCH   3  11
TORSDOF 5
ENDMDL
MODEL 6
REMARK VINA RESULT:      -5.7     13.448     15.507
REMARK  Name = 
REMARK  5 active torsions:
REMARK  status: ('A' for Active; 'I' for Inactive)
REMARK    1  A    between atoms: N_2  and  C_4
REMARK    2  A    between atoms: C_6  and  N_7
REMARK    3  A    between atoms: N_7  and  C_8
REMARK    4  A    between atoms: C_8  and  N_10
REMARK    5  A    between atoms: N_10  and  C_11
REMARK                            x       y       z     vdW  Elec       q    Type
REMARK                         _______ _______ _______ _____ _____    ______ ____
ROOT
ATOM      1  C   UNL     1      27.046  23.529  28.713  0.00  0.00    +0.000 A 
ATOM      2  C   UNL     1      26.314  23.487  27.538  0.00  0.00    +0.000 A 
ATOM      3  C   UNL     1      26.822  22.914  26.390  0.00  0.00    +0.000 A 
ATOM      4  C   UNL     1      28.083  22.384  26.444  0.00  0.00    +0.000 A 
ATOM      5  C   UNL     1      28.840  22.408  27.598  0.00  0.00    +0.000 A 
ATOM      6  C   UNL     1      28.316  22.985  28.738  0.00  0.00    +0.000 A 
ATOM      7  F   UNL     1      29.010  23.037  29.893  0.00  0.00    +0.000 F 
ENDROOT
BRANCH   1   9
ATOM      8  O   UNL     1      26.578  25.345  30.019  0.00  0.00    +0.000 OA
ATOM      9  N   UNL     1      26.509  24.119  29.877  0.00  0.00    +0.000 N 
ATOM     10  O   UNL     1      25.923  23.345  30.826  0.00  0.00    +0.000 OA
ENDBRANCH   1   9
BRANCH   3  11
ATOM     11  N   UNL     1      26.004  22.918  25.240  0.00  0.00    +0.000 NA
BRANCH  11  12
ATOM     12  C   UNL     1      26.098  23.852  24.186  0.00  0.00    +0.000 C 
ATOM     13  S   UNL     1      25.708  25.400  24.478  0.00  0.00    +0.000 S 
BRANCH  12  14
ATOM     14  N   UNL     1      26.516  23.462  22.918  0.00  0.00    +0.000 NA
BRANCH  14  15
ATOM     15  C   UNL     1      27.753  23.771  22.287  0.00  0.00    +0.000 C 
ATOM     16  C   UNL     1      27.784  25.055  21.528  0.00  0.00    +0.000 C 
ATOM     17  C   UNL     1      29.186  25.624  21.485  0.00  0.00    +0.000 C 
ATOM     18  C   UNL     1      29.737  25.864  22.870  0.00  0.00    +0.000 C 
ATOM     19  C   UNL     1      29.477  24.718  23.805  0.00  0.00    +0.000 C 
ATOM     20  C   UNL     1      28.961  23.487  23.111  0.00  0.00    +0.000 C 
ENDBRANCH  14  15
ENDBRANCH  12  14
ENDBRANCH  11  12
ENDBRANCH   3  11
TORSDOF 5
ENDMDL
MODEL 7
REMARK VINA RESULT:      -5.5     13.782     16.036
REMARK  Name = 
REMARK  5 active torsions:
REMARK  status: ('A' for Active; 'I' for Inactive)
REMARK    1  A    between atoms: N_2  and  C_4
REMARK    2  A    between atoms: C_6  and  N_7
REMARK    3  A    between atoms: N_7  and  C_8
REMARK    4  A    between atoms: C_8  and  N_10
REMARK    5  A    between atoms: N_10  and  C_11
REMARK                            x       y       z     vdW  Elec       q    Type
REMARK                         _______ _______ _______ _____ _____    ______ ____
ROOT
ATOM      1  C   UNL     1      27.871  23.487  23.477  0.00  0.00    +0.000 A 
ATOM      2  C   UNL     1      28.939  23.156  24.294  0.00  0.00    +0.000 A 
ATOM      3  C   UNL     1      28.748  22.661  25.568  0.00  0.00    +0.000 A 
ATOM      4  C   UNL     1      27.460  22.505  26.006  0.00  0.00    +0.000 A 
ATOM      5  C   UNL     1      26.373  22.825  25.218  0.00  0.00    +0.000 A 
ATOM      6  C   UNL     1      26.582  23.319  23.946  0.00  0.00    +0.000 A 
ATOM      7  F   UNL     1      25.558  23.648  23.133  0.00  0.00    +0.000 F 
ENDROOT
BRANCH   1   9
ATOM      8  O   UNL     1      29.064  23.596  21.530  0.00  0.00    +0.000 OA
ATOM      9  N   UNL     1      28.087  23.992  22.176  0.00  0.00    +0.000 N 
ATOM     10  O   UNL     1      27.229  24.900  21.645  0.00  0.00    +0.000 OA
ENDBRANCH   1   9
BRANCH   3  11
ATOM     11  N   UNL     1      29.896  22.352  26.328  0.00  0.00    +0.000 NA
BRANCH  11  12
ATOM     12  C   UNL     1      30.388  23.130  27.399  0.00  0.00    +0.000 C 
ATOM     13  S   UNL     1      31.346  24.397  27.066  0.00  0.00    +0.000 S 
BRANCH  12  14
ATOM     14  N   UNL     1      30.064  22.823  28.716  0.00  0.00    +0.000 NA
BRANCH  14  15
ATOM     15  C   UNL     1      29.077  23.448  29.527  0.00  0.00    +0.000 C 
ATOM     16  C   UNL     1      28.240  24.476  28.842  0.00  0.00    +0.000 C 
ATOM     17  C   UNL     1      26.876  24.581  29.490  0.00  0.00    +0.000 C 
ATOM     18  C   UNL     1      26.141  23.262  29.468  0.00  0.00    +0.000 C 
ATOM     19  C   UNL     1      27.015  22.105  29.862  0.00  0.00    +0.000 C 
ATOM     20  C   UNL     1      28.340  22.525  30.434  0.00  0.00    +0.000 C 
ENDBRANCH  14  15
ENDBRANCH  12  14
ENDBRANCH  11  12
ENDBRANCH   3  11
TORSDOF 5
ENDMDL
MODEL 8
REMARK VINA RESULT:      -5.5     33.829     34.268
REMARK  Name = 
REMARK  5 active torsions:
REMARK  status: ('A' for Active; 'I' for Inactive)
REMARK    1  A    between atoms: N_2  and  C_4
REMARK    2  A    between atoms: C_6  and  N_7
REMARK    3  A    between atoms: N_7  and  C_8
REMARK    4  A    between atoms: C_8  and  N_10
REMARK    5  A    between atoms: N_10  and  C_11
REMARK                            x       y       z     vdW  Elec       q    Type
REMARK                         _______ _______ _______ _____ _____    ______ ____
ROOT
ATOM      1  C   UNL     1      18.599  -7.852  27.028  0.00  0.00    +0.000 A 
ATOM      2  C   UNL     1      19.809  -8.365  26.589  0.00  0.00    +0.000 A 
ATOM      3  C   UNL     1      20.732  -7.579  25.931  0.00  0.00    +0.000 A 
ATOM      4  C   UNL     1      20.415  -6.264  25.719  0.00  0.00    +0.000 A 
ATOM      5  C   UNL     1      19.219  -5.720  26.143  0.00  0.00    +0.000 A 
ATOM      6  C   UNL     1      18.307  -6.521  26.800  0.00  0.00    +0.000 A 
ATOM      7  F   UNL     1      17.124  -6.043  27.236  0.00  0.00    +0.000 F 
ENDROOT
BRANCH   1   9
ATOM      8  O   UNL     1      16.672  -9.079  27.091  0.00  0.00    +0.000 OA
ATOM      9  N   UNL     1      17.668  -8.673  27.700  0.00  0.00    +0.000 N 
ATOM     10  O   UNL     1      17.870  -9.010  28.999  0.00  0.00    +0.000 OA
ENDBRANCH   1   9
BRANCH   3  11
ATOM     11  N   UNL     1      21.936  -8.188  25.521  0.00  0.00    +0.000 NA
BRANCH  11  12
ATOM     12  C   UNL     1      22.122  -8.866  24.296  0.00  0.00    +0.000 C 
ATOM     13  S   UNL     1      22.064 -10.488  24.286  0.00  0.00    +0.000 S 
BRANCH  12  14
ATOM     14  N   UNL     1      22.351  -8.165  23.117  0.00  0.00    +0.000 NA
BRANCH  14  15
ATOM     15  C   UNL     1      23.604  -7.729  22.605  0.00  0.00    +0.000 C 
ATOM     16  C   UNL     1      24.445  -6.941  23.551  0.00  0.00    +0.000 C 
ATOM     17  C   UNL     1      25.916  -7.102  23.230  0.00  0.00    +0.000 C 
ATOM     18  C   UNL     1      26.347  -8.548  23.285  0.00  0.00    +0.000 C 
ATOM     19  C   UNL     1      25.378  -9.469  22.601  0.00  0.00    +0.000 C 
ATOM     20  C   UNL     1      24.334  -8.745  21.796  0.00  0.00    +0.000 C 
ENDBRANCH  14  15
ENDBRANCH  12  14
ENDBRANCH  11  12
ENDBRANCH   3  11
TORSDOF 5
ENDMDL
MODEL 9
REMARK VINA RESULT:      -5.5     12.853     14.922
REMARK  Name = 
REMARK  5 active torsions:
REMARK  status: ('A' for Active; 'I' for Inactive)
REMARK    1  A    between atoms: N_2  and  C_4
REMARK    2  A    between atoms: C_6  and  N_7
REMARK    3  A    between atoms: N_7  and  C_8
REMARK    4  A    between atoms: C_8  and  N_10
REMARK    5  A    between atoms: N_10  and  C_11
REMARK                            x       y       z     vdW  Elec       q    Type
REMARK                         _______ _______ _______ _____ _____    ______ ____
ROOT
ATOM      1  C   UNL     1      31.894  24.109  25.250  0.00  0.00    +0.000 A 
ATOM      2  C   UNL     1      31.077  23.793  24.177  0.00  0.00    +0.000 A 
ATOM      3  C   UNL     1      29.976  22.975  24.323  0.00  0.00    +0.000 A 
ATOM      4  C   UNL     1      29.711  22.478  25.571  0.00  0.00    +0.000 A 
ATOM      5  C   UNL     1      30.503  22.773  26.662  0.00  0.00    +0.000 A 
ATOM      6  C   UNL     1      31.602  23.593  26.498  0.00  0.00    +0.000 A 
ATOM      7  F   UNL     1      32.411  23.914  27.527  0.00  0.00    +0.000 F 
ENDROOT
BRANCH   1   9
ATOM      8  O   UNL     1      34.103  24.447  24.768  0.00  0.00    +0.000 OA
ATOM      9  N   UNL     1      33.017  24.948  25.080  0.00  0.00    +0.000 N 
ATOM     10  O   UNL     1      32.899  26.288  25.255  0.00  0.00    +0.000 OA
ENDBRANCH   1   9
BRANCH   3  11
ATOM     11  N   UNL     1      29.202  22.708  23.174  0.00  0.00    +0.000 NA
BRANCH  11  12
ATOM     12  C   UNL     1      28.255  23.594  22.615  0.00  0.00    +0.000 C 
ATOM     13  S   UNL     1      28.782  24.806  21.673  0.00  0.00    +0.000 S 
BRANCH  12  14
ATOM     14  N   UNL     1      26.895  23.439  22.863  0.00  0.00    +0.000 NA
BRANCH  14  15
ATOM     15  C   UNL     1      26.172  23.890  24.002  0.00  0.00    +0.000 C 
ATOM     16  C   UNL     1      26.135  22.945  25.155  0.00  0.00    +0.000 C 
ATOM     17  C   UNL     1      25.980  23.693  26.462  0.00  0.00    +0.000 C 
ATOM     18  C   UNL     1      27.100  24.682  26.679  0.00  0.00    +0.000 C 
ATOM     19  C   UNL     1      27.413  25.484  25.448  0.00  0.00    +0.000 C 
ATOM     20  C   UNL     1      26.394  25.321  24.355  0.00  0.00    +0.000 C 
ENDBRANCH  14  15
ENDBRANCH  12  14
ENDBRANCH  11  12
ENDBRANCH   3  11
TORSDOF 5
ENDMDL
MODEL 10
REMARK VINA RESULT:      -5.4     14.739     17.382
REMARK  Name = 
REMARK  5 active torsions:
REMARK  status: ('A' for Active; 'I' for Inactive)
REMARK    1  A    between atoms: N_2  and  C_4
REMARK    2  A    between atoms: C_6  and  N_7
REMARK    3  A    between atoms: N_7  and  C_8
REMARK    4  A    between atoms: C_8  and  N_10
REMARK    5  A    between atoms: N_10  and  C_11
REMARK                            x       y       z     vdW  Elec       q    Type
REMARK                         _______ _______ _______ _____ _____    ______ ____
ROOT
ATOM      1  C   UNL     1      28.196  23.236  24.829  0.00  0.00    +0.000 A 
ATOM      2  C   UNL     1      27.709  22.965  26.097  0.00  0.00    +0.000 A 
ATOM      3  C   UNL     1      28.504  22.396  27.071  0.00  0.00    +0.000 A 
ATOM      4  C   UNL     1      29.802  22.104  26.745  0.00  0.00    +0.000 A 
ATOM      5  C   UNL     1      30.319  22.360  25.492  0.00  0.00    +0.000 A 
ATOM      6  C   UNL     1      29.509  22.930  24.529  0.00  0.00    +0.000 A 
ATOM      7  F   UNL     1      29.961  23.202  23.289  0.00  0.00    +0.000 F 
ENDROOT
BRANCH   1   9
ATOM      8  O   UNL     1      27.259  25.049  23.801  0.00  0.00    +0.000 OA
ATOM      9  N   UNL     1      27.366  23.819  23.847  0.00  0.00    +0.000 N 
ATOM     10  O   UNL     1      26.698  23.033  22.965  0.00  0.00    +0.000 OA
ENDBRANCH   1   9
BRANCH   3  11
ATOM     11  N   UNL     1      27.922  22.157  28.333  0.00  0.00    +0.000 NA
BRANCH  11  12
ATOM     12  C   UNL     1      28.015  23.026  29.443  0.00  0.00    +0.000 C 
ATOM     13  S   UNL     1      28.877  22.553  30.734  0.00  0.00    +0.000 S 
BRANCH  12  14
ATOM     14  N   UNL     1      27.382  24.264  29.438  0.00  0.00    +0.000 NA
BRANCH  14  15
ATOM     15  C   UNL     1      25.986  24.517  29.533  0.00  0.00    +0.000 C 
ATOM     16  C   UNL     1      25.567  25.393  30.664  0.00  0.00    +0.000 C 
ATOM     17  C   UNL     1      24.291  26.137  30.329  0.00  0.00    +0.000 C 
ATOM     18  C   UNL     1      24.445  26.984  29.089  0.00  0.00    +0.000 C 
ATOM     19  C   UNL     1      25.145  26.260  27.975  0.00  0.00    +0.000 C 
ATOM     20  C   UNL     1      25.311  24.788  28.232  0.00  0.00    +0.000 C 
ENDBRANCH  14  15
ENDBRANCH  12  14
ENDBRANCH  11  12
ENDBRANCH   3  11
TORSDOF 5
ENDMDL
