MODEL 1
REMARK VINA RESULT:      -7.2      0.000      0.000
REMARK  Name = 
REMARK  4 active torsions:
REMARK  status: ('A' for Active; 'I' for Inactive)
REMARK    1  A    between atoms: C_2  and  C_4
REMARK    2  A    between atoms: C_8  and  C_9
REMARK    3  A    between atoms: N_11  and  C_12
REMARK    4  A    between atoms: C_12  and  C_13
REMARK                            x       y       z     vdW  Elec       q    Type
REMARK                         _______ _______ _______ _____ _____    ______ ____
ROOT
ATOM      1  C   UNL     1      16.306  11.637  36.440  0.00  0.00    +0.000 C 
ATOM      2  O   UNL     1      15.317  11.263  37.120  0.00  0.00    +0.000 OA
ATOM      3  N   UNL     1      16.066  12.099  35.126  0.00  0.00    +0.000 NA
ENDROOT
BRANCH   1   8
ATOM      4  C   UNL     1      19.668  10.838  37.624  0.00  0.00    +0.000 A 
ATOM      5  C   UNL     1      19.519  12.134  38.061  0.00  0.00    +0.000 A 
ATOM      6  C   UNL     1      20.545  12.897  38.815  0.00  0.00    +0.000 C 
ATOM      7  N   UNL     1      18.299  12.538  37.677  0.00  0.00    +0.000 NA
ATOM      8  C   UNL     1      17.649  11.583  37.016  0.00  0.00    +0.000 A 
ATOM      9  C   UNL     1      18.495  10.514  36.976  0.00  0.00    +0.000 A 
ATOM     10  C   UNL     1      18.233   9.182  36.340  0.00  0.00    +0.000 C 
BRANCH   4  12
ATOM     11  C   UNL     1      21.878   9.843  36.756  0.00  0.00    +0.000 C 
ATOM     12  C   UNL     1      20.847   9.962  37.807  0.00  0.00    +0.000 C 
ATOM     13  O   UNL     1      20.899   9.340  38.906  0.00  0.00    +0.000 OA
ENDBRANCH   4  12
ENDBRANCH   1   8
BRANCH   3  14
ATOM     14  C   UNL     1      14.729  12.128  34.616  0.00  0.00    +0.000 C 
BRANCH  14  15
ATOM     15  C   UNL     1      14.635  12.565  33.208  0.00  0.00    +0.000 A 
ATOM     16  C   UNL     1      13.994  13.701  32.797  0.00  0.00    +0.000 A 
ATOM     17  C   UNL     1      13.946  14.046  31.463  0.00  0.00    +0.000 A 
ATOM     18  C   UNL     1      14.537  13.272  30.481  0.00  0.00    +0.000 A 
ATOM     19  C   UNL     1      15.179  12.131  30.895  0.00  0.00    +0.000 A 
ATOM     20  C   UNL     1      15.230  11.777  32.249  0.00  0.00    +0.000 A 
ATOM     21  F   UNL     1      15.877  10.638  32.625  0.00  0.00    +0.000 F 
ENDBRANCH  14  15
ENDBRANCH   3  14
TORSDOF 4
ENDMDL
MODEL 2
REMARK VINA RESULT:      -7.1      3.607      7.623
REMARK  Name = 
REMARK  4 active torsions:
REMARK  status: ('A' for Active; 'I' for Inactive)
REMARK    1  A    between atoms: C_2  and  C_4
REMARK    2  A    between atoms: C_8  and  C_9
REMARK    3  A    between atoms: N_11  and  C_12
REMARK    4  A    between atoms: C_12  and  C_13
REMARK                            x       y       z     vdW  Elec       q    Type
REMARK                         _______ _______ _______ _____ _____    ______ ____
ROOT
ATOM      1  C   UNL     1      17.540  11.265  37.384  0.00  0.00    +0.000 C 
ATOM      2  O   UNL     1      18.469  12.041  37.723  0.00  0.00    +0.000 OA
ATOM      3  N   UNL     1      17.386  10.064  38.113  0.00  0.00    +0.000 NA
ENDROOT
BRANCH   1   8
ATOM      4  C   UNL     1      15.720  11.657  34.241  0.00  0.00    +0.000 A 
ATOM      5  C   UNL     1      15.092  12.581  35.044  0.00  0.00    +0.000 A 
ATOM      6  C   UNL     1      13.970  13.453  34.614  0.00  0.00    +0.000 C 
ATOM      7  N   UNL     1      15.688  12.524  36.245  0.00  0.00    +0.000 NA
ATOM      8  C   UNL     1      16.664  11.620  36.269  0.00  0.00    +0.000 A 
ATOM      9  C   UNL     1      16.694  11.070  35.021  0.00  0.00    +0.000 A 
ATOM     10  C   UNL     1      17.620   9.997  34.532  0.00  0.00    +0.000 C 
BRANCH   4  12
ATOM     11  C   UNL     1      16.029  12.128  31.729  0.00  0.00    +0.000 C 
ATOM     12  C   UNL     1      15.417  11.349  32.825  0.00  0.00    +0.000 C 
ATOM     13  O   UNL     1      14.614  10.393  32.634  0.00  0.00    +0.000 OA
ENDBRANCH   4  12
ENDBRANCH   1   8
BRANCH   3  14
ATOM     14  C   UNL     1      18.274   9.770  39.196  0.00  0.00    +0.000 C 
BRANCH  14  15
ATOM     15  C   UNL     1      17.930   8.539  39.936  0.00  0.00    +0.000 A 
ATOM     16  C   UNL     1      18.620   7.363  39.835  0.00  0.00    +0.000 A 
ATOM     17  C   UNL     1      18.240   6.252  40.556  0.00  0.00    +0.000 A 
ATOM     18  C   UNL     1      17.153   6.268  41.413  0.00  0.00    +0.000 A 
ATOM     19  C   UNL     1      16.461   7.448  41.512  0.00  0.00    +0.000 A 
ATOM     20  C   UNL     1      16.844   8.579  40.780  0.00  0.00    +0.000 A 
ATOM     21  F   UNL     1      16.134   9.737  40.904  0.00  0.00    +0.000 F 
ENDBRANCH  14  15
ENDBRANCH   3  14
TORSDOF 4
ENDMDL
MODEL 3
REMARK VINA RESULT:      -6.6      2.725      7.394
REMARK  Name = 
REMARK  4 active torsions:
REMARK  status: ('A' for Active; 'I' for Inactive)
REMARK    1  A    between atoms: C_2  and  C_4
REMARK    2  A    between atoms: C_8  and  C_9
REMARK    3  A    between atoms: N_11  and  C_12
REMARK    4  A    between atoms: C_12  and  C_13
REMARK                            x       y       z     vdW  Elec       q    Type
REMARK                         _______ _______ _______ _____ _____    ______ ____
ROOT
ATOM      1  C   UNL     1      18.195  10.316  37.042  0.00  0.00    +0.000 C 
ATOM      2  O   UNL     1      17.866   9.620  38.037  0.00  0.00    +0.000 OA
ATOM      3  N   UNL     1      19.573  10.544  36.825  0.00  0.00    +0.000 NA
ENDROOT
BRANCH   1   8
ATOM      4  C   UNL     1      15.920  11.251  34.342  0.00  0.00    +0.000 A 
ATOM      5  C   UNL     1      15.440  12.008  35.386  0.00  0.00    +0.000 A 
ATOM      6  C   UNL     1      14.282  12.932  35.299  0.00  0.00    +0.000 C 
ATOM      7  N   UNL     1      16.214  11.742  36.449  0.00  0.00    +0.000 NA
ATOM      8  C   UNL     1      17.165  10.857  36.158  0.00  0.00    +0.000 A 
ATOM      9  C   UNL     1      16.992  10.542  34.843  0.00  0.00    +0.000 A 
ATOM     10  C   UNL     1      17.811   9.584  34.031  0.00  0.00    +0.000 C 
BRANCH   4  12
ATOM     11  C   UNL     1      15.895  12.128  31.922  0.00  0.00    +0.000 C 
ATOM     12  C   UNL     1      15.396  11.201  32.958  0.00  0.00    +0.000 C 
ATOM     13  O   UNL     1      14.512  10.325  32.740  0.00  0.00    +0.000 OA
ENDBRANCH   4  12
ENDBRANCH   1   8
BRANCH   3  14
ATOM     14  C   UNL     1      20.537   9.988  37.724  0.00  0.00    +0.000 C 
BRANCH  14  15
ATOM     15  C   UNL     1      21.936  10.160  37.284  0.00  0.00    +0.000 A 
ATOM     16  C   UNL     1      22.604   9.276  36.483  0.00  0.00    +0.000 A 
ATOM     17  C   UNL     1      23.912   9.502  36.112  0.00  0.00    +0.000 A 
ATOM     18  C   UNL     1      24.611  10.623  36.526  0.00  0.00    +0.000 A 
ATOM     19  C   UNL     1      23.940  11.508  37.331  0.00  0.00    +0.000 A 
ATOM     20  C   UNL     1      22.610  11.282  37.710  0.00  0.00    +0.000 A 
ATOM     21  F   UNL     1      21.973  12.183  38.510  0.00  0.00    +0.000 F 
ENDBRANCH  14  15
ENDBRANCH   3  14
TORSDOF 4
ENDMDL
MODEL 4
REMARK VINA RESULT:      -6.5      3.423      4.358
REMARK  Name = 
REMARK  4 active torsions:
REMARK  status: ('A' for Active; 'I' for Inactive)
REMARK    1  A    between atoms: C_2  and  C_4
REMARK    2  A    between atoms: C_8  and  C_9
REMARK    3  A    between atoms: N_11  and  C_12
REMARK    4  A    between atoms: C_12  and  C_13
REMARK                            x       y       z     vdW  Elec       q    Type
REMARK                         _______ _______ _______ _____ _____    ______ ____
ROOT
ATOM      1  C   UNL     1      18.417   9.761  37.377  0.00  0.00    +0.000 C 
ATOM      2  O   UNL     1      19.235  10.701  37.210  0.00  0.00    +0.000 OA
ATOM      3  N   UNL     1      17.740   9.267  36.240  0.00  0.00    +0.000 NA
ENDROOT
BRANCH   1   8
ATOM      4  C   UNL     1      17.270   8.802  40.710  0.00  0.00    +0.000 A 
ATOM      5  C   UNL     1      18.441   8.087  40.601  0.00  0.00    +0.000 A 
ATOM      6  C   UNL     1      18.986   7.190  41.651  0.00  0.00    +0.000 C 
ATOM      7  N   UNL     1      18.959   8.367  39.396  0.00  0.00    +0.000 NA
ATOM      8  C   UNL     1      18.195   9.219  38.716  0.00  0.00    +0.000 A 
ATOM      9  C   UNL     1      17.135   9.498  39.528  0.00  0.00    +0.000 A 
ATOM     10  C   UNL     1      15.984  10.410  39.224  0.00  0.00    +0.000 C 
BRANCH   4  12
ATOM     11  C   UNL     1      16.440   9.865  42.903  0.00  0.00    +0.000 C 
ATOM     12  C   UNL     1      16.339   8.823  41.860  0.00  0.00    +0.000 C 
ATOM     13  O   UNL     1      15.473   7.903  41.878  0.00  0.00    +0.000 OA
ENDBRANCH   4  12
ENDBRANCH   1   8
BRANCH   3  14
ATOM     14  C   UNL     1      17.998   9.838  34.954  0.00  0.00    +0.000 C 
BRANCH  14  15
ATOM     15  C   UNL     1      16.899  10.682  34.441  0.00  0.00    +0.000 A 
ATOM     16  C   UNL     1      16.099  11.464  35.228  0.00  0.00    +0.000 A 
ATOM     17  C   UNL     1      15.091  12.226  34.679  0.00  0.00    +0.000 A 
ATOM     18  C   UNL     1      14.837  12.241  33.318  0.00  0.00    +0.000 A 
ATOM     19  C   UNL     1      15.639  11.455  32.530  0.00  0.00    +0.000 A 
ATOM     20  C   UNL     1      16.665  10.678  33.084  0.00  0.00    +0.000 A 
ATOM     21  F   UNL     1      17.444   9.909  32.272  0.00  0.00    +0.000 F 
ENDBRANCH  14  15
ENDBRANCH   3  14
TORSDOF 4
ENDMDL
MODEL 5
REMARK VINA RESULT:      -6.5      2.646      4.194
REMARK  Name = 
REMARK  4 active torsions:
REMARK  status: ('A' for Active; 'I' for Inactive)
REMARK    1  A    between atoms: C_2  and  C_4
REMARK    2  A    between atoms: C_8  and  C_9
REMARK    3  A    between atoms: N_11  and  C_12
REMARK    4  A    between atoms: C_12  and  C_13
REMARK                            x       y       z     vdW  Elec       q    Type
REMARK                         _______ _______ _______ _____ _____    ______ ____
ROOT
ATOM      1  C   UNL     1      19.866   9.870  37.044  0.00  0.00    +0.000 C 
ATOM      2  O   UNL     1      19.265   9.482  38.078  0.00  0.00    +0.000 OA
ATOM      3  N   UNL     1      19.134   9.918  35.836  0.00  0.00    +0.000 NA
ENDROOT
BRANCH   1   8
ATOM      4  C   UNL     1      23.153  11.334  37.676  0.00  0.00    +0.000 A 
ATOM      5  C   UNL     1      23.465  10.310  36.811  0.00  0.00    +0.000 A 
ATOM      6  C   UNL     1      24.834   9.991  36.335  0.00  0.00    +0.000 C 
ATOM      7  N   UNL     1      22.314   9.692  36.505  0.00  0.00    +0.000 NA
ATOM      8  C   UNL     1      21.275  10.252  37.120  0.00  0.00    +0.000 A 
ATOM      9  C   UNL     1      21.787  11.281  37.855  0.00  0.00    +0.000 A 
ATOM     10  C   UNL     1      21.023  12.227  38.732  0.00  0.00    +0.000 C 
BRANCH   4  12
ATOM     11  C   UNL     1      24.532  13.504  37.560  0.00  0.00    +0.000 C 
ATOM     12  C   UNL     1      24.089  12.300  38.292  0.00  0.00    +0.000 C 
ATOM     13  O   UNL     1      24.469  12.019  39.464  0.00  0.00    +0.000 OA
ENDBRANCH   4  12
ENDBRANCH   1   8
BRANCH   3  14
ATOM     14  C   UNL     1      17.757   9.530  35.823  0.00  0.00    +0.000 C 
BRANCH  14  15
ATOM     15  C   UNL     1      16.925  10.306  34.880  0.00  0.00    +0.000 A 
ATOM     16  C   UNL     1      17.071  10.274  33.520  0.00  0.00    +0.000 A 
ATOM     17  C   UNL     1      16.258  11.026  32.701  0.00  0.00    +0.000 A 
ATOM     18  C   UNL     1      15.261  11.844  33.204  0.00  0.00    +0.000 A 
ATOM     19  C   UNL     1      15.117  11.877  34.568  0.00  0.00    +0.000 A 
ATOM     20  C   UNL     1      15.942  11.113  35.405  0.00  0.00    +0.000 A 
ATOM     21  F   UNL     1      15.770  11.168  36.756  0.00  0.00    +0.000 F 
ENDBRANCH  14  15
ENDBRANCH   3  14
TORSDOF 4
ENDMDL
MODEL 6
REMARK VINA RESULT:      -6.4     21.346     23.072
REMARK  Name = 
REMARK  4 active torsions:
REMARK  status: ('A' for Active; 'I' for Inactive)
REMARK    1  A    between atoms: C_2  and  C_4
REMARK    2  A    between atoms: C_8  and  C_9
REMARK    3  A    between atoms: N_11  and  C_12
REMARK    4  A    between atoms: C_12  and  C_13
REMARK                            x       y       z     vdW  Elec       q    Type
REMARK                         _______ _______ _______ _____ _____    ______ ____
ROOT
ATOM      1  C   UNL     1      28.864  24.218  22.055  0.00  0.00    +0.000 C 
ATOM      2  O   UNL     1      27.889  23.474  21.777  0.00  0.00    +0.000 OA
ATOM      3  N   UNL     1      29.689  23.845  23.139  0.00  0.00    +0.000 NA
ENDROOT
BRANCH   1   8
ATOM      4  C   UNL     1      29.109  27.558  20.595  0.00  0.00    +0.000 A 
ATOM      5  C   UNL     1      29.798  26.800  19.676  0.00  0.00    +0.000 A 
ATOM      6  C   UNL     1      30.432  27.333  18.444  0.00  0.00    +0.000 C 
ATOM      7  N   UNL     1      29.772  25.533  20.116  0.00  0.00    +0.000 NA
ATOM      8  C   UNL     1      29.109  25.423  21.265  0.00  0.00    +0.000 A 
ATOM      9  C   UNL     1      28.689  26.684  21.575  0.00  0.00    +0.000 A 
ATOM     10  C   UNL     1      27.896  27.097  22.778  0.00  0.00    +0.000 C 
BRANCH   4  12
ATOM     11  C   UNL     1      29.809  29.967  21.169  0.00  0.00    +0.000 C 
ATOM     12  C   UNL     1      28.864  29.017  20.548  0.00  0.00    +0.000 C 
ATOM     13  O   UNL     1      27.810  29.374  19.950  0.00  0.00    +0.000 OA
ENDBRANCH   4  12
ENDBRANCH   1   8
BRANCH   3  14
ATOM     14  C   UNL     1      29.399  22.653  23.877  0.00  0.00    +0.000 C 
BRANCH  14  15
ATOM     15  C   UNL     1      29.800  22.716  25.297  0.00  0.00    +0.000 A 
ATOM     16  C   UNL     1      31.068  22.991  25.727  0.00  0.00    +0.000 A 
ATOM     17  C   UNL     1      31.369  23.032  27.071  0.00  0.00    +0.000 A 
ATOM     18  C   UNL     1      30.415  22.801  28.047  0.00  0.00    +0.000 A 
ATOM     19  C   UNL     1      29.142  22.524  27.614  0.00  0.00    +0.000 A 
ATOM     20  C   UNL     1      28.832  22.481  26.248  0.00  0.00    +0.000 A 
ATOM     21  F   UNL     1      27.557  22.203  25.853  0.00  0.00    +0.000 F 
ENDBRANCH  14  15
ENDBRANCH   3  14
TORSDOF 4
ENDMDL
MODEL 7
REMARK VINA RESULT:      -6.1      4.040      4.984
REMARK  Name = 
REMARK  4 active torsions:
REMARK  status: ('A' for Active; 'I' for Inactive)
REMARK    1  A    between atoms: C_2  and  C_4
REMARK    2  A    between atoms: C_8  and  C_9
REMARK    3  A    between atoms: N_11  and  C_12
REMARK    4  A    between atoms: C_12  and  C_13
REMARK                            x       y       z     vdW  Elec       q    Type
REMARK                         _______ _______ _______ _____ _____    ______ ____
ROOT
ATOM      1  C   UNL     1      17.767  10.089  38.743  0.00  0.00    +0.000 C 
ATOM      2  O   UNL     1      18.660  10.972  38.673  0.00  0.00    +0.000 OA
ATOM      3  N   UNL     1      16.580  10.293  38.006  0.00  0.00    +0.000 NA
ENDROOT
BRANCH   1   8
ATOM      4  C   UNL     1      17.918   7.475  41.291  0.00  0.00    +0.000 A 
ATOM      5  C   UNL     1      18.638   6.907  40.265  0.00  0.00    +0.000 A 
ATOM      6  C   UNL     1      19.265   5.562  40.314  0.00  0.00    +0.000 C 
ATOM      7  N   UNL     1      18.650   7.793  39.258  0.00  0.00    +0.000 NA
ATOM      8  C   UNL     1      17.981   8.901  39.568  0.00  0.00    +0.000 A 
ATOM      9  C   UNL     1      17.518   8.715  40.838  0.00  0.00    +0.000 A 
ATOM     10  C   UNL     1      16.702   9.676  41.648  0.00  0.00    +0.000 C 
BRANCH   4  12
ATOM     11  C   UNL     1      18.504   7.146  43.775  0.00  0.00    +0.000 C 
ATOM     12  C   UNL     1      17.628   6.883  42.616  0.00  0.00    +0.000 C 
ATOM     13  O   UNL     1      16.599   6.153  42.673  0.00  0.00    +0.000 OA
ENDBRANCH   4  12
ENDBRANCH   1   8
BRANCH   3  14
ATOM     14  C   UNL     1      16.427  11.476  37.215  0.00  0.00    +0.000 C 
BRANCH  14  15
ATOM     15  C   UNL     1      16.456  11.231  35.758  0.00  0.00    +0.000 A 
ATOM     16  C   UNL     1      17.389  10.456  35.127  0.00  0.00    +0.000 A 
ATOM     17  C   UNL     1      17.354  10.273  33.762  0.00  0.00    +0.000 A 
ATOM     18  C   UNL     1      16.383  10.856  32.966  0.00  0.00    +0.000 A 
ATOM     19  C   UNL     1      15.448  11.635  33.600  0.00  0.00    +0.000 A 
ATOM     20  C   UNL     1      15.481  11.824  34.988  0.00  0.00    +0.000 A 
ATOM     21  F   UNL     1      14.536  12.603  35.586  0.00  0.00    +0.000 F 
ENDBRANCH  14  15
ENDBRANCH   3  14
TORSDOF 4
ENDMDL
MODEL 8
REMARK VINA RESULT:      -6.1     19.852     23.404
REMARK  Name = 
REMARK  4 active torsions:
REMARK  status: ('A' for Active; 'I' for Inactive)
REMARK    1  A    between atoms: C_2  and  C_4
REMARK    2  A    between atoms: C_8  and  C_9
REMARK    3  A    between atoms: N_11  and  C_12
REMARK    4  A    between atoms: C_12  and  C_13
REMARK                            x       y       z     vdW  Elec       q    Type
REMARK                         _______ _______ _______ _____ _____    ______ ____
ROOT
ATOM      1  C   UNL     1      33.154  -4.696  33.307  0.00  0.00    +0.000 C 
ATOM      2  O   UNL     1      32.981  -5.066  34.496  0.00  0.00    +0.000 OA
ATOM      3  N   UNL     1      33.426  -3.329  33.075  0.00  0.00    +0.000 NA
ENDROOT
BRANCH   1   8
ATOM      4  C   UNL     1      33.653  -7.045  30.553  0.00  0.00    +0.000 A 
ATOM      5  C   UNL     1      32.292  -7.121  30.742  0.00  0.00    +0.000 A 
ATOM      6  C   UNL     1      31.375  -7.982  29.954  0.00  0.00    +0.000 C 
ATOM      7  N   UNL     1      31.989  -6.285  31.747  0.00  0.00    +0.000 NA
ATOM      8  C   UNL     1      33.071  -5.672  32.221  0.00  0.00    +0.000 A 
ATOM      9  C   UNL     1      34.119  -6.139  31.482  0.00  0.00    +0.000 A 
ATOM     10  C   UNL     1      35.561  -5.756  31.624  0.00  0.00    +0.000 C 
BRANCH   4  12
ATOM     11  C   UNL     1      34.604  -7.283  28.174  0.00  0.00    +0.000 C 
ATOM     12  C   UNL     1      34.460  -7.782  29.556  0.00  0.00    +0.000 C 
ATOM     13  O   UNL     1      35.001  -8.846  29.971  0.00  0.00    +0.000 OA
ENDBRANCH   4  12
ENDBRANCH   1   8
BRANCH   3  14
ATOM     14  C   UNL     1      33.495  -2.420  34.178  0.00  0.00    +0.000 C 
BRANCH  14  15
ATOM     15  C   UNL     1      33.534  -0.998  33.781  0.00  0.00    +0.000 A 
ATOM     16  C   UNL     1      34.336  -0.497  32.793  0.00  0.00    +0.000 A 
ATOM     17  C   UNL     1      34.320   0.844  32.476  0.00  0.00    +0.000 A 
ATOM     18  C   UNL     1      33.501   1.745  33.133  0.00  0.00    +0.000 A 
ATOM     19  C   UNL     1      32.697   1.242  34.125  0.00  0.00    +0.000 A 
ATOM     20  C   UNL     1      32.710  -0.121  34.450  0.00  0.00    +0.000 A 
ATOM     21  F   UNL     1      31.898  -0.588  35.440  0.00  0.00    +0.000 F 
ENDBRANCH  14  15
ENDBRANCH   3  14
TORSDOF 4
ENDMDL
MODEL 9
REMARK VINA RESULT:      -6.1     18.185     19.107
REMARK  Name = 
REMARK  4 active torsions:
REMARK  status: ('A' for Active; 'I' for Inactive)
REMARK    1  A    between atoms: C_2  and  C_4
REMARK    2  A    between atoms: C_8  and  C_9
REMARK    3  A    between atoms: N_11  and  C_12
REMARK    4  A    between atoms: C_12  and  C_13
REMARK                            x       y       z     vdW  Elec       q    Type
REMARK                         _______ _______ _______ _____ _____    ______ ____
ROOT
ATOM      1  C   UNL     1      29.847  23.543  26.650  0.00  0.00    +0.000 C 
ATOM      2  O   UNL     1      30.506  24.602  26.492  0.00  0.00    +0.000 OA
ATOM      3  N   UNL     1      29.655  22.712  25.524  0.00  0.00    +0.000 NA
ENDROOT
BRANCH   1   8
ATOM      4  C   UNL     1      27.870  22.784  29.627  0.00  0.00    +0.000 A 
ATOM      5  C   UNL     1      29.154  22.674  30.109  0.00  0.00    +0.000 A 
ATOM      6  C   UNL     1      29.506  22.328  31.509  0.00  0.00    +0.000 C 
ATOM      7  N   UNL     1      29.980  22.937  29.085  0.00  0.00    +0.000 NA
ATOM      8  C   UNL     1      29.310  23.210  27.968  0.00  0.00    +0.000 A 
ATOM      9  C   UNL     1      27.988  23.118  28.294  0.00  0.00    +0.000 A 
ATOM     10  C   UNL     1      26.819  23.335  27.382  0.00  0.00    +0.000 C 
BRANCH   4  12
ATOM     11  C   UNL     1      26.052  21.235  30.586  0.00  0.00    +0.000 C 
ATOM     12  C   UNL     1      26.612  22.586  30.380  0.00  0.00    +0.000 C 
ATOM     13  O   UNL     1      26.068  23.638  30.821  0.00  0.00    +0.000 OA
ENDBRANCH   4  12
ENDBRANCH   1   8
BRANCH   3  14
ATOM     14  C   UNL     1      30.205  23.091  24.258  0.00  0.00    +0.000 C 
BRANCH  14  15
ATOM     15  C   UNL     1      29.259  23.820  23.388  0.00  0.00    +0.000 A 
ATOM     16  C   UNL     1      28.126  23.271  22.853  0.00  0.00    +0.000 A 
ATOM     17  C   UNL     1      27.290  24.013  22.048  0.00  0.00    +0.000 A 
ATOM     18  C   UNL     1      27.548  25.338  21.742  0.00  0.00    +0.000 A 
ATOM     19  C   UNL     1      28.686  25.887  22.278  0.00  0.00    +0.000 A 
ATOM     20  C   UNL     1      29.539  25.136  23.097  0.00  0.00    +0.000 A 
ATOM     21  F   UNL     1      30.660  25.713  23.614  0.00  0.00    +0.000 F 
ENDBRANCH  14  15
ENDBRANCH   3  14
TORSDOF 4
ENDMDL
MODEL 10
REMARK VINA RESULT:      -6.0     20.417     22.105
REMARK  Name = 
REMARK  4 active torsions:
REMARK  status: ('A' for Active; 'I' for Inactive)
REMARK    1  A    between atoms: C_2  and  C_4
REMARK    2  A    between atoms: C_8  and  C_9
REMARK    3  A    between atoms: N_11  and  C_12
REMARK    4  A    between atoms: C_12  and  C_13
REMARK                            x       y       z     vdW  Elec       q    Type
REMARK                         _______ _______ _______ _____ _____    ______ ____
ROOT
ATOM      1  C   UNL     1      23.669   2.863  17.825  0.00  0.00    +0.000 C 
ATOM      2  O   UNL     1      24.433   1.906  18.108  0.00  0.00    +0.000 OA
ATOM      3  N   UNL     1      24.125   4.173  18.095  0.00  0.00    +0.000 NA
ENDROOT
BRANCH   1   8
ATOM      4  C   UNL     1      20.703   2.395  15.743  0.00  0.00    +0.000 A 
ATOM      5  C   UNL     1      20.229   2.047  16.988  0.00  0.00    +0.000 A 
ATOM      6  C   UNL     1      18.839   1.611  17.272  0.00  0.00    +0.000 C 
ATOM      7  N   UNL     1      21.250   2.184  17.847  0.00  0.00    +0.000 NA
ATOM      8  C   UNL     1      22.357   2.599  17.236  0.00  0.00    +0.000 A 
ATOM      9  C   UNL     1      22.028   2.735  15.920  0.00  0.00    +0.000 A 
ATOM     10  C   UNL     1      22.930   3.179  14.808  0.00  0.00    +0.000 C 
BRANCH   4  12
ATOM     11  C   UNL     1      19.935   1.223  13.585  0.00  0.00    +0.000 C 
ATOM     12  C   UNL     1      19.950   2.406  14.470  0.00  0.00    +0.000 C 
ATOM     13  O   UNL     1      19.338   3.479  14.206  0.00  0.00    +0.000 OA
ENDBRANCH   4  12
ENDBRANCH   1   8
BRANCH   3  14
ATOM     14  C   UNL     1      25.419   4.370  18.673  0.00  0.00    +0.000 C 
BRANCH  14  15
ATOM     15  C   UNL     1      26.257   5.347  17.948  0.00  0.00    +0.000 A 
ATOM     16  C   UNL     1      26.053   5.720  16.648  0.00  0.00    +0.000 A 
ATOM     17  C   UNL     1      26.877   6.638  16.035  0.00  0.00    +0.000 A 
ATOM     18  C   UNL     1      27.942   7.228  16.695  0.00  0.00    +0.000 A 
ATOM     19  C   UNL     1      28.146   6.852  17.999  0.00  0.00    +0.000 A 
ATOM     20  C   UNL     1      27.310   5.918  18.625  0.00  0.00    +0.000 A 
ATOM     21  F   UNL     1      27.541   5.569  19.923  0.00  0.00    +0.000 F 
ENDBRANCH  14  15
ENDBRANCH   3  14
TORSDOF 4
ENDMDL
