MODEL 1
REMARK VINA RESULT:      -7.2      0.000      0.000
REMARK  Name = 
REMARK  3 active torsions:
REMARK  status: ('A' for Active; 'I' for Inactive)
REMARK    1  A    between atoms: C_7  and  N_8
REMARK    2  A    between atoms: N_8  and  N_9
REMARK    3  A    between atoms: C_10  and  C_12
REMARK                            x       y       z     vdW  Elec       q    Type
REMARK                         _______ _______ _______ _____ _____    ______ ____
ROOT
ATOM      1  N   UNL     1      15.714  12.139  35.011  0.00  0.00    +0.000 NA
ATOM      2  C   UNL     1      15.323  11.387  36.154  0.00  0.00    +0.000 C 
ATOM      3  O   UNL     1      14.130  11.335  36.523  0.00  0.00    +0.000 OA
ENDROOT
BRANCH   2   4
ATOM      4  C   UNL     1      16.359  10.670  36.885  0.00  0.00    +0.000 A 
ATOM      5  C   UNL     1      16.397  10.717  38.265  0.00  0.00    +0.000 A 
ATOM      6  C   UNL     1      17.360  10.064  38.996  0.00  0.00    +0.000 A 
ATOM      7  C   UNL     1      18.346   9.318  38.347  0.00  0.00    +0.000 A 
ATOM      8  C   UNL     1      18.302   9.275  36.985  0.00  0.00    +0.000 A 
ATOM      9  C   UNL     1      17.329   9.934  36.240  0.00  0.00    +0.000 A 
ATOM     10 CL   UNL     1      17.321   9.830  34.483  0.00  0.00    +0.000 Cl
ENDBRANCH   2   4
BRANCH   1  11
ATOM     11  N   UNL     1      14.786  12.821  34.280  0.00  0.00    +0.000 NA
BRANCH  11  18
ATOM     12  C   UNL     1      13.420  14.866  33.197  0.00  0.00    +0.000 C 
ATOM     13  C   UNL     1      13.492  13.602  32.142  0.00  0.00    +0.000 C 
ATOM     14  C   UNL     1      14.664  14.330  31.207  0.00  0.00    +0.000 C 
ATOM     15  C   UNL     1      14.983  13.315  30.142  0.00  0.00    +0.000 C 
ATOM     16  C   UNL     1      14.787  11.873  30.632  0.00  0.00    +0.000 C 
ATOM     17  C   UNL     1      15.117  11.916  32.084  0.00  0.00    +0.000 C 
ATOM     18  C   UNL     1      14.550  12.728  32.947  0.00  0.00    +0.000 C 
ENDBRANCH  11  18
ENDBRANCH   1  11
TORSDOF 3
ENDMDL
MODEL 2
REMARK VINA RESULT:      -7.1      1.803      6.748
REMARK  Name = 
REMARK  3 active torsions:
REMARK  status: ('A' for Active; 'I' for Inactive)
REMARK    1  A    between atoms: C_7  and  N_8
REMARK    2  A    between atoms: N_8  and  N_9
REMARK    3  A    between atoms: C_10  and  C_12
REMARK                            x       y       z     vdW  Elec       q    Type
REMARK                         _______ _______ _______ _____ _____    ______ ____
ROOT
ATOM      1  N   UNL     1      16.347  10.720  34.366  0.00  0.00    +0.000 NA
ATOM      2  C   UNL     1      15.195  11.553  34.308  0.00  0.00    +0.000 C 
ATOM      3  O   UNL     1      14.429  11.675  35.288  0.00  0.00    +0.000 OA
ENDROOT
BRANCH   2   4
ATOM      4  C   UNL     1      14.934  12.270  33.066  0.00  0.00    +0.000 A 
ATOM      5  C   UNL     1      15.418  11.785  31.868  0.00  0.00    +0.000 A 
ATOM      6  C   UNL     1      15.204  12.430  30.674  0.00  0.00    +0.000 A 
ATOM      7  C   UNL     1      14.473  13.619  30.643  0.00  0.00    +0.000 A 
ATOM      8  C   UNL     1      13.997  14.092  31.829  0.00  0.00    +0.000 A 
ATOM      9  C   UNL     1      14.211  13.442  33.041  0.00  0.00    +0.000 A 
ATOM     10 CL   UNL     1      13.559  14.099  34.538  0.00  0.00    +0.000 Cl
ENDBRANCH   2   4
BRANCH   1  11
ATOM     11  N   UNL     1      16.648  10.034  35.506  0.00  0.00    +0.000 NA
BRANCH  11  18
ATOM     12  C   UNL     1      16.199  10.905  38.008  0.00  0.00    +0.000 C 
ATOM     13  C   UNL     1      17.808  10.976  37.655  0.00  0.00    +0.000 C 
ATOM     14  C   UNL     1      18.157   9.615  38.552  0.00  0.00    +0.000 C 
ATOM     15  C   UNL     1      19.633   9.398  38.350  0.00  0.00    +0.000 C 
ATOM     16  C   UNL     1      20.114   9.895  36.980  0.00  0.00    +0.000 C 
ATOM     17  C   UNL     1      18.954   9.688  36.070  0.00  0.00    +0.000 C 
ATOM     18  C   UNL     1      17.750  10.168  36.286  0.00  0.00    +0.000 C 
ENDBRANCH  11  18
ENDBRANCH   1  11
TORSDOF 3
ENDMDL
MODEL 3
REMARK VINA RESULT:      -7.1      1.829      2.789
REMARK  Name = 
REMARK  3 active torsions:
REMARK  status: ('A' for Active; 'I' for Inactive)
REMARK    1  A    between atoms: C_7  and  N_8
REMARK    2  A    between atoms: N_8  and  N_9
REMARK    3  A    between atoms: C_10  and  C_12
REMARK                            x       y       z     vdW  Elec       q    Type
REMARK                         _______ _______ _______ _____ _____    ______ ____
ROOT
ATOM      1  N   UNL     1      16.309  11.138  35.049  0.00  0.00    +0.000 NA
ATOM      2  C   UNL     1      17.098  10.004  35.389  0.00  0.00    +0.000 C 
ATOM      3  O   UNL     1      16.998   8.929  34.761  0.00  0.00    +0.000 OA
ENDROOT
BRANCH   2   4
ATOM      4  C   UNL     1      18.035  10.134  36.497  0.00  0.00    +0.000 A 
ATOM      5  C   UNL     1      19.378   9.875  36.307  0.00  0.00    +0.000 A 
ATOM      6  C   UNL     1      20.297   9.977  37.324  0.00  0.00    +0.000 A 
ATOM      7  C   UNL     1      19.886  10.355  38.603  0.00  0.00    +0.000 A 
ATOM      8  C   UNL     1      18.560  10.610  38.784  0.00  0.00    +0.000 A 
ATOM      9  C   UNL     1      17.625  10.509  37.758  0.00  0.00    +0.000 A 
ATOM     10 CL   UNL     1      15.926  10.863  38.053  0.00  0.00    +0.000 Cl
ENDBRANCH   2   4
BRANCH   1  11
ATOM     11  N   UNL     1      15.423  11.079  34.014  0.00  0.00    +0.000 NA
BRANCH  11  18
ATOM     12  C   UNL     1      16.322  10.556  31.537  0.00  0.00    +0.000 C 
ATOM     13  C   UNL     1      15.877  12.138  31.663  0.00  0.00    +0.000 C 
ATOM     14  C   UNL     1      14.452  11.897  30.832  0.00  0.00    +0.000 C 
ATOM     15  C   UNL     1      13.773  13.241  30.850  0.00  0.00    +0.000 C 
ATOM     16  C   UNL     1      14.125  14.057  32.101  0.00  0.00    +0.000 C 
ATOM     17  C   UNL     1      14.331  13.043  33.172  0.00  0.00    +0.000 C 
ATOM     18  C   UNL     1      15.170  12.035  33.084  0.00  0.00    +0.000 C 
ENDBRANCH  11  18
ENDBRANCH   1  11
TORSDOF 3
ENDMDL
MODEL 4
REMARK VINA RESULT:      -7.0      1.699      6.630
REMARK  Name = 
REMARK  3 active torsions:
REMARK  status: ('A' for Active; 'I' for Inactive)
REMARK    1  A    between atoms: C_7  and  N_8
REMARK    2  A    between atoms: N_8  and  N_9
REMARK    3  A    between atoms: C_10  and  C_12
REMARK                            x       y       z     vdW  Elec       q    Type
REMARK                         _______ _______ _______ _____ _____    ______ ____
ROOT
ATOM      1  N   UNL     1      16.509  12.787  36.102  0.00  0.00    +0.000 NA
ATOM      2  C   UNL     1      15.181  12.440  35.727  0.00  0.00    +0.000 C 
ATOM      3  O   UNL     1      14.445  11.768  36.481  0.00  0.00    +0.000 OA
ENDROOT
BRANCH   2   4
ATOM      4  C   UNL     1      14.696  12.898  34.431  0.00  0.00    +0.000 A 
ATOM      5  C   UNL     1      13.864  13.996  34.347  0.00  0.00    +0.000 A 
ATOM      6  C   UNL     1      13.377  14.459  33.148  0.00  0.00    +0.000 A 
ATOM      7  C   UNL     1      13.721  13.815  31.958  0.00  0.00    +0.000 A 
ATOM      8  C   UNL     1      14.544  12.733  32.047  0.00  0.00    +0.000 A 
ATOM      9  C   UNL     1      15.041  12.261  33.259  0.00  0.00    +0.000 A 
ATOM     10 CL   UNL     1      16.110  10.863  33.307  0.00  0.00    +0.000 Cl
ENDBRANCH   2   4
BRANCH   1  11
ATOM     11  N   UNL     1      17.012  12.397  37.307  0.00  0.00    +0.000 NA
BRANCH  11  18
ATOM     12  C   UNL     1      19.494  13.019  38.129  0.00  0.00    +0.000 C 
ATOM     13  C   UNL     1      19.408  11.424  37.719  0.00  0.00    +0.000 C 
ATOM     14  C   UNL     1      19.370  10.924  39.309  0.00  0.00    +0.000 C 
ATOM     15  C   UNL     1      19.223   9.428  39.232  0.00  0.00    +0.000 C 
ATOM     16  C   UNL     1      18.456   8.981  37.979  0.00  0.00    +0.000 C 
ATOM     17  C   UNL     1      17.489  10.081  37.711  0.00  0.00    +0.000 C 
ATOM     18  C   UNL     1      17.827  11.342  37.563  0.00  0.00    +0.000 C 
ENDBRANCH  11  18
ENDBRANCH   1  11
TORSDOF 3
ENDMDL
MODEL 5
REMARK VINA RESULT:      -6.9     27.881     30.167
REMARK  Name = 
REMARK  3 active torsions:
REMARK  status: ('A' for Active; 'I' for Inactive)
REMARK    1  A    between atoms: C_7  and  N_8
REMARK    2  A    between atoms: N_8  and  N_9
REMARK    3  A    between atoms: C_10  and  C_12
REMARK                            x       y       z     vdW  Elec       q    Type
REMARK                         _______ _______ _______ _____ _____    ______ ____
ROOT
ATOM      1  N   UNL     1      30.885  22.872  11.408  0.00  0.00    +0.000 NA
ATOM      2  C   UNL     1      29.983  22.355  12.380  0.00  0.00    +0.000 C 
ATOM      3  O   UNL     1      30.380  21.625  13.314  0.00  0.00    +0.000 OA
ENDROOT
BRANCH   2   4
ATOM      4  C   UNL     1      28.575  22.707  12.259  0.00  0.00    +0.000 A 
ATOM      5  C   UNL     1      27.785  22.099  11.303  0.00  0.00    +0.000 A 
ATOM      6  C   UNL     1      26.454  22.404  11.147  0.00  0.00    +0.000 A 
ATOM      7  C   UNL     1      25.854  23.359  11.970  0.00  0.00    +0.000 A 
ATOM      8  C   UNL     1      26.639  23.955  12.912  0.00  0.00    +0.000 A 
ATOM      9  C   UNL     1      27.987  23.649  13.075  0.00  0.00    +0.000 A 
ATOM     10 CL   UNL     1      28.944  24.447  14.318  0.00  0.00    +0.000 Cl
ENDBRANCH   2   4
BRANCH   1  11
ATOM     11  N   UNL     1      32.217  22.586  11.478  0.00  0.00    +0.000 NA
BRANCH  11  18
ATOM     12  C   UNL     1      33.744  20.445  12.029  0.00  0.00    +0.000 C 
ATOM     13  C   UNL     1      34.256  21.174  10.642  0.00  0.00    +0.000 C 
ATOM     14  C   UNL     1      33.567  20.009   9.668  0.00  0.00    +0.000 C 
ATOM     15  C   UNL     1      33.842  20.478   8.264  0.00  0.00    +0.000 C 
ATOM     16  C   UNL     1      33.920  22.009   8.165  0.00  0.00    +0.000 C 
ATOM     17  C   UNL     1      32.976  22.507   9.203  0.00  0.00    +0.000 C 
ATOM     18  C   UNL     1      33.028  22.170  10.473  0.00  0.00    +0.000 C 
ENDBRANCH  11  18
ENDBRANCH   1  11
TORSDOF 3
ENDMDL
MODEL 6
REMARK VINA RESULT:      -6.6      2.155      6.604
REMARK  Name = 
REMARK  3 active torsions:
REMARK  status: ('A' for Active; 'I' for Inactive)
REMARK    1  A    between atoms: C_7  and  N_8
REMARK    2  A    between atoms: N_8  and  N_9
REMARK    3  A    between atoms: C_10  and  C_12
REMARK                            x       y       z     vdW  Elec       q    Type
REMARK                         _______ _______ _______ _____ _____    ______ ____
ROOT
ATOM      1  N   UNL     1      17.029  12.202  35.809  0.00  0.00    +0.000 NA
ATOM      2  C   UNL     1      15.749  11.862  35.290  0.00  0.00    +0.000 C 
ATOM      3  O   UNL     1      14.815  11.507  36.041  0.00  0.00    +0.000 OA
ENDROOT
BRANCH   2   4
ATOM      4  C   UNL     1      15.554  11.942  33.848  0.00  0.00    +0.000 A 
ATOM      5  C   UNL     1      14.616  12.806  33.319  0.00  0.00    +0.000 A 
ATOM      6  C   UNL     1      14.393  12.910  31.967  0.00  0.00    +0.000 A 
ATOM      7  C   UNL     1      15.128  12.127  31.075  0.00  0.00    +0.000 A 
ATOM      8  C   UNL     1      16.053  11.278  31.603  0.00  0.00    +0.000 A 
ATOM      9  C   UNL     1      16.283  11.168  32.971  0.00  0.00    +0.000 A 
ATOM     10 CL   UNL     1      17.501  10.059  33.591  0.00  0.00    +0.000 Cl
ENDBRANCH   2   4
BRANCH   1  11
ATOM     11  N   UNL     1      17.267  12.157  37.151  0.00  0.00    +0.000 NA
BRANCH  11  18
ATOM     12  C   UNL     1      18.046   9.750  38.057  0.00  0.00    +0.000 C 
ATOM     13  C   UNL     1      18.995  10.938  38.694  0.00  0.00    +0.000 C 
ATOM     14  C   UNL     1      20.268  10.592  37.676  0.00  0.00    +0.000 C 
ATOM     15  C   UNL     1      21.313  11.622  38.015  0.00  0.00    +0.000 C 
ATOM     16  C   UNL     1      20.697  12.940  38.504  0.00  0.00    +0.000 C 
ATOM     17  C   UNL     1      19.404  13.051  37.772  0.00  0.00    +0.000 C 
ATOM     18  C   UNL     1      18.469  12.128  37.779  0.00  0.00    +0.000 C 
ENDBRANCH  11  18
ENDBRANCH   1  11
TORSDOF 3
ENDMDL
MODEL 7
REMARK VINA RESULT:      -6.6      2.979      7.699
REMARK  Name = 
REMARK  3 active torsions:
REMARK  status: ('A' for Active; 'I' for Inactive)
REMARK    1  A    between atoms: C_7  and  N_8
REMARK    2  A    between atoms: N_8  and  N_9
REMARK    3  A    between atoms: C_10  and  C_12
REMARK                            x       y       z     vdW  Elec       q    Type
REMARK                         _______ _______ _______ _____ _____    ______ ____
ROOT
ATOM      1  N   UNL     1      17.014  10.083  38.338  0.00  0.00    +0.000 NA
ATOM      2  C   UNL     1      17.517  11.004  37.377  0.00  0.00    +0.000 C 
ATOM      3  O   UNL     1      18.540  11.685  37.602  0.00  0.00    +0.000 OA
ENDROOT
BRANCH   2   4
ATOM      4  C   UNL     1      16.803  11.130  36.114  0.00  0.00    +0.000 A 
ATOM      5  C   UNL     1      15.856  12.120  35.944  0.00  0.00    +0.000 A 
ATOM      6  C   UNL     1      15.153  12.272  34.774  0.00  0.00    +0.000 A 
ATOM      7  C   UNL     1      15.384  11.408  33.702  0.00  0.00    +0.000 A 
ATOM      8  C   UNL     1      16.320  10.433  33.875  0.00  0.00    +0.000 A 
ATOM      9  C   UNL     1      17.036  10.275  35.058  0.00  0.00    +0.000 A 
ATOM     10 CL   UNL     1      18.241   9.002  35.215  0.00  0.00    +0.000 Cl
ENDBRANCH   2   4
BRANCH   1  11
ATOM     11  N   UNL     1      17.648   9.914  39.534  0.00  0.00    +0.000 NA
BRANCH  11  18
ATOM     12  C   UNL     1      16.372   9.508  41.864  0.00  0.00    +0.000 C 
ATOM     13  C   UNL     1      17.597   8.420  41.683  0.00  0.00    +0.000 C 
ATOM     14  C   UNL     1      16.557   7.179  41.285  0.00  0.00    +0.000 C 
ATOM     15  C   UNL     1      17.459   6.010  40.992  0.00  0.00    +0.000 C 
ATOM     16  C   UNL     1      18.822   6.448  40.436  0.00  0.00    +0.000 C 
ATOM     17  C   UNL     1      18.537   7.690  39.666  0.00  0.00    +0.000 C 
ATOM     18  C   UNL     1      17.933   8.746  40.163  0.00  0.00    +0.000 C 
ENDBRANCH  11  18
ENDBRANCH   1  11
TORSDOF 3
ENDMDL
MODEL 8
REMARK VINA RESULT:      -6.3      2.208      2.338
REMARK  Name = 
REMARK  3 active torsions:
REMARK  status: ('A' for Active; 'I' for Inactive)
REMARK    1  A    between atoms: C_7  and  N_8
REMARK    2  A    between atoms: N_8  and  N_9
REMARK    3  A    between atoms: C_10  and  C_12
REMARK                            x       y       z     vdW  Elec       q    Type
REMARK                         _______ _______ _______ _____ _____    ______ ____
ROOT
ATOM      1  N   UNL     1      16.892  12.100  35.413  0.00  0.00    +0.000 NA
ATOM      2  C   UNL     1      16.962  11.953  36.827  0.00  0.00    +0.000 C 
ATOM      3  O   UNL     1      15.931  11.804  37.517  0.00  0.00    +0.000 OA
ENDROOT
BRANCH   2   4
ATOM      4  C   UNL     1      18.278  11.978  37.451  0.00  0.00    +0.000 A 
ATOM      5  C   UNL     1      18.867  13.180  37.788  0.00  0.00    +0.000 A 
ATOM      6  C   UNL     1      20.109  13.252  38.371  0.00  0.00    +0.000 A 
ATOM      7  C   UNL     1      20.822  12.084  38.645  0.00  0.00    +0.000 A 
ATOM      8  C   UNL     1      20.235  10.900  38.311  0.00  0.00    +0.000 A 
ATOM      9  C   UNL     1      18.977  10.821  37.721  0.00  0.00    +0.000 A 
ATOM     10 CL   UNL     1      18.268   9.260  37.325  0.00  0.00    +0.000 Cl
ENDBRANCH   2   4
BRANCH   1  11
ATOM     11  N   UNL     1      15.689  12.073  34.772  0.00  0.00    +0.000 NA
BRANCH  11  18
ATOM     12  C   UNL     1      13.936  13.713  33.565  0.00  0.00    +0.000 C 
ATOM     13  C   UNL     1      14.235  12.397  32.619  0.00  0.00    +0.000 C 
ATOM     14  C   UNL     1      15.229  13.250  31.588  0.00  0.00    +0.000 C 
ATOM     15  C   UNL     1      15.721  12.224  30.603  0.00  0.00    +0.000 C 
ATOM     16  C   UNL     1      15.816  10.821  31.219  0.00  0.00    +0.000 C 
ATOM     17  C   UNL     1      16.155  11.056  32.650  0.00  0.00    +0.000 C 
ATOM     18  C   UNL     1      15.455  11.818  33.460  0.00  0.00    +0.000 C 
ENDBRANCH  11  18
ENDBRANCH   1  11
TORSDOF 3
ENDMDL
MODEL 9
REMARK VINA RESULT:      -6.3      2.866      7.696
REMARK  Name = 
REMARK  3 active torsions:
REMARK  status: ('A' for Active; 'I' for Inactive)
REMARK    1  A    between atoms: C_7  and  N_8
REMARK    2  A    between atoms: N_8  and  N_9
REMARK    3  A    between atoms: C_10  and  C_12
REMARK                            x       y       z     vdW  Elec       q    Type
REMARK                         _______ _______ _______ _____ _____    ______ ____
ROOT
ATOM      1  N   UNL     1      17.701   9.590  37.196  0.00  0.00    +0.000 NA
ATOM      2  C   UNL     1      17.585  10.881  36.608  0.00  0.00    +0.000 C 
ATOM      3  O   UNL     1      18.004  11.903  37.192  0.00  0.00    +0.000 OA
ENDROOT
BRANCH   2   4
ATOM      4  C   UNL     1      16.962  10.978  35.294  0.00  0.00    +0.000 A 
ATOM      5  C   UNL     1      17.553  10.382  34.198  0.00  0.00    +0.000 A 
ATOM      6  C   UNL     1      17.006  10.453  32.939  0.00  0.00    +0.000 A 
ATOM      7  C   UNL     1      15.812  11.146  32.733  0.00  0.00    +0.000 A 
ATOM      8  C   UNL     1      15.233  11.732  33.819  0.00  0.00    +0.000 A 
ATOM      9  C   UNL     1      15.783  11.662  35.097  0.00  0.00    +0.000 A 
ATOM     10 CL   UNL     1      14.980  12.431  36.462  0.00  0.00    +0.000 Cl
ENDBRANCH   2   4
BRANCH   1  11
ATOM     11  N   UNL     1      18.285   9.437  38.419  0.00  0.00    +0.000 NA
BRANCH  11  18
ATOM     12  C   UNL     1      19.781   8.147  40.241  0.00  0.00    +0.000 C 
ATOM     13  C   UNL     1      18.196   8.149  40.696  0.00  0.00    +0.000 C 
ATOM     14  C   UNL     1      18.432   9.339  41.840  0.00  0.00    +0.000 C 
ATOM     15  C   UNL     1      17.060   9.598  42.403  0.00  0.00    +0.000 C 
ATOM     16  C   UNL     1      15.949   9.345  41.375  0.00  0.00    +0.000 C 
ATOM     17  C   UNL     1      16.557   9.697  40.062  0.00  0.00    +0.000 C 
ATOM     18  C   UNL     1      17.674   9.179  39.602  0.00  0.00    +0.000 C 
ENDBRANCH  11  18
ENDBRANCH   1  11
TORSDOF 3
ENDMDL
MODEL 10
REMARK VINA RESULT:      -6.2     21.500     22.799
REMARK  Name = 
REMARK  3 active torsions:
REMARK  status: ('A' for Active; 'I' for Inactive)
REMARK    1  A    between atoms: C_7  and  N_8
REMARK    2  A    between atoms: N_8  and  N_9
REMARK    3  A    between atoms: C_10  and  C_12
REMARK                            x       y       z     vdW  Elec       q    Type
REMARK                         _______ _______ _______ _____ _____    ______ ____
ROOT
ATOM      1  N   UNL     1      21.716  -7.159  25.068  0.00  0.00    +0.000 NA
ATOM      2  C   UNL     1      22.389  -6.559  23.968  0.00  0.00    +0.000 C 
ATOM      3  O   UNL     1      21.990  -5.486  23.466  0.00  0.00    +0.000 OA
ENDROOT
BRANCH   2   4
ATOM      4  C   UNL     1      23.568  -7.233  23.441  0.00  0.00    +0.000 A 
ATOM      5  C   UNL     1      24.832  -6.797  23.786  0.00  0.00    +0.000 A 
ATOM      6  C   UNL     1      25.972  -7.397  23.307  0.00  0.00    +0.000 A 
ATOM      7  C   UNL     1      25.878  -8.487  22.440  0.00  0.00    +0.000 A 
ATOM      8  C   UNL     1      24.628  -8.913  22.105  0.00  0.00    +0.000 A 
ATOM      9  C   UNL     1      23.470  -8.310  22.587  0.00  0.00    +0.000 A 
ATOM     10 CL   UNL     1      21.883  -8.915  22.124  0.00  0.00    +0.000 Cl
ENDBRANCH   2   4
BRANCH   1  11
ATOM     11  N   UNL     1      20.613  -6.568  25.612  0.00  0.00    +0.000 NA
BRANCH  11  18
ATOM     12  C   UNL     1      18.672  -4.926  26.483  0.00  0.00    +0.000 C 
ATOM     13  C   UNL     1      18.609  -6.366  27.284  0.00  0.00    +0.000 C 
ATOM     14  C   UNL     1      17.297  -6.901  26.404  0.00  0.00    +0.000 C 
ATOM     15  C   UNL     1      17.045  -8.295  26.912  0.00  0.00    +0.000 C 
ATOM     16  C   UNL     1      18.331  -8.984  27.389  0.00  0.00    +0.000 C 
ATOM     17  C   UNL     1      19.406  -8.432  26.519  0.00  0.00    +0.000 C 
ATOM     18  C   UNL     1      19.652  -7.149  26.372  0.00  0.00    +0.000 C 
ENDBRANCH  11  18
ENDBRANCH   1  11
TORSDOF 3
ENDMDL
