MODEL 1
REMARK VINA RESULT:      -8.2      0.000      0.000
REMARK  Name = 
REMARK  8 active torsions:
REMARK  status: ('A' for Active; 'I' for Inactive)
REMARK    1  A    between atoms: O_2  and  C_3
REMARK    2  A    between atoms: C_6  and  C_7
REMARK    3  A    between atoms: C_7  and  C_8
REMARK    4  A    between atoms: C_8  and  N_9
REMARK    5  A    between atoms: C_10  and  C_12
REMARK    6  A    between atoms: N_19  and  C_20
REMARK    7  A    between atoms: C_20  and  C_21
REMARK    8  A    between atoms: C_29  and  O_30
REMARK                            x       y       z     vdW  Elec       q    Type
REMARK                         _______ _______ _______ _____ _____    ______ ____
ROOT
ATOM      1  C   UNL     1      36.022   1.527  16.244  0.00  0.00    +0.000 A 
ATOM      2  C   UNL     1      35.212   1.075  17.263  0.00  0.00    +0.000 A 
ATOM      3  C   UNL     1      34.967  -0.284  17.068  0.00  0.00    +0.000 A 
ATOM      4  C   UNL     1      34.345  -1.425  17.524  0.00  0.00    +0.000 A 
ATOM      5  C   UNL     1      34.668  -2.409  16.635  0.00  0.00    +0.000 A 
ATOM      6  O   UNL     1      35.433  -1.898  15.708  0.00  0.00    +0.000 OA
ATOM      7  C   UNL     1      35.648  -0.613  15.917  0.00  0.00    +0.000 A 
ATOM      8  N   UNL     1      36.277   0.488  15.435  0.00  0.00    +0.000 N 
ENDROOT
BRANCH   1  10
ATOM      9  N   UNL     1      37.495   3.378  16.958  0.00  0.00    +0.000 NA
ATOM     10  C   UNL     1      36.512   2.885  16.075  0.00  0.00    +0.000 C 
ATOM     11  O   UNL     1      36.084   3.645  15.157  0.00  0.00    +0.000 OA
BRANCH   9  12
ATOM     12  C   UNL     1      37.975   4.749  16.771  0.00  0.00    +0.000 C 
BRANCH  12  13
ATOM     13  C   UNL     1      39.148   4.939  17.714  0.00  0.00    +0.000 C 
BRANCH  13  17
ATOM     14  C   UNL     1      38.624   8.380  20.196  0.00  0.00    +0.000 A 
ATOM     15  C   UNL     1      39.629   7.476  20.466  0.00  0.00    +0.000 A 
ATOM     16  C   UNL     1      39.774   6.363  19.638  0.00  0.00    +0.000 A 
ATOM     17  C   UNL     1      38.947   6.142  18.564  0.00  0.00    +0.000 A 
ATOM     18  C   UNL     1      37.938   7.043  18.287  0.00  0.00    +0.000 A 
ATOM     19  C   UNL     1      37.793   8.159  19.117  0.00  0.00    +0.000 A 
BRANCH  14  21
ATOM     20  C   UNL     1      39.355  10.578  20.910  0.00  0.00    +0.000 C 
ATOM     21  O   UNL     1      38.453   9.494  20.999  0.00  0.00    +0.000 OA
ENDBRANCH  14  21
BRANCH  19  22
ATOM     22  O   UNL     1      36.794   9.107  18.893  0.00  0.00    +0.000 OA
ATOM     23  C   UNL     1      36.530   9.507  17.577  0.00  0.00    +0.000 C 
ENDBRANCH  19  22
ENDBRANCH  13  17
ENDBRANCH  12  13
ENDBRANCH   9  12
ENDBRANCH   1  10
BRANCH   8  24
ATOM     24  C   UNL     1      37.085   0.572  14.249  0.00  0.00    +0.000 C 
BRANCH  24  25
ATOM     25  C   UNL     1      38.441   0.044  14.362  0.00  0.00    +0.000 A 
ATOM     26  C   UNL     1      38.569  -1.330  14.502  0.00  0.00    +0.000 A 
ATOM     27  C   UNL     1      39.763  -1.966  14.617  0.00  0.00    +0.000 A 
ATOM     28  C   UNL     1      40.920  -1.240  14.599  0.00  0.00    +0.000 A 
ATOM     29  C   UNL     1      40.849   0.130  14.461  0.00  0.00    +0.000 A 
ATOM     30  C   UNL     1      39.608   0.766  14.344  0.00  0.00    +0.000 A 
ATOM     31  C   UNL     1      39.530   2.225  14.199  0.00  0.00    +0.000 C 
ENDBRANCH  24  25
ENDBRANCH   8  24
TORSDOF 8
ENDMDL
MODEL 2
REMARK VINA RESULT:      -8.1     22.522     26.118
REMARK  Name = 
REMARK  8 active torsions:
REMARK  status: ('A' for Active; 'I' for Inactive)
REMARK    1  A    between atoms: O_2  and  C_3
REMARK    2  A    between atoms: C_6  and  C_7
REMARK    3  A    between atoms: C_7  and  C_8
REMARK    4  A    between atoms: C_8  and  N_9
REMARK    5  A    between atoms: C_10  and  C_12
REMARK    6  A    between atoms: N_19  and  C_20
REMARK    7  A    between atoms: C_20  and  C_21
REMARK    8  A    between atoms: C_29  and  O_30
REMARK                            x       y       z     vdW  Elec       q    Type
REMARK                         _______ _______ _______ _____ _____    ______ ____
ROOT
ATOM      1  C   UNL     1      13.328  -0.098  26.951  0.00  0.00    +0.000 A 
ATOM      2  C   UNL     1      12.851  -1.265  26.395  0.00  0.00    +0.000 A 
ATOM      3  C   UNL     1      11.568  -1.031  25.901  0.00  0.00    +0.000 A 
ATOM      4  C   UNL     1      10.462  -1.546  25.262  0.00  0.00    +0.000 A 
ATOM      5  C   UNL     1       9.568  -0.519  25.175  0.00  0.00    +0.000 A 
ATOM      6  O   UNL     1      10.097   0.543  25.721  0.00  0.00    +0.000 OA
ATOM      7  C   UNL     1      11.309   0.293  26.180  0.00  0.00    +0.000 A 
ATOM      8  N   UNL     1      12.378   0.838  26.812  0.00  0.00    +0.000 N 
ENDROOT
BRANCH   1  10
ATOM      9  N   UNL     1      15.778   0.173  26.764  0.00  0.00    +0.000 NA
ATOM     10  C   UNL     1      14.628   0.085  27.577  0.00  0.00    +0.000 C 
ATOM     11  O   UNL     1      14.763   0.170  28.833  0.00  0.00    +0.000 OA
BRANCH   9  12
ATOM     12  C   UNL     1      17.077   0.358  27.414  0.00  0.00    +0.000 C 
BRANCH  12  13
ATOM     13  C   UNL     1      17.913   1.225  26.492  0.00  0.00    +0.000 C 
BRANCH  13  17
ATOM     14  C   UNL     1      19.830  -1.219  23.557  0.00  0.00    +0.000 A 
ATOM     15  C   UNL     1      19.180  -1.799  24.625  0.00  0.00    +0.000 A 
ATOM     16  C   UNL     1      18.565  -0.974  25.567  0.00  0.00    +0.000 A 
ATOM     17  C   UNL     1      18.587   0.395  25.460  0.00  0.00    +0.000 A 
ATOM     18  C   UNL     1      19.236   0.982  24.392  0.00  0.00    +0.000 A 
ATOM     19  C   UNL     1      19.852   0.155  23.449  0.00  0.00    +0.000 A 
BRANCH  14  21
ATOM     20  C   UNL     1      19.960  -3.305  22.328  0.00  0.00    +0.000 C 
ATOM     21  O   UNL     1      20.451  -2.010  22.606  0.00  0.00    +0.000 OA
ENDBRANCH  14  21
BRANCH  19  22
ATOM     22  O   UNL     1      20.525   0.685  22.347  0.00  0.00    +0.000 OA
ATOM     23  C   UNL     1      19.793   0.971  21.187  0.00  0.00    +0.000 C 
ENDBRANCH  19  22
ENDBRANCH  13  17
ENDBRANCH  12  13
ENDBRANCH   9  12
ENDBRANCH   1  10
BRANCH   8  24
ATOM     24  C   UNL     1      12.508   2.190  27.282  0.00  0.00    +0.000 C 
BRANCH  24  25
ATOM     25  C   UNL     1      11.527   2.617  28.275  0.00  0.00    +0.000 A 
ATOM     26  C   UNL     1      11.546   1.962  29.497  0.00  0.00    +0.000 A 
ATOM     27  C   UNL     1      10.698   2.249  30.517  0.00  0.00    +0.000 A 
ATOM     28  C   UNL     1       9.762   3.231  30.362  0.00  0.00    +0.000 A 
ATOM     29  C   UNL     1       9.700   3.915  29.167  0.00  0.00    +0.000 A 
ATOM     30  C   UNL     1      10.584   3.604  28.127  0.00  0.00    +0.000 A 
ATOM     31  C   UNL     1      10.520   4.329  26.853  0.00  0.00    +0.000 C 
ENDBRANCH  24  25
ENDBRANCH   8  24
TORSDOF 8
ENDMDL
MODEL 3
REMARK VINA RESULT:      -8.0      2.059      2.642
REMARK  Name = 
REMARK  8 active torsions:
REMARK  status: ('A' for Active; 'I' for Inactive)
REMARK    1  A    between atoms: O_2  and  C_3
REMARK    2  A    between atoms: C_6  and  C_7
REMARK    3  A    between atoms: C_7  and  C_8
REMARK    4  A    between atoms: C_8  and  N_9
REMARK    5  A    between atoms: C_10  and  C_12
REMARK    6  A    between atoms: N_19  and  C_20
REMARK    7  A    between atoms: C_20  and  C_21
REMARK    8  A    between atoms: C_29  and  O_30
REMARK                            x       y       z     vdW  Elec       q    Type
REMARK                         _______ _______ _______ _____ _____    ______ ____
ROOT
ATOM      1  C   UNL     1      36.497   1.447  15.814  0.00  0.00    +0.000 A 
ATOM      2  C   UNL     1      35.634   1.206  16.861  0.00  0.00    +0.000 A 
ATOM      3  C   UNL     1      35.256  -0.136  16.826  0.00  0.00    +0.000 A 
ATOM      4  C   UNL     1      34.518  -1.145  17.402  0.00  0.00    +0.000 A 
ATOM      5  C   UNL     1      34.751  -2.258  16.647  0.00  0.00    +0.000 A 
ATOM      6  O   UNL     1      35.575  -1.943  15.684  0.00  0.00    +0.000 OA
ATOM      7  C   UNL     1      35.915  -0.669  15.740  0.00  0.00    +0.000 A 
ATOM      8  N   UNL     1      36.657   0.296  15.143  0.00  0.00    +0.000 N 
ENDROOT
BRANCH   1  10
ATOM      9  N   UNL     1      38.225   3.158  16.257  0.00  0.00    +0.000 NA
ATOM     10  C   UNL     1      37.123   2.720  15.493  0.00  0.00    +0.000 C 
ATOM     11  O   UNL     1      36.710   3.453  14.547  0.00  0.00    +0.000 OA
BRANCH   9  12
ATOM     12  C   UNL     1      38.841   4.443  15.918  0.00  0.00    +0.000 C 
BRANCH  12  13
ATOM     13  C   UNL     1      38.377   5.444  16.959  0.00  0.00    +0.000 C 
BRANCH  13  17
ATOM     14  C   UNL     1      41.594   6.648  19.502  0.00  0.00    +0.000 A 
ATOM     15  C   UNL     1      40.323   6.504  20.014  0.00  0.00    +0.000 A 
ATOM     16  C   UNL     1      39.294   6.110  19.157  0.00  0.00    +0.000 A 
ATOM     17  C   UNL     1      39.511   5.862  17.824  0.00  0.00    +0.000 A 
ATOM     18  C   UNL     1      40.782   6.005  17.305  0.00  0.00    +0.000 A 
ATOM     19  C   UNL     1      41.813   6.400  18.163  0.00  0.00    +0.000 A 
BRANCH  14  21
ATOM     20  C   UNL     1      43.226   6.111  21.212  0.00  0.00    +0.000 C 
ATOM     21  O   UNL     1      42.637   7.038  20.325  0.00  0.00    +0.000 OA
ENDBRANCH  14  21
BRANCH  19  22
ATOM     22  O   UNL     1      43.120   6.563  17.703  0.00  0.00    +0.000 OA
ATOM     23  C   UNL     1      43.321   7.139  16.442  0.00  0.00    +0.000 C 
ENDBRANCH  19  22
ENDBRANCH  13  17
ENDBRANCH  12  13
ENDBRANCH   9  12
ENDBRANCH   1  10
BRANCH   8  24
ATOM     24  C   UNL     1      37.483   0.155  13.976  0.00  0.00    +0.000 C 
BRANCH  24  25
ATOM     25  C   UNL     1      38.820  -0.384  14.202  0.00  0.00    +0.000 A 
ATOM     26  C   UNL     1      38.901  -1.687  14.669  0.00  0.00    +0.000 A 
ATOM     27  C   UNL     1      40.072  -2.324  14.924  0.00  0.00    +0.000 A 
ATOM     28  C   UNL     1      41.254  -1.670  14.722  0.00  0.00    +0.000 A 
ATOM     29  C   UNL     1      41.231  -0.372  14.259  0.00  0.00    +0.000 A 
ATOM     30  C   UNL     1      40.012   0.266  14.001  0.00  0.00    +0.000 A 
ATOM     31  C   UNL     1      39.985   1.648  13.509  0.00  0.00    +0.000 C 
ENDBRANCH  24  25
ENDBRANCH   8  24
TORSDOF 8
ENDMDL
MODEL 4
REMARK VINA RESULT:      -7.9      2.326      8.863
REMARK  Name = 
REMARK  8 active torsions:
REMARK  status: ('A' for Active; 'I' for Inactive)
REMARK    1  A    between atoms: O_2  and  C_3
REMARK    2  A    between atoms: C_6  and  C_7
REMARK    3  A    between atoms: C_7  and  C_8
REMARK    4  A    between atoms: C_8  and  N_9
REMARK    5  A    between atoms: C_10  and  C_12
REMARK    6  A    between atoms: N_19  and  C_20
REMARK    7  A    between atoms: C_20  and  C_21
REMARK    8  A    between atoms: C_29  and  O_30
REMARK                            x       y       z     vdW  Elec       q    Type
REMARK                         _______ _______ _______ _____ _____    ______ ____
ROOT
ATOM      1  C   UNL     1      38.705   4.584  16.197  0.00  0.00    +0.000 A 
ATOM      2  C   UNL     1      39.353   4.741  14.991  0.00  0.00    +0.000 A 
ATOM      3  C   UNL     1      40.487   5.526  15.193  0.00  0.00    +0.000 A 
ATOM      4  C   UNL     1      41.595   6.126  14.636  0.00  0.00    +0.000 A 
ATOM      5  C   UNL     1      42.229   6.767  15.660  0.00  0.00    +0.000 A 
ATOM      6  O   UNL     1      41.554   6.567  16.760  0.00  0.00    +0.000 OA
ATOM      7  C   UNL     1      40.487   5.823  16.538  0.00  0.00    +0.000 A 
ATOM      8  N   UNL     1      39.408   5.248  17.126  0.00  0.00    +0.000 N 
ENDROOT
BRANCH   1  10
ATOM      9  N   UNL     1      36.484   3.824  15.423  0.00  0.00    +0.000 NA
ATOM     10  C   UNL     1      37.480   3.834  16.421  0.00  0.00    +0.000 C 
ATOM     11  O   UNL     1      37.276   3.184  17.490  0.00  0.00    +0.000 OA
BRANCH   9  12
ATOM     12  C   UNL     1      35.258   3.062  15.669  0.00  0.00    +0.000 C 
BRANCH  12  13
ATOM     13  C   UNL     1      35.384   1.761  14.900  0.00  0.00    +0.000 C 
BRANCH  13  17
ATOM     14  C   UNL     1      36.521  -1.415  17.525  0.00  0.00    +0.000 A 
ATOM     15  C   UNL     1      35.249  -0.887  17.585  0.00  0.00    +0.000 A 
ATOM     16  C   UNL     1      34.909   0.149  16.715  0.00  0.00    +0.000 A 
ATOM     17  C   UNL     1      35.802   0.657  15.803  0.00  0.00    +0.000 A 
ATOM     18  C   UNL     1      37.077   0.133  15.738  0.00  0.00    +0.000 A 
ATOM     19  C   UNL     1      37.418  -0.905  16.610  0.00  0.00    +0.000 A 
BRANCH  14  21
ATOM     20  C   UNL     1      37.466  -2.152  19.632  0.00  0.00    +0.000 C 
ATOM     21  O   UNL     1      36.890  -2.442  18.375  0.00  0.00    +0.000 OA
ENDBRANCH  14  21
BRANCH  19  22
ATOM     22  O   UNL     1      38.690  -1.479  16.596  0.00  0.00    +0.000 OA
ATOM     23  C   UNL     1      39.005  -2.391  15.581  0.00  0.00    +0.000 C 
ENDBRANCH  19  22
ENDBRANCH  13  17
ENDBRANCH  12  13
ENDBRANCH   9  12
ENDBRANCH   1  10
BRANCH   8  24
ATOM     24  C   UNL     1      39.036   5.323  18.513  0.00  0.00    +0.000 C 
BRANCH  24  25
ATOM     25  C   UNL     1      39.021   6.661  19.097  0.00  0.00    +0.000 A 
ATOM     26  C   UNL     1      37.958   7.482  18.757  0.00  0.00    +0.000 A 
ATOM     27  C   UNL     1      37.807   8.749  19.221  0.00  0.00    +0.000 A 
ATOM     28  C   UNL     1      38.738   9.272  20.072  0.00  0.00    +0.000 A 
ATOM     29  C   UNL     1      39.816   8.497  20.444  0.00  0.00    +0.000 A 
ATOM     30  C   UNL     1      39.953   7.193  19.953  0.00  0.00    +0.000 A 
ATOM     31  C   UNL     1      41.100   6.366  20.347  0.00  0.00    +0.000 C 
ENDBRANCH  24  25
ENDBRANCH   8  24
TORSDOF 8
ENDMDL
MODEL 5
REMARK VINA RESULT:      -7.8      2.637      8.521
REMARK  Name = 
REMARK  8 active torsions:
REMARK  status: ('A' for Active; 'I' for Inactive)
REMARK    1  A    between atoms: O_2  and  C_3
REMARK    2  A    between atoms: C_6  and  C_7
REMARK    3  A    between atoms: C_7  and  C_8
REMARK    4  A    between atoms: C_8  and  N_9
REMARK    5  A    between atoms: C_10  and  C_12
REMARK    6  A    between atoms: N_19  and  C_20
REMARK    7  A    between atoms: C_20  and  C_21
REMARK    8  A    between atoms: C_29  and  O_30
REMARK                            x       y       z     vdW  Elec       q    Type
REMARK                         _______ _______ _______ _____ _____    ______ ____
ROOT
ATOM      1  C   UNL     1      38.071   4.431  17.026  0.00  0.00    +0.000 A 
ATOM      2  C   UNL     1      38.464   4.487  18.346  0.00  0.00    +0.000 A 
ATOM      3  C   UNL     1      39.051   5.729  18.583  0.00  0.00    +0.000 A 
ATOM      4  C   UNL     1      39.657   6.569  19.492  0.00  0.00    +0.000 A 
ATOM      5  C   UNL     1      39.947   7.714  18.809  0.00  0.00    +0.000 A 
ATOM      6  O   UNL     1      39.544   7.577  17.574  0.00  0.00    +0.000 OA
ATOM      7  C   UNL     1      38.993   6.393  17.378  0.00  0.00    +0.000 A 
ATOM      8  N   UNL     1      38.401   5.598  16.453  0.00  0.00    +0.000 N 
ENDROOT
BRANCH   1  10
ATOM      9  N   UNL     1      36.053   3.061  16.628  0.00  0.00    +0.000 NA
ATOM     10  C   UNL     1      37.418   3.308  16.373  0.00  0.00    +0.000 C 
ATOM     11  O   UNL     1      38.036   2.540  15.578  0.00  0.00    +0.000 OA
BRANCH   9  12
ATOM     12  C   UNL     1      35.413   1.926  15.960  0.00  0.00    +0.000 C 
BRANCH  12  13
ATOM     13  C   UNL     1      34.900   1.003  17.049  0.00  0.00    +0.000 C 
BRANCH  13  17
ATOM     14  C   UNL     1      37.858  -1.868  18.178  0.00  0.00    +0.000 A 
ATOM     15  C   UNL     1      37.084  -1.255  19.139  0.00  0.00    +0.000 A 
ATOM     16  C   UNL     1      36.127  -0.322  18.739  0.00  0.00    +0.000 A 
ATOM     17  C   UNL     1      35.935   0.003  17.418  0.00  0.00    +0.000 A 
ATOM     18  C   UNL     1      36.707  -0.607  16.450  0.00  0.00    +0.000 A 
ATOM     19  C   UNL     1      37.666  -1.543  16.851  0.00  0.00    +0.000 A 
BRANCH  14  21
ATOM     20  C   UNL     1      38.655  -3.559  19.721  0.00  0.00    +0.000 C 
ATOM     21  O   UNL     1      38.816  -2.797  18.542  0.00  0.00    +0.000 OA
ENDBRANCH  14  21
BRANCH  19  22
ATOM     22  O   UNL     1      38.479  -2.194  15.923  0.00  0.00    +0.000 OA
ATOM     23  C   UNL     1      39.554  -1.493  15.362  0.00  0.00    +0.000 C 
ENDBRANCH  19  22
ENDBRANCH  13  17
ENDBRANCH  12  13
ENDBRANCH   9  12
ENDBRANCH   1  10
BRANCH   8  24
ATOM     24  C   UNL     1      38.158   5.910  15.072  0.00  0.00    +0.000 C 
BRANCH  24  25
ATOM     25  C   UNL     1      36.904   6.601  14.785  0.00  0.00    +0.000 A 
ATOM     26  C   UNL     1      36.763   7.882  15.297  0.00  0.00    +0.000 A 
ATOM     27  C   UNL     1      35.657   8.648  15.114  0.00  0.00    +0.000 A 
ATOM     28  C   UNL     1      34.607   8.157  14.391  0.00  0.00    +0.000 A 
ATOM     29  C   UNL     1      34.696   6.888  13.859  0.00  0.00    +0.000 A 
ATOM     30  C   UNL     1      35.845   6.115  14.059  0.00  0.00    +0.000 A 
ATOM     31  C   UNL     1      35.941   4.763  13.495  0.00  0.00    +0.000 C 
ENDBRANCH  24  25
ENDBRANCH   8  24
TORSDOF 8
ENDMDL
MODEL 6
REMARK VINA RESULT:      -7.8      2.402      3.289
REMARK  Name = 
REMARK  8 active torsions:
REMARK  status: ('A' for Active; 'I' for Inactive)
REMARK    1  A    between atoms: O_2  and  C_3
REMARK    2  A    between atoms: C_6  and  C_7
REMARK    3  A    between atoms: C_7  and  C_8
REMARK    4  A    between atoms: C_8  and  N_9
REMARK    5  A    between atoms: C_10  and  C_12
REMARK    6  A    between atoms: N_19  and  C_20
REMARK    7  A    between atoms: C_20  and  C_21
REMARK    8  A    between atoms: C_29  and  O_30
REMARK                            x       y       z     vdW  Elec       q    Type
REMARK                         _______ _______ _______ _____ _____    ______ ____
ROOT
ATOM      1  C   UNL     1      36.547   2.047  16.309  0.00  0.00    +0.000 A 
ATOM      2  C   UNL     1      35.459   1.599  17.027  0.00  0.00    +0.000 A 
ATOM      3  C   UNL     1      35.294   0.236  16.781  0.00  0.00    +0.000 A 
ATOM      4  C   UNL     1      34.566  -0.905  17.033  0.00  0.00    +0.000 A 
ATOM      5  C   UNL     1      35.158  -1.896  16.304  0.00  0.00    +0.000 A 
ATOM      6  O   UNL     1      36.174  -1.389  15.658  0.00  0.00    +0.000 OA
ATOM      7  C   UNL     1      36.306  -0.099  15.908  0.00  0.00    +0.000 A 
ATOM      8  N   UNL     1      37.049   1.001  15.635  0.00  0.00    +0.000 N 
ENDROOT
BRANCH   1  10
ATOM      9  N   UNL     1      37.974   3.817  17.278  0.00  0.00    +0.000 NA
ATOM     10  C   UNL     1      37.058   3.408  16.286  0.00  0.00    +0.000 C 
ATOM     11  O   UNL     1      36.708   4.243  15.400  0.00  0.00    +0.000 OA
BRANCH   9  12
ATOM     12  C   UNL     1      38.477   5.191  17.237  0.00  0.00    +0.000 C 
BRANCH  12  13
ATOM     13  C   UNL     1      38.896   5.551  18.649  0.00  0.00    +0.000 C 
BRANCH  13  17
ATOM     14  C   UNL     1      42.949   6.908  18.647  0.00  0.00    +0.000 A 
ATOM     15  C   UNL     1      42.320   6.600  17.460  0.00  0.00    +0.000 A 
ATOM     16  C   UNL     1      40.997   6.159  17.494  0.00  0.00    +0.000 A 
ATOM     17  C   UNL     1      40.305   6.024  18.673  0.00  0.00    +0.000 A 
ATOM     18  C   UNL     1      40.929   6.331  19.865  0.00  0.00    +0.000 A 
ATOM     19  C   UNL     1      42.255   6.773  19.831  0.00  0.00    +0.000 A 
BRANCH  14  21
ATOM     20  C   UNL     1      44.576   8.646  18.187  0.00  0.00    +0.000 C 
ATOM     21  O   UNL     1      44.262   7.347  18.647  0.00  0.00    +0.000 OA
ENDBRANCH  14  21
BRANCH  19  22
ATOM     22  O   UNL     1      42.944   7.099  21.000  0.00  0.00    +0.000 OA
ATOM     23  C   UNL     1      43.470   6.062  21.782  0.00  0.00    +0.000 C 
ENDBRANCH  19  22
ENDBRANCH  13  17
ENDBRANCH  12  13
ENDBRANCH   9  12
ENDBRANCH   1  10
BRANCH   8  24
ATOM     24  C   UNL     1      38.189   1.080  14.763  0.00  0.00    +0.000 C 
BRANCH  24  25
ATOM     25  C   UNL     1      38.719  -0.195  14.289  0.00  0.00    +0.000 A 
ATOM     26  C   UNL     1      39.579  -0.871  15.141  0.00  0.00    +0.000 A 
ATOM     27  C   UNL     1      40.149  -2.066  14.840  0.00  0.00    +0.000 A 
ATOM     28  C   UNL     1      39.881  -2.659  13.639  0.00  0.00    +0.000 A 
ATOM     29  C   UNL     1      39.032  -2.029  12.755  0.00  0.00    +0.000 A 
ATOM     30  C   UNL     1      38.454  -0.797  13.085  0.00  0.00    +0.000 A 
ATOM     31  C   UNL     1      37.551  -0.123  12.145  0.00  0.00    +0.000 C 
ENDBRANCH  24  25
ENDBRANCH   8  24
TORSDOF 8
ENDMDL
MODEL 7
REMARK VINA RESULT:      -7.7      1.851      4.171
REMARK  Name = 
REMARK  8 active torsions:
REMARK  status: ('A' for Active; 'I' for Inactive)
REMARK    1  A    between atoms: O_2  and  C_3
REMARK    2  A    between atoms: C_6  and  C_7
REMARK    3  A    between atoms: C_7  and  C_8
REMARK    4  A    between atoms: C_8  and  N_9
REMARK    5  A    between atoms: C_10  and  C_12
REMARK    6  A    between atoms: N_19  and  C_20
REMARK    7  A    between atoms: C_20  and  C_21
REMARK    8  A    between atoms: C_29  and  O_30
REMARK                            x       y       z     vdW  Elec       q    Type
REMARK                         _______ _______ _______ _____ _____    ______ ____
ROOT
ATOM      1  C   UNL     1      38.953   0.848  14.684  0.00  0.00    +0.000 A 
ATOM      2  C   UNL     1      40.288   0.688  14.381  0.00  0.00    +0.000 A 
ATOM      3  C   UNL     1      40.590  -0.673  14.405  0.00  0.00    +0.000 A 
ATOM      4  C   UNL     1      41.548  -1.649  14.247  0.00  0.00    +0.000 A 
ATOM      5  C   UNL     1      40.917  -2.836  14.480  0.00  0.00    +0.000 A 
ATOM      6  O   UNL     1      39.663  -2.595  14.757  0.00  0.00    +0.000 OA
ATOM      7  C   UNL     1      39.407  -1.300  14.728  0.00  0.00    +0.000 A 
ATOM      8  N   UNL     1      38.433  -0.370  14.892  0.00  0.00    +0.000 N 
ENDROOT
BRANCH   1  10
ATOM      9  N   UNL     1      38.326   2.881  15.942  0.00  0.00    +0.000 NA
ATOM     10  C   UNL     1      38.238   2.111  14.764  0.00  0.00    +0.000 C 
ATOM     11  O   UNL     1      37.534   2.547  13.805  0.00  0.00    +0.000 OA
BRANCH   9  12
ATOM     12  C   UNL     1      37.597   4.149  16.002  0.00  0.00    +0.000 C 
BRANCH  12  13
ATOM     13  C   UNL     1      38.605   5.251  15.736  0.00  0.00    +0.000 C 
BRANCH  13  17
ATOM     14  C   UNL     1      39.029   7.778  19.157  0.00  0.00    +0.000 A 
ATOM     15  C   UNL     1      38.252   8.178  18.092  0.00  0.00    +0.000 A 
ATOM     16  C   UNL     1      38.135   7.331  16.990  0.00  0.00    +0.000 A 
ATOM     17  C   UNL     1      38.767   6.113  16.936  0.00  0.00    +0.000 A 
ATOM     18  C   UNL     1      39.547   5.706  18.000  0.00  0.00    +0.000 A 
ATOM     19  C   UNL     1      39.665   6.555  19.105  0.00  0.00    +0.000 A 
BRANCH  14  21
ATOM     20  C   UNL     1      38.068   9.349  20.734  0.00  0.00    +0.000 C 
ATOM     21  O   UNL     1      39.167   8.595  20.266  0.00  0.00    +0.000 OA
ENDBRANCH  14  21
BRANCH  19  22
ATOM     22  O   UNL     1      40.438   6.204  20.212  0.00  0.00    +0.000 OA
ATOM     23  C   UNL     1      41.825   6.390  20.150  0.00  0.00    +0.000 C 
ENDBRANCH  19  22
ENDBRANCH  13  17
ENDBRANCH  12  13
ENDBRANCH   9  12
ENDBRANCH   1  10
BRANCH   8  24
ATOM     24  C   UNL     1      37.060  -0.608  15.242  0.00  0.00    +0.000 C 
BRANCH  24  25
ATOM     25  C   UNL     1      36.755  -0.599  16.670  0.00  0.00    +0.000 A 
ATOM     26  C   UNL     1      37.433  -1.513  17.462  0.00  0.00    +0.000 A 
ATOM     27  C   UNL     1      37.257  -1.622  18.803  0.00  0.00    +0.000 A 
ATOM     28  C   UNL     1      36.369  -0.800  19.437  0.00  0.00    +0.000 A 
ATOM     29  C   UNL     1      35.669   0.128  18.697  0.00  0.00    +0.000 A 
ATOM     30  C   UNL     1      35.866   0.224  17.314  0.00  0.00    +0.000 A 
ATOM     31  C   UNL     1      35.121   1.211  16.523  0.00  0.00    +0.000 C 
ENDBRANCH  24  25
ENDBRANCH   8  24
TORSDOF 8
ENDMDL
MODEL 8
REMARK VINA RESULT:      -7.7      2.494      4.442
REMARK  Name = 
REMARK  8 active torsions:
REMARK  status: ('A' for Active; 'I' for Inactive)
REMARK    1  A    between atoms: O_2  and  C_3
REMARK    2  A    between atoms: C_6  and  C_7
REMARK    3  A    between atoms: C_7  and  C_8
REMARK    4  A    between atoms: C_8  and  N_9
REMARK    5  A    between atoms: C_10  and  C_12
REMARK    6  A    between atoms: N_19  and  C_20
REMARK    7  A    between atoms: C_20  and  C_21
REMARK    8  A    between atoms: C_29  and  O_30
REMARK                            x       y       z     vdW  Elec       q    Type
REMARK                         _______ _______ _______ _____ _____    ______ ____
ROOT
ATOM      1  C   UNL     1      39.169   0.680  14.504  0.00  0.00    +0.000 A 
ATOM      2  C   UNL     1      40.503   0.414  14.282  0.00  0.00    +0.000 A 
ATOM      3  C   UNL     1      40.708  -0.960  14.394  0.00  0.00    +0.000 A 
ATOM      4  C   UNL     1      41.603  -2.006  14.340  0.00  0.00    +0.000 A 
ATOM      5  C   UNL     1      40.880  -3.133  14.600  0.00  0.00    +0.000 A 
ATOM      6  O   UNL     1      39.634  -2.793  14.796  0.00  0.00    +0.000 OA
ATOM      7  C   UNL     1      39.469  -1.488  14.685  0.00  0.00    +0.000 A 
ATOM      8  N   UNL     1      38.556  -0.487  14.747  0.00  0.00    +0.000 N 
ENDROOT
BRANCH   1  10
ATOM      9  N   UNL     1      38.694   2.851  15.586  0.00  0.00    +0.000 NA
ATOM     10  C   UNL     1      38.540   1.991  14.478  0.00  0.00    +0.000 C 
ATOM     11  O   UNL     1      37.855   2.388  13.490  0.00  0.00    +0.000 OA
BRANCH   9  12
ATOM     12  C   UNL     1      38.052   4.166  15.540  0.00  0.00    +0.000 C 
BRANCH  12  13
ATOM     13  C   UNL     1      37.809   4.591  16.976  0.00  0.00    +0.000 C 
BRANCH  13  17
ATOM     14  C   UNL     1      41.144   6.747  18.556  0.00  0.00    +0.000 A 
ATOM     15  C   UNL     1      40.265   6.110  19.405  0.00  0.00    +0.000 A 
ATOM     16  C   UNL     1      39.186   5.415  18.858  0.00  0.00    +0.000 A 
ATOM     17  C   UNL     1      38.975   5.346  17.503  0.00  0.00    +0.000 A 
ATOM     18  C   UNL     1      39.853   5.982  16.646  0.00  0.00    +0.000 A 
ATOM     19  C   UNL     1      40.934   6.678  17.195  0.00  0.00    +0.000 A 
BRANCH  14  21
ATOM     20  C   UNL     1      42.939   6.938  20.174  0.00  0.00    +0.000 C 
ATOM     21  O   UNL     1      42.224   7.445  19.066  0.00  0.00    +0.000 OA
ENDBRANCH  14  21
BRANCH  19  22
ATOM     22  O   UNL     1      41.857   7.342  16.385  0.00  0.00    +0.000 OA
ATOM     23  C   UNL     1      42.772   6.581  15.646  0.00  0.00    +0.000 C 
ENDBRANCH  19  22
ENDBRANCH  13  17
ENDBRANCH  12  13
ENDBRANCH   9  12
ENDBRANCH   1  10
BRANCH   8  24
ATOM     24  C   UNL     1      37.154  -0.613  15.035  0.00  0.00    +0.000 C 
BRANCH  24  25
ATOM     25  C   UNL     1      36.781  -0.526  16.444  0.00  0.00    +0.000 A 
ATOM     26  C   UNL     1      37.337  -1.466  17.298  0.00  0.00    +0.000 A 
ATOM     27  C   UNL     1      37.087  -1.510  18.632  0.00  0.00    +0.000 A 
ATOM     28  C   UNL     1      36.244  -0.593  19.192  0.00  0.00    +0.000 A 
ATOM     29  C   UNL     1      35.664   0.364  18.387  0.00  0.00    +0.000 A 
ATOM     30  C   UNL     1      35.936   0.393  17.014  0.00  0.00    +0.000 A 
ATOM     31  C   UNL     1      35.320   1.410  16.154  0.00  0.00    +0.000 C 
ENDBRANCH  24  25
ENDBRANCH   8  24
TORSDOF 8
ENDMDL
MODEL 9
REMARK VINA RESULT:      -7.6      4.630      7.690
REMARK  Name = 
REMARK  8 active torsions:
REMARK  status: ('A' for Active; 'I' for Inactive)
REMARK    1  A    between atoms: O_2  and  C_3
REMARK    2  A    between atoms: C_6  and  C_7
REMARK    3  A    between atoms: C_7  and  C_8
REMARK    4  A    between atoms: C_8  and  N_9
REMARK    5  A    between atoms: C_10  and  C_12
REMARK    6  A    between atoms: N_19  and  C_20
REMARK    7  A    between atoms: C_20  and  C_21
REMARK    8  A    between atoms: C_29  and  O_30
REMARK                            x       y       z     vdW  Elec       q    Type
REMARK                         _______ _______ _______ _____ _____    ______ ____
ROOT
ATOM      1  C   UNL     1      37.582   1.823  13.704  0.00  0.00    +0.000 A 
ATOM      2  C   UNL     1      36.874   1.924  12.526  0.00  0.00    +0.000 A 
ATOM      3  C   UNL     1      37.727   1.618  11.466  0.00  0.00    +0.000 A 
ATOM      4  C   UNL     1      37.876   1.477  10.105  0.00  0.00    +0.000 A 
ATOM      5  C   UNL     1      39.177   1.118   9.905  0.00  0.00    +0.000 A 
ATOM      6  O   UNL     1      39.773   1.046  11.066  0.00  0.00    +0.000 OA
ATOM      7  C   UNL     1      38.943   1.339  12.049  0.00  0.00    +0.000 A 
ATOM      8  N   UNL     1      38.838   1.468  13.395  0.00  0.00    +0.000 N 
ENDROOT
BRANCH   1  10
ATOM      9  N   UNL     1      36.478   0.993  15.753  0.00  0.00    +0.000 NA
ATOM     10  C   UNL     1      37.062   2.061  15.041  0.00  0.00    +0.000 C 
ATOM     11  O   UNL     1      37.117   3.200  15.591  0.00  0.00    +0.000 OA
BRANCH   9  12
ATOM     12  C   UNL     1      35.960   1.253  17.098  0.00  0.00    +0.000 C 
BRANCH  12  13
ATOM     13  C   UNL     1      35.214   0.006  17.534  0.00  0.00    +0.000 C 
BRANCH  13  17
ATOM     14  C   UNL     1      37.964  -3.186  18.256  0.00  0.00    +0.000 A 
ATOM     15  C   UNL     1      38.011  -2.042  19.023  0.00  0.00    +0.000 A 
ATOM     16  C   UNL     1      37.101  -1.018  18.762  0.00  0.00    +0.000 A 
ATOM     17  C   UNL     1      36.160  -1.116  17.766  0.00  0.00    +0.000 A 
ATOM     18  C   UNL     1      36.107  -2.259  16.994  0.00  0.00    +0.000 A 
ATOM     19  C   UNL     1      37.020  -3.285  17.255  0.00  0.00    +0.000 A 
BRANCH  14  21
ATOM     20  C   UNL     1      39.041  -4.713  19.799  0.00  0.00    +0.000 C 
ATOM     21  O   UNL     1      38.853  -4.219  18.488  0.00  0.00    +0.000 OA
ENDBRANCH  14  21
BRANCH  19  22
ATOM     22  O   UNL     1      37.019  -4.466  16.511  0.00  0.00    +0.000 OA
ATOM     23  C   UNL     1      36.656  -4.408  15.159  0.00  0.00    +0.000 C 
ENDBRANCH  19  22
ENDBRANCH  13  17
ENDBRANCH  12  13
ENDBRANCH   9  12
ENDBRANCH   1  10
BRANCH   8  24
ATOM     24  C   UNL     1      39.880   1.274  14.366  0.00  0.00    +0.000 C 
BRANCH  24  25
ATOM     25  C   UNL     1      40.367  -0.094  14.515  0.00  0.00    +0.000 A 
ATOM     26  C   UNL     1      39.521  -0.996  15.141  0.00  0.00    +0.000 A 
ATOM     27  C   UNL     1      39.834  -2.301  15.349  0.00  0.00    +0.000 A 
ATOM     28  C   UNL     1      41.043  -2.780  14.932  0.00  0.00    +0.000 A 
ATOM     29  C   UNL     1      41.922  -1.925  14.303  0.00  0.00    +0.000 A 
ATOM     30  C   UNL     1      41.580  -0.583  14.098  0.00  0.00    +0.000 A 
ATOM     31  C   UNL     1      42.515   0.330  13.430  0.00  0.00    +0.000 C 
ENDBRANCH  24  25
ENDBRANCH   8  24
TORSDOF 8
ENDMDL
MODEL 10
REMARK VINA RESULT:      -7.6      1.269      1.781
REMARK  Name = 
REMARK  8 active torsions:
REMARK  status: ('A' for Active; 'I' for Inactive)
REMARK    1  A    between atoms: O_2  and  C_3
REMARK    2  A    between atoms: C_6  and  C_7
REMARK    3  A    between atoms: C_7  and  C_8
REMARK    4  A    between atoms: C_8  and  N_9
REMARK    5  A    between atoms: C_10  and  C_12
REMARK    6  A    between atoms: N_19  and  C_20
REMARK    7  A    between atoms: C_20  and  C_21
REMARK    8  A    between atoms: C_29  and  O_30
REMARK                            x       y       z     vdW  Elec       q    Type
REMARK                         _______ _______ _______ _____ _____    ______ ____
ROOT
ATOM      1  C   UNL     1      36.105   1.473  16.469  0.00  0.00    +0.000 A 
ATOM      2  C   UNL     1      34.943   1.074  17.093  0.00  0.00    +0.000 A 
ATOM      3  C   UNL     1      34.816  -0.307  16.956  0.00  0.00    +0.000 A 
ATOM      4  C   UNL     1      34.069  -1.433  17.224  0.00  0.00    +0.000 A 
ATOM      5  C   UNL     1      34.747  -2.476  16.662  0.00  0.00    +0.000 A 
ATOM      6  O   UNL     1      35.830  -2.013  16.096  0.00  0.00    +0.000 OA
ATOM      7  C   UNL     1      35.924  -0.704  16.241  0.00  0.00    +0.000 A 
ATOM      8  N   UNL     1      36.689   0.379  15.956  0.00  0.00    +0.000 N 
ENDROOT
BRANCH   1  10
ATOM      9  N   UNL     1      37.564   3.278  17.320  0.00  0.00    +0.000 NA
ATOM     10  C   UNL     1      36.609   2.834  16.382  0.00  0.00    +0.000 C 
ATOM     11  O   UNL     1      36.217   3.640  15.486  0.00  0.00    +0.000 OA
BRANCH   9  12
ATOM     12  C   UNL     1      38.058   4.652  17.214  0.00  0.00    +0.000 C 
BRANCH  12  13
ATOM     13  C   UNL     1      38.974   4.885  18.400  0.00  0.00    +0.000 C 
BRANCH  13  17
ATOM     14  C   UNL     1      38.974   8.986  19.604  0.00  0.00    +0.000 A 
ATOM     15  C   UNL     1      39.686   8.052  20.325  0.00  0.00    +0.000 A 
ATOM     16  C   UNL     1      39.666   6.721  19.906  0.00  0.00    +0.000 A 
ATOM     17  C   UNL     1      38.959   6.316  18.801  0.00  0.00    +0.000 A 
ATOM     18  C   UNL     1      38.243   7.247  18.075  0.00  0.00    +0.000 A 
ATOM     19  C   UNL     1      38.263   8.581  18.494  0.00  0.00    +0.000 A 
BRANCH  14  21
ATOM     20  C   UNL     1      40.164  11.071  19.941  0.00  0.00    +0.000 C 
ATOM     21  O   UNL     1      38.972  10.314  19.994  0.00  0.00    +0.000 OA
ENDBRANCH  14  21
BRANCH  19  22
ATOM     22  O   UNL     1      37.561   9.570  17.805  0.00  0.00    +0.000 OA
ATOM     23  C   UNL     1      36.186   9.397  17.597  0.00  0.00    +0.000 C 
ENDBRANCH  19  22
ENDBRANCH  13  17
ENDBRANCH  12  13
ENDBRANCH   9  12
ENDBRANCH   1  10
BRANCH   8  24
ATOM     24  C   UNL     1      37.923   0.398  15.220  0.00  0.00    +0.000 C 
BRANCH  24  25
ATOM     25  C   UNL     1      37.843   0.908  13.854  0.00  0.00    +0.000 A 
ATOM     26  C   UNL     1      36.954   0.274  12.999  0.00  0.00    +0.000 A 
ATOM     27  C   UNL     1      36.769   0.635  11.704  0.00  0.00    +0.000 A 
ATOM     28  C   UNL     1      37.484   1.677  11.185  0.00  0.00    +0.000 A 
ATOM     29  C   UNL     1      38.381   2.342  11.992  0.00  0.00    +0.000 A 
ATOM     30  C   UNL     1      38.557   1.954  13.325  0.00  0.00    +0.000 A 
ATOM     31  C   UNL     1      39.512   2.660  14.187  0.00  0.00    +0.000 C 
ENDBRANCH  24  25
ENDBRANCH   8  24
TORSDOF 8
ENDMDL
