MODEL 1
REMARK VINA RESULT:      -7.7      0.000      0.000
REMARK  Name = 
REMARK  6 active torsions:
REMARK  status: ('A' for Active; 'I' for Inactive)
REMARK    1  A    between atoms: C_8  and  C_9
REMARK    2  A    between atoms: C_15  and  C_16
REMARK    3  A    between atoms: N_22  and  C_23
REMARK    4  A    between atoms: C_23  and  C_24
REMARK    5  A    between atoms: C_24  and  C_26
REMARK    6  A    between atoms: C_26  and  N_27
REMARK                            x       y       z     vdW  Elec       q    Type
REMARK                         _______ _______ _______ _____ _____    ______ ____
ROOT
ATOM      1  C   UNL     1      38.796  -3.726  19.542  0.00  0.00    +0.000 C 
ATOM      2  C   UNL     1      38.249  -2.785  18.536  0.00  0.00    +0.000 A 
ATOM      3  C   UNL     1      37.063  -2.124  18.706  0.00  0.00    +0.000 A 
ATOM      4  C   UNL     1      36.555  -1.245  17.769  0.00  0.00    +0.000 A 
ATOM      5  C   UNL     1      37.277  -1.026  16.609  0.00  0.00    +0.000 A 
ATOM      6  C   UNL     1      38.480  -1.671  16.395  0.00  0.00    +0.000 A 
ATOM      7  C   UNL     1      38.951  -2.546  17.365  0.00  0.00    +0.000 A 
ATOM      8  C   UNL     1      38.952  -1.258  15.181  0.00  0.00    +0.000 A 
ATOM      9  C   UNL     1      38.015  -0.355  14.672  0.00  0.00    +0.000 A 
ATOM     10  N   UNL     1      37.003  -0.223  15.545  0.00  0.00    +0.000 N 
ENDROOT
BRANCH   8  11
ATOM     11  C   UNL     1      40.168  -1.661  14.515  0.00  0.00    +0.000 A 
ATOM     12  C   UNL     1      41.394  -1.015  14.695  0.00  0.00    +0.000 A 
ATOM     13  C   UNL     1      42.492  -1.446  14.022  0.00  0.00    +0.000 A 
ATOM     14  C   UNL     1      42.444  -2.511  13.155  0.00  0.00    +0.000 A 
ATOM     15  C   UNL     1      41.242  -3.155  12.969  0.00  0.00    +0.000 A 
ATOM     16  C   UNL     1      40.122  -2.724  13.649  0.00  0.00    +0.000 A 
ENDBRANCH   8  11
BRANCH   9  17
ATOM     17  C   UNL     1      38.191   0.333  13.426  0.00  0.00    +0.000 A 
ATOM     18  C   UNL     1      37.576  -0.078  12.287  0.00  0.00    +0.000 A 
ATOM     19  C   UNL     1      37.759   0.577  11.109  0.00  0.00    +0.000 A 
ATOM     20  C   UNL     1      38.584   1.689  11.049  0.00  0.00    +0.000 A 
ATOM     21  C   UNL     1      39.215   2.121  12.189  0.00  0.00    +0.000 A 
ATOM     22  C   UNL     1      39.028   1.454  13.382  0.00  0.00    +0.000 A 
ENDBRANCH   9  17
BRANCH  10  23
ATOM     23  C   UNL     1      35.801   0.578  15.428  0.00  0.00    +0.000 C 
BRANCH  23  24
ATOM     24  C   UNL     1      36.091   1.791  16.526  0.00  0.00    +0.000 C 
ATOM     25  O   UNL     1      34.616   2.094  16.745  0.00  0.00    +0.000 OA
BRANCH  24  26
ATOM     26  C   UNL     1      36.257   2.951  15.347  0.00  0.00    +0.000 C 
BRANCH  26  27
ATOM     27  N   UNL     1      36.835   4.096  16.016  0.00  0.00    +0.000 NA
ATOM     28  C   UNL     1      37.181   5.142  15.067  0.00  0.00    +0.000 C 
ATOM     29  C   UNL     1      38.510   4.879  14.411  0.00  0.00    +0.000 C 
ATOM     30  C   UNL     1      39.662   4.992  15.381  0.00  0.00    +0.000 C 
ATOM     31  C   UNL     1      39.358   5.841  16.562  0.00  0.00    +0.000 C 
ATOM     32  C   UNL     1      38.421   5.103  17.495  0.00  0.00    +0.000 C 
ATOM     33  C   UNL     1      37.947   3.825  16.856  0.00  0.00    +0.000 C 
ENDBRANCH  26  27
ENDBRANCH  24  26
ENDBRANCH  23  24
ENDBRANCH  10  23
TORSDOF 6
ENDMDL
MODEL 2
REMARK VINA RESULT:      -7.6      1.569      4.504
REMARK  Name = 
REMARK  6 active torsions:
REMARK  status: ('A' for Active; 'I' for Inactive)
REMARK    1  A    between atoms: C_8  and  C_9
REMARK    2  A    between atoms: C_15  and  C_16
REMARK    3  A    between atoms: N_22  and  C_23
REMARK    4  A    between atoms: C_23  and  C_24
REMARK    5  A    between atoms: C_24  and  C_26
REMARK    6  A    between atoms: C_26  and  N_27
REMARK                            x       y       z     vdW  Elec       q    Type
REMARK                         _______ _______ _______ _____ _____    ______ ____
ROOT
ATOM      1  C   UNL     1      42.634  -0.095  14.018  0.00  0.00    +0.000 C 
ATOM      2  C   UNL     1      41.167   0.077  14.143  0.00  0.00    +0.000 A 
ATOM      3  C   UNL     1      40.469   1.024  13.445  0.00  0.00    +0.000 A 
ATOM      4  C   UNL     1      39.102   1.182  13.560  0.00  0.00    +0.000 A 
ATOM      5  C   UNL     1      38.410   0.348  14.421  0.00  0.00    +0.000 A 
ATOM      6  C   UNL     1      39.073  -0.622  15.147  0.00  0.00    +0.000 A 
ATOM      7  C   UNL     1      40.449  -0.744  14.998  0.00  0.00    +0.000 A 
ATOM      8  C   UNL     1      38.139  -1.279  15.896  0.00  0.00    +0.000 A 
ATOM      9  C   UNL     1      36.905  -0.689  15.607  0.00  0.00    +0.000 A 
ATOM     10  N   UNL     1      37.081   0.297  14.713  0.00  0.00    +0.000 N 
ENDROOT
BRANCH   8  11
ATOM     11  C   UNL     1      38.346  -2.366  16.824  0.00  0.00    +0.000 A 
ATOM     12  C   UNL     1      38.490  -2.184  18.202  0.00  0.00    +0.000 A 
ATOM     13  C   UNL     1      38.695  -3.257  19.009  0.00  0.00    +0.000 A 
ATOM     14  C   UNL     1      38.768  -4.536  18.516  0.00  0.00    +0.000 A 
ATOM     15  C   UNL     1      38.628  -4.729  17.160  0.00  0.00    +0.000 A 
ATOM     16  C   UNL     1      38.419  -3.645  16.333  0.00  0.00    +0.000 A 
ENDBRANCH   8  11
BRANCH   9  17
ATOM     17  C   UNL     1      35.669  -1.148  16.172  0.00  0.00    +0.000 A 
ATOM     18  C   UNL     1      35.020  -0.449  17.139  0.00  0.00    +0.000 A 
ATOM     19  C   UNL     1      33.853  -0.900  17.674  0.00  0.00    +0.000 A 
ATOM     20  C   UNL     1      33.300  -2.093  17.236  0.00  0.00    +0.000 A 
ATOM     21  C   UNL     1      33.940  -2.813  16.260  0.00  0.00    +0.000 A 
ATOM     22  C   UNL     1      35.123  -2.354  15.720  0.00  0.00    +0.000 A 
ENDBRANCH   9  17
BRANCH  10  23
ATOM     23  C   UNL     1      36.097   1.198  14.148  0.00  0.00    +0.000 C 
BRANCH  23  24
ATOM     24  C   UNL     1      36.054   2.412  15.284  0.00  0.00    +0.000 C 
ATOM     25  O   UNL     1      34.556   2.637  15.143  0.00  0.00    +0.000 OA
BRANCH  24  26
ATOM     26  C   UNL     1      36.437   3.591  14.178  0.00  0.00    +0.000 C 
BRANCH  26  27
ATOM     27  N   UNL     1      37.275   4.528  14.893  0.00  0.00    +0.000 NA
ATOM     28  C   UNL     1      37.875   5.496  13.989  0.00  0.00    +0.000 C 
ATOM     29  C   UNL     1      39.103   4.943  13.316  0.00  0.00    +0.000 C 
ATOM     30  C   UNL     1      40.240   4.726  14.286  0.00  0.00    +0.000 C 
ATOM     31  C   UNL     1      40.147   5.572  15.504  0.00  0.00    +0.000 C 
ATOM     32  C   UNL     1      39.052   5.048  16.408  0.00  0.00    +0.000 C 
ATOM     33  C   UNL     1      38.281   3.955  15.716  0.00  0.00    +0.000 C 
ENDBRANCH  26  27
ENDBRANCH  24  26
ENDBRANCH  23  24
ENDBRANCH  10  23
TORSDOF 6
ENDMDL
MODEL 3
REMARK VINA RESULT:      -7.2      2.826      5.932
REMARK  Name = 
REMARK  6 active torsions:
REMARK  status: ('A' for Active; 'I' for Inactive)
REMARK    1  A    between atoms: C_8  and  C_9
REMARK    2  A    between atoms: C_15  and  C_16
REMARK    3  A    between atoms: N_22  and  C_23
REMARK    4  A    between atoms: C_23  and  C_24
REMARK    5  A    between atoms: C_24  and  C_26
REMARK    6  A    between atoms: C_26  and  N_27
REMARK                            x       y       z     vdW  Elec       q    Type
REMARK                         _______ _______ _______ _____ _____    ______ ____
ROOT
ATOM      1  C   UNL     1      34.555   2.224  16.130  0.00  0.00    +0.000 C 
ATOM      2  C   UNL     1      35.724   1.884  15.285  0.00  0.00    +0.000 A 
ATOM      3  C   UNL     1      36.193   2.708  14.299  0.00  0.00    +0.000 A 
ATOM      4  C   UNL     1      37.284   2.392  13.514  0.00  0.00    +0.000 A 
ATOM      5  C   UNL     1      37.930   1.188  13.735  0.00  0.00    +0.000 A 
ATOM      6  C   UNL     1      37.492   0.324  14.720  0.00  0.00    +0.000 A 
ATOM      7  C   UNL     1      36.391   0.685  15.484  0.00  0.00    +0.000 A 
ATOM      8  C   UNL     1      38.317  -0.765  14.701  0.00  0.00    +0.000 A 
ATOM      9  C   UNL     1      39.256  -0.539  13.691  0.00  0.00    +0.000 A 
ATOM     10  N   UNL     1      39.012   0.646  13.111  0.00  0.00    +0.000 N 
ENDROOT
BRANCH   8  11
ATOM     11  C   UNL     1      38.256  -1.943  15.534  0.00  0.00    +0.000 A 
ATOM     12  C   UNL     1      39.003  -2.095  16.705  0.00  0.00    +0.000 A 
ATOM     13  C   UNL     1      38.901  -3.240  17.430  0.00  0.00    +0.000 A 
ATOM     14  C   UNL     1      38.078  -4.272  17.050  0.00  0.00    +0.000 A 
ATOM     15  C   UNL     1      37.337  -4.134  15.897  0.00  0.00    +0.000 A 
ATOM     16  C   UNL     1      37.435  -2.975  15.156  0.00  0.00    +0.000 A 
ENDBRANCH   8  11
BRANCH   9  17
ATOM     17  C   UNL     1      40.326  -1.451  13.402  0.00  0.00    +0.000 A 
ATOM     18  C   UNL     1      41.555  -1.315  13.963  0.00  0.00    +0.000 A 
ATOM     19  C   UNL     1      42.564  -2.180  13.672  0.00  0.00    +0.000 A 
ATOM     20  C   UNL     1      42.353  -3.228  12.789  0.00  0.00    +0.000 A 
ATOM     21  C   UNL     1      41.118  -3.382  12.212  0.00  0.00    +0.000 A 
ATOM     22  C   UNL     1      40.097  -2.503  12.507  0.00  0.00    +0.000 A 
ENDBRANCH   9  17
BRANCH  10  23
ATOM     23  C   UNL     1      39.703   1.277  12.005  0.00  0.00    +0.000 C 
BRANCH  23  24
ATOM     24  C   UNL     1      38.872   0.678  10.696  0.00  0.00    +0.000 C 
ATOM     25  O   UNL     1      40.089  -0.019  10.105  0.00  0.00    +0.000 OA
BRANCH  24  26
ATOM     26  C   UNL     1      39.101   2.057   9.798  0.00  0.00    +0.000 C 
BRANCH  26  27
ATOM     27  N   UNL     1      37.798   2.681   9.717  0.00  0.00    +0.000 NA
ATOM     28  C   UNL     1      36.794   1.744   9.241  0.00  0.00    +0.000 C 
ATOM     29  C   UNL     1      36.808   1.629   7.739  0.00  0.00    +0.000 C 
ATOM     30  C   UNL     1      36.350   2.899   7.062  0.00  0.00    +0.000 C 
ATOM     31  C   UNL     1      35.486   3.748   7.922  0.00  0.00    +0.000 C 
ATOM     32  C   UNL     1      36.327   4.419   8.987  0.00  0.00    +0.000 C 
ATOM     33  C   UNL     1      37.733   3.880   8.959  0.00  0.00    +0.000 C 
ENDBRANCH  26  27
ENDBRANCH  24  26
ENDBRANCH  23  24
ENDBRANCH  10  23
TORSDOF 6
ENDMDL
MODEL 4
REMARK VINA RESULT:      -7.2      2.055      6.550
REMARK  Name = 
REMARK  6 active torsions:
REMARK  status: ('A' for Active; 'I' for Inactive)
REMARK    1  A    between atoms: C_8  and  C_9
REMARK    2  A    between atoms: C_15  and  C_16
REMARK    3  A    between atoms: N_22  and  C_23
REMARK    4  A    between atoms: C_23  and  C_24
REMARK    5  A    between atoms: C_24  and  C_26
REMARK    6  A    between atoms: C_26  and  N_27
REMARK                            x       y       z     vdW  Elec       q    Type
REMARK                         _______ _______ _______ _____ _____    ______ ____
ROOT
ATOM      1  C   UNL     1      35.165   7.210  11.071  0.00  0.00    +0.000 C 
ATOM      2  C   UNL     1      35.537   6.141  12.028  0.00  0.00    +0.000 A 
ATOM      3  C   UNL     1      35.105   6.123  13.325  0.00  0.00    +0.000 A 
ATOM      4  C   UNL     1      35.450   5.125  14.216  0.00  0.00    +0.000 A 
ATOM      5  C   UNL     1      36.269   4.101  13.775  0.00  0.00    +0.000 A 
ATOM      6  C   UNL     1      36.731   4.078  12.473  0.00  0.00    +0.000 A 
ATOM      7  C   UNL     1      36.357   5.103  11.614  0.00  0.00    +0.000 A 
ATOM      8  C   UNL     1      37.505   2.961  12.336  0.00  0.00    +0.000 A 
ATOM      9  C   UNL     1      37.500   2.314  13.575  0.00  0.00    +0.000 A 
ATOM     10  N   UNL     1      36.750   3.015  14.440  0.00  0.00    +0.000 N 
ENDROOT
BRANCH   8  11
ATOM     11  C   UNL     1      38.216   2.509  11.163  0.00  0.00    +0.000 A 
ATOM     12  C   UNL     1      39.562   2.796  10.921  0.00  0.00    +0.000 A 
ATOM     13  C   UNL     1      40.157   2.345   9.786  0.00  0.00    +0.000 A 
ATOM     14  C   UNL     1      39.476   1.606   8.850  0.00  0.00    +0.000 A 
ATOM     15  C   UNL     1      38.150   1.317   9.077  0.00  0.00    +0.000 A 
ATOM     16  C   UNL     1      37.537   1.770  10.227  0.00  0.00    +0.000 A 
ENDBRANCH   8  11
BRANCH   9  17
ATOM     17  C   UNL     1      38.171   1.068  13.808  0.00  0.00    +0.000 A 
ATOM     18  C   UNL     1      39.376   1.008  14.432  0.00  0.00    +0.000 A 
ATOM     19  C   UNL     1      40.007  -0.180  14.638  0.00  0.00    +0.000 A 
ATOM     20  C   UNL     1      39.424  -1.363  14.211  0.00  0.00    +0.000 A 
ATOM     21  C   UNL     1      38.207  -1.323  13.578  0.00  0.00    +0.000 A 
ATOM     22  C   UNL     1      37.570  -0.118  13.370  0.00  0.00    +0.000 A 
ENDBRANCH   9  17
BRANCH  10  23
ATOM     23  C   UNL     1      36.484   2.744  15.839  0.00  0.00    +0.000 C 
BRANCH  23  24
ATOM     24  C   UNL     1      35.234   1.653  15.744  0.00  0.00    +0.000 C 
ATOM     25  O   UNL     1      34.172   2.671  16.132  0.00  0.00    +0.000 OA
BRANCH  24  26
ATOM     26  C   UNL     1      35.445   1.129  17.307  0.00  0.00    +0.000 C 
BRANCH  26  27
ATOM     27  N   UNL     1      35.155  -0.288  17.277  0.00  0.00    +0.000 NA
ATOM     28  C   UNL     1      35.733  -0.969  18.425  0.00  0.00    +0.000 C 
ATOM     29  C   UNL     1      37.190  -1.283  18.210  0.00  0.00    +0.000 C 
ATOM     30  C   UNL     1      37.400  -2.322  17.135  0.00  0.00    +0.000 C 
ATOM     31  C   UNL     1      36.218  -3.195  16.918  0.00  0.00    +0.000 C 
ATOM     32  C   UNL     1      35.137  -2.421  16.195  0.00  0.00    +0.000 C 
ATOM     33  C   UNL     1      35.519  -0.969  16.085  0.00  0.00    +0.000 C 
ENDBRANCH  26  27
ENDBRANCH  24  26
ENDBRANCH  23  24
ENDBRANCH  10  23
TORSDOF 6
ENDMDL
MODEL 5
REMARK VINA RESULT:      -7.0      2.330      7.651
REMARK  Name = 
REMARK  6 active torsions:
REMARK  status: ('A' for Active; 'I' for Inactive)
REMARK    1  A    between atoms: C_8  and  C_9
REMARK    2  A    between atoms: C_15  and  C_16
REMARK    3  A    between atoms: N_22  and  C_23
REMARK    4  A    between atoms: C_23  and  C_24
REMARK    5  A    between atoms: C_24  and  C_26
REMARK    6  A    between atoms: C_26  and  N_27
REMARK                            x       y       z     vdW  Elec       q    Type
REMARK                         _______ _______ _______ _____ _____    ______ ____
ROOT
ATOM      1  C   UNL     1      43.886   6.609  13.940  0.00  0.00    +0.000 C 
ATOM      2  C   UNL     1      42.700   5.734  13.789  0.00  0.00    +0.000 A 
ATOM      3  C   UNL     1      42.597   4.786  12.807  0.00  0.00    +0.000 A 
ATOM      4  C   UNL     1      41.493   3.969  12.668  0.00  0.00    +0.000 A 
ATOM      5  C   UNL     1      40.445   4.118  13.559  0.00  0.00    +0.000 A 
ATOM      6  C   UNL     1      40.504   5.062  14.566  0.00  0.00    +0.000 A 
ATOM      7  C   UNL     1      41.635   5.860  14.667  0.00  0.00    +0.000 A 
ATOM      8  C   UNL     1      39.340   4.973  15.276  0.00  0.00    +0.000 A 
ATOM      9  C   UNL     1      38.583   3.960  14.680  0.00  0.00    +0.000 A 
ATOM     10  N   UNL     1      39.261   3.450  13.640  0.00  0.00    +0.000 N 
ENDROOT
BRANCH   8  11
ATOM     11  C   UNL     1      38.929   5.759  16.415  0.00  0.00    +0.000 A 
ATOM     12  C   UNL     1      38.174   6.930  16.310  0.00  0.00    +0.000 A 
ATOM     13  C   UNL     1      37.839   7.622  17.429  0.00  0.00    +0.000 A 
ATOM     14  C   UNL     1      38.219   7.210  18.683  0.00  0.00    +0.000 A 
ATOM     15  C   UNL     1      38.963   6.058  18.800  0.00  0.00    +0.000 A 
ATOM     16  C   UNL     1      39.309   5.348  17.668  0.00  0.00    +0.000 A 
ENDBRANCH   8  11
BRANCH   9  17
ATOM     17  C   UNL     1      37.306   3.541  15.183  0.00  0.00    +0.000 A 
ATOM     18  C   UNL     1      37.194   2.665  16.214  0.00  0.00    +0.000 A 
ATOM     19  C   UNL     1      35.977   2.267  16.675  0.00  0.00    +0.000 A 
ATOM     20  C   UNL     1      34.817   2.756  16.093  0.00  0.00    +0.000 A 
ATOM     21  C   UNL     1      34.909   3.642  15.050  0.00  0.00    +0.000 A 
ATOM     22  C   UNL     1      36.144   4.042  14.585  0.00  0.00    +0.000 A 
ENDBRANCH   9  17
BRANCH  10  23
ATOM     23  C   UNL     1      38.858   2.410  12.715  0.00  0.00    +0.000 C 
BRANCH  23  24
ATOM     24  C   UNL     1      39.518   1.055  13.417  0.00  0.00    +0.000 C 
ATOM     25  O   UNL     1      40.076   0.516  12.108  0.00  0.00    +0.000 OA
BRANCH  24  26
ATOM     26  C   UNL     1      38.108   0.185  13.289  0.00  0.00    +0.000 C 
BRANCH  26  27
ATOM     27  N   UNL     1      38.337  -1.026  14.047  0.00  0.00    +0.000 NA
ATOM     28  C   UNL     1      37.088  -1.719  14.323  0.00  0.00    +0.000 C 
ATOM     29  C   UNL     1      36.378  -1.132  15.515  0.00  0.00    +0.000 C 
ATOM     30  C   UNL     1      37.124  -1.376  16.805  0.00  0.00    +0.000 C 
ATOM     31  C   UNL     1      38.033  -2.549  16.749  0.00  0.00    +0.000 C 
ATOM     32  C   UNL     1      39.249  -2.214  15.911  0.00  0.00    +0.000 C 
ATOM     33  C   UNL     1      39.075  -0.872  15.250  0.00  0.00    +0.000 C 
ENDBRANCH  26  27
ENDBRANCH  24  26
ENDBRANCH  23  24
ENDBRANCH  10  23
TORSDOF 6
ENDMDL
MODEL 6
REMARK VINA RESULT:      -6.9     25.694     28.763
REMARK  Name = 
REMARK  6 active torsions:
REMARK  status: ('A' for Active; 'I' for Inactive)
REMARK    1  A    between atoms: C_8  and  C_9
REMARK    2  A    between atoms: C_15  and  C_16
REMARK    3  A    between atoms: N_22  and  C_23
REMARK    4  A    between atoms: C_23  and  C_24
REMARK    5  A    between atoms: C_24  and  C_26
REMARK    6  A    between atoms: C_26  and  N_27
REMARK                            x       y       z     vdW  Elec       q    Type
REMARK                         _______ _______ _______ _____ _____    ______ ____
ROOT
ATOM      1  C   UNL     1      22.636  15.105  39.805  0.00  0.00    +0.000 C 
ATOM      2  C   UNL     1      24.068  15.355  39.518  0.00  0.00    +0.000 A 
ATOM      3  C   UNL     1      25.011  15.477  40.501  0.00  0.00    +0.000 A 
ATOM      4  C   UNL     1      26.347  15.708  40.234  0.00  0.00    +0.000 A 
ATOM      5  C   UNL     1      26.745  15.822  38.914  0.00  0.00    +0.000 A 
ATOM      6  C   UNL     1      25.828  15.706  37.887  0.00  0.00    +0.000 A 
ATOM      7  C   UNL     1      24.496  15.474  38.205  0.00  0.00    +0.000 A 
ATOM      8  C   UNL     1      26.509  15.860  36.713  0.00  0.00    +0.000 A 
ATOM      9  C   UNL     1      27.849  16.069  37.051  0.00  0.00    +0.000 A 
ATOM     10  N   UNL     1      27.981  16.046  38.387  0.00  0.00    +0.000 N 
ENDROOT
BRANCH   8  11
ATOM     11  C   UNL     1      25.983  15.832  35.368  0.00  0.00    +0.000 A 
ATOM     12  C   UNL     1      25.412  16.943  34.743  0.00  0.00    +0.000 A 
ATOM     13  C   UNL     1      24.927  16.834  33.479  0.00  0.00    +0.000 A 
ATOM     14  C   UNL     1      24.976  15.653  32.779  0.00  0.00    +0.000 A 
ATOM     15  C   UNL     1      25.537  14.551  33.385  0.00  0.00    +0.000 A 
ATOM     16  C   UNL     1      26.032  14.653  34.668  0.00  0.00    +0.000 A 
ENDBRANCH   8  11
BRANCH   9  17
ATOM     17  C   UNL     1      28.886  16.226  36.072  0.00  0.00    +0.000 A 
ATOM     18  C   UNL     1      29.639  15.177  35.651  0.00  0.00    +0.000 A 
ATOM     19  C   UNL     1      30.626  15.341  34.729  0.00  0.00    +0.000 A 
ATOM     20  C   UNL     1      30.883  16.595  34.197  0.00  0.00    +0.000 A 
ATOM     21  C   UNL     1      30.134  17.667  34.610  0.00  0.00    +0.000 A 
ATOM     22  C   UNL     1      29.134  17.498  35.545  0.00  0.00    +0.000 A 
ENDBRANCH   9  17
BRANCH  10  23
ATOM     23  C   UNL     1      29.173  16.246  39.186  0.00  0.00    +0.000 C 
BRANCH  23  24
ATOM     24  C   UNL     1      29.754  14.695  39.326  0.00  0.00    +0.000 C 
ATOM     25  O   UNL     1      29.701  14.696  40.847  0.00  0.00    +0.000 OA
BRANCH  24  26
ATOM     26  C   UNL     1      31.342  15.183  39.281  0.00  0.00    +0.000 C 
BRANCH  26  27
ATOM     27  N   UNL     1      32.105  13.978  39.039  0.00  0.00    +0.000 NA
ATOM     28  C   UNL     1      33.436  14.288  38.542  0.00  0.00    +0.000 C 
ATOM     29  C   UNL     1      33.428  14.556  37.060  0.00  0.00    +0.000 C 
ATOM     30  C   UNL     1      33.111  13.318  36.255  0.00  0.00    +0.000 C 
ATOM     31  C   UNL     1      33.419  12.053  36.970  0.00  0.00    +0.000 C 
ATOM     32  C   UNL     1      32.391  11.817  38.056  0.00  0.00    +0.000 C 
ATOM     33  C   UNL     1      31.491  13.016  38.194  0.00  0.00    +0.000 C 
ENDBRANCH  26  27
ENDBRANCH  24  26
ENDBRANCH  23  24
ENDBRANCH  10  23
TORSDOF 6
ENDMDL
MODEL 7
REMARK VINA RESULT:      -6.7      2.441      5.236
REMARK  Name = 
REMARK  6 active torsions:
REMARK  status: ('A' for Active; 'I' for Inactive)
REMARK    1  A    between atoms: C_8  and  C_9
REMARK    2  A    between atoms: C_15  and  C_16
REMARK    3  A    between atoms: N_22  and  C_23
REMARK    4  A    between atoms: C_23  and  C_24
REMARK    5  A    between atoms: C_24  and  C_26
REMARK    6  A    between atoms: C_26  and  N_27
REMARK                            x       y       z     vdW  Elec       q    Type
REMARK                         _______ _______ _______ _____ _____    ______ ____
ROOT
ATOM      1  C   UNL     1      40.463  -3.239  10.523  0.00  0.00    +0.000 C 
ATOM      2  C   UNL     1      39.960  -2.260  11.516  0.00  0.00    +0.000 A 
ATOM      3  C   UNL     1      40.271  -0.929  11.470  0.00  0.00    +0.000 A 
ATOM      4  C   UNL     1      39.800  -0.017  12.394  0.00  0.00    +0.000 A 
ATOM      5  C   UNL     1      38.978  -0.472  13.410  0.00  0.00    +0.000 A 
ATOM      6  C   UNL     1      38.637  -1.808  13.497  0.00  0.00    +0.000 A 
ATOM      7  C   UNL     1      39.135  -2.687  12.545  0.00  0.00    +0.000 A 
ATOM      8  C   UNL     1      37.826  -1.950  14.587  0.00  0.00    +0.000 A 
ATOM      9  C   UNL     1      37.685  -0.679  15.151  0.00  0.00    +0.000 A 
ATOM     10  N   UNL     1      38.389   0.209  14.432  0.00  0.00    +0.000 N 
ENDROOT
BRANCH   8  11
ATOM     11  C   UNL     1      37.223  -3.160  15.096  0.00  0.00    +0.000 A 
ATOM     12  C   UNL     1      35.966  -3.620  14.696  0.00  0.00    +0.000 A 
ATOM     13  C   UNL     1      35.461  -4.761  15.231  0.00  0.00    +0.000 A 
ATOM     14  C   UNL     1      36.148  -5.494  16.167  0.00  0.00    +0.000 A 
ATOM     15  C   UNL     1      37.388  -5.051  16.570  0.00  0.00    +0.000 A 
ATOM     16  C   UNL     1      37.909  -3.893  16.031  0.00  0.00    +0.000 A 
ENDBRANCH   8  11
BRANCH   9  17
ATOM     17  C   UNL     1      36.859  -0.420  16.295  0.00  0.00    +0.000 A 
ATOM     18  C   UNL     1      37.260  -0.729  17.555  0.00  0.00    +0.000 A 
ATOM     19  C   UNL     1      36.463  -0.488  18.630  0.00  0.00    +0.000 A 
ATOM     20  C   UNL     1      35.213   0.086  18.457  0.00  0.00    +0.000 A 
ATOM     21  C   UNL     1      34.789   0.405  17.192  0.00  0.00    +0.000 A 
ATOM     22  C   UNL     1      35.599   0.158  16.104  0.00  0.00    +0.000 A 
ENDBRANCH   9  17
BRANCH  10  23
ATOM     23  C   UNL     1      38.561   1.629  14.658  0.00  0.00    +0.000 C 
BRANCH  23  24
ATOM     24  C   UNL     1      37.305   2.270  13.779  0.00  0.00    +0.000 C 
ATOM     25  O   UNL     1      38.210   2.848  12.702  0.00  0.00    +0.000 OA
BRANCH  24  26
ATOM     26  C   UNL     1      37.282   3.681  14.657  0.00  0.00    +0.000 C 
BRANCH  26  27
ATOM     27  N   UNL     1      36.964   4.720  13.703  0.00  0.00    +0.000 NA
ATOM     28  C   UNL     1      37.734   5.926  13.962  0.00  0.00    +0.000 C 
ATOM     29  C   UNL     1      37.110   6.762  15.048  0.00  0.00    +0.000 C 
ATOM     30  C   UNL     1      35.789   7.359  14.625  0.00  0.00    +0.000 C 
ATOM     31  C   UNL     1      35.644   7.488  13.153  0.00  0.00    +0.000 C 
ATOM     32  C   UNL     1      35.415   6.123  12.540  0.00  0.00    +0.000 C 
ATOM     33  C   UNL     1      35.588   5.048  13.580  0.00  0.00    +0.000 C 
ENDBRANCH  26  27
ENDBRANCH  24  26
ENDBRANCH  23  24
ENDBRANCH  10  23
TORSDOF 6
ENDMDL
MODEL 8
REMARK VINA RESULT:      -6.7      6.635     10.349
REMARK  Name = 
REMARK  6 active torsions:
REMARK  status: ('A' for Active; 'I' for Inactive)
REMARK    1  A    between atoms: C_8  and  C_9
REMARK    2  A    between atoms: C_15  and  C_16
REMARK    3  A    between atoms: N_22  and  C_23
REMARK    4  A    between atoms: C_23  and  C_24
REMARK    5  A    between atoms: C_24  and  C_26
REMARK    6  A    between atoms: C_26  and  N_27
REMARK                            x       y       z     vdW  Elec       q    Type
REMARK                         _______ _______ _______ _____ _____    ______ ____
ROOT
ATOM      1  C   UNL     1      42.082  12.933  22.647  0.00  0.00    +0.000 C 
ATOM      2  C   UNL     1      41.142  12.057  21.909  0.00  0.00    +0.000 A 
ATOM      3  C   UNL     1      39.812  12.343  21.772  0.00  0.00    +0.000 A 
ATOM      4  C   UNL     1      38.937  11.528  21.082  0.00  0.00    +0.000 A 
ATOM      5  C   UNL     1      39.428  10.370  20.506  0.00  0.00    +0.000 A 
ATOM      6  C   UNL     1      40.765  10.039  20.618  0.00  0.00    +0.000 A 
ATOM      7  C   UNL     1      41.607  10.890  21.321  0.00  0.00    +0.000 A 
ATOM      8  C   UNL     1      40.948   8.858  19.956  0.00  0.00    +0.000 A 
ATOM      9  C   UNL     1      39.702   8.487  19.444  0.00  0.00    +0.000 A 
ATOM     10  N   UNL     1      38.787   9.409  19.784  0.00  0.00    +0.000 N 
ENDROOT
BRANCH   8  11
ATOM     11  C   UNL     1      42.170   8.104  19.802  0.00  0.00    +0.000 A 
ATOM     12  C   UNL     1      43.023   8.237  18.704  0.00  0.00    +0.000 A 
ATOM     13  C   UNL     1      44.149   7.482  18.626  0.00  0.00    +0.000 A 
ATOM     14  C   UNL     1      44.489   6.576  19.600  0.00  0.00    +0.000 A 
ATOM     15  C   UNL     1      43.656   6.435  20.687  0.00  0.00    +0.000 A 
ATOM     16  C   UNL     1      42.510   7.198  20.775  0.00  0.00    +0.000 A 
ENDBRANCH   8  11
BRANCH   9  17
ATOM     17  C   UNL     1      39.505   7.315  18.640  0.00  0.00    +0.000 A 
ATOM     18  C   UNL     1      39.204   6.111  19.190  0.00  0.00    +0.000 A 
ATOM     19  C   UNL     1      39.031   5.005  18.417  0.00  0.00    +0.000 A 
ATOM     20  C   UNL     1      39.158   5.089  17.040  0.00  0.00    +0.000 A 
ATOM     21  C   UNL     1      39.461   6.297  16.464  0.00  0.00    +0.000 A 
ATOM     22  C   UNL     1      39.638   7.416  17.250  0.00  0.00    +0.000 A 
ENDBRANCH   9  17
BRANCH  10  23
ATOM     23  C   UNL     1      37.367   9.427  19.502  0.00  0.00    +0.000 C 
BRANCH  23  24
ATOM     24  C   UNL     1      37.325  10.154  18.007  0.00  0.00    +0.000 C 
ATOM     25  O   UNL     1      36.782  11.471  18.543  0.00  0.00    +0.000 OA
BRANCH  24  26
ATOM     26  C   UNL     1      35.814   9.560  17.654  0.00  0.00    +0.000 C 
BRANCH  26  27
ATOM     27  N   UNL     1      35.633   9.795  16.238  0.00  0.00    +0.000 NA
ATOM     28  C   UNL     1      34.243  10.087  15.926  0.00  0.00    +0.000 C 
ATOM     29  C   UNL     1      33.425   8.829  15.800  0.00  0.00    +0.000 C 
ATOM     30  C   UNL     1      33.816   8.008  14.594  0.00  0.00    +0.000 C 
ATOM     31  C   UNL     1      34.466   8.806  13.523  0.00  0.00    +0.000 C 
ATOM     32  C   UNL     1      35.875   9.171  13.942  0.00  0.00    +0.000 C 
ATOM     33  C   UNL     1      36.113   8.775  15.375  0.00  0.00    +0.000 C 
ENDBRANCH  26  27
ENDBRANCH  24  26
ENDBRANCH  23  24
ENDBRANCH  10  23
TORSDOF 6
ENDMDL
MODEL 9
REMARK VINA RESULT:      -6.7      1.978      4.837
REMARK  Name = 
REMARK  6 active torsions:
REMARK  status: ('A' for Active; 'I' for Inactive)
REMARK    1  A    between atoms: C_8  and  C_9
REMARK    2  A    between atoms: C_15  and  C_16
REMARK    3  A    between atoms: N_22  and  C_23
REMARK    4  A    between atoms: C_23  and  C_24
REMARK    5  A    between atoms: C_24  and  C_26
REMARK    6  A    between atoms: C_26  and  N_27
REMARK                            x       y       z     vdW  Elec       q    Type
REMARK                         _______ _______ _______ _____ _____    ______ ____
ROOT
ATOM      1  C   UNL     1      40.501  -3.013  10.819  0.00  0.00    +0.000 C 
ATOM      2  C   UNL     1      39.687  -2.139  11.696  0.00  0.00    +0.000 A 
ATOM      3  C   UNL     1      39.431  -0.827  11.404  0.00  0.00    +0.000 A 
ATOM      4  C   UNL     1      38.670  -0.013  12.220  0.00  0.00    +0.000 A 
ATOM      5  C   UNL     1      38.146  -0.549  13.384  0.00  0.00    +0.000 A 
ATOM      6  C   UNL     1      38.378  -1.869  13.719  0.00  0.00    +0.000 A 
ATOM      7  C   UNL     1      39.149  -2.649  12.867  0.00  0.00    +0.000 A 
ATOM      8  C   UNL     1      37.741  -2.105  14.904  0.00  0.00    +0.000 A 
ATOM      9  C   UNL     1      37.122  -0.908  15.273  0.00  0.00    +0.000 A 
ATOM     10  N   UNL     1      37.375   0.029  14.346  0.00  0.00    +0.000 N 
ENDROOT
BRANCH   8  11
ATOM     11  C   UNL     1      37.701  -3.333  15.664  0.00  0.00    +0.000 A 
ATOM     12  C   UNL     1      36.729  -4.319  15.481  0.00  0.00    +0.000 A 
ATOM     13  C   UNL     1      36.751  -5.442  16.245  0.00  0.00    +0.000 A 
ATOM     14  C   UNL     1      37.707  -5.650  17.208  0.00  0.00    +0.000 A 
ATOM     15  C   UNL     1      38.671  -4.685  17.398  0.00  0.00    +0.000 A 
ATOM     16  C   UNL     1      38.656  -3.541  16.627  0.00  0.00    +0.000 A 
ENDBRANCH   8  11
BRANCH   9  17
ATOM     17  C   UNL     1      36.310  -0.778  16.449  0.00  0.00    +0.000 A 
ATOM     18  C   UNL     1      34.973  -1.016  16.428  0.00  0.00    +0.000 A 
ATOM     19  C   UNL     1      34.213  -0.880  17.547  0.00  0.00    +0.000 A 
ATOM     20  C   UNL     1      34.796  -0.493  18.743  0.00  0.00    +0.000 A 
ATOM     21  C   UNL     1      36.145  -0.247  18.786  0.00  0.00    +0.000 A 
ATOM     22  C   UNL     1      36.913  -0.385  17.649  0.00  0.00    +0.000 A 
ENDBRANCH   9  17
BRANCH  10  23
ATOM     23  C   UNL     1      36.968   1.419  14.323  0.00  0.00    +0.000 C 
BRANCH  23  24
ATOM     24  C   UNL     1      38.284   2.172  15.005  0.00  0.00    +0.000 C 
ATOM     25  O   UNL     1      37.531   2.593  16.258  0.00  0.00    +0.000 OA
BRANCH  24  26
ATOM     26  C   UNL     1      37.988   3.608  14.223  0.00  0.00    +0.000 C 
BRANCH  26  27
ATOM     27  N   UNL     1      38.482   4.636  15.114  0.00  0.00    +0.000 NA
ATOM     28  C   UNL     1      37.758   5.884  14.932  0.00  0.00    +0.000 C 
ATOM     29  C   UNL     1      38.289   6.670  13.763  0.00  0.00    +0.000 C 
ATOM     30  C   UNL     1      39.685   7.191  14.008  0.00  0.00    +0.000 C 
ATOM     31  C   UNL     1      40.021   7.325  15.449  0.00  0.00    +0.000 C 
ATOM     32  C   UNL     1      40.243   5.954  16.052  0.00  0.00    +0.000 C 
ATOM     33  C   UNL     1      39.880   4.882  15.059  0.00  0.00    +0.000 C 
ENDBRANCH  26  27
ENDBRANCH  24  26
ENDBRANCH  23  24
ENDBRANCH  10  23
TORSDOF 6
ENDMDL
MODEL 10
REMARK VINA RESULT:      -6.6      2.692      7.538
REMARK  Name = 
REMARK  6 active torsions:
REMARK  status: ('A' for Active; 'I' for Inactive)
REMARK    1  A    between atoms: C_8  and  C_9
REMARK    2  A    between atoms: C_15  and  C_16
REMARK    3  A    between atoms: N_22  and  C_23
REMARK    4  A    between atoms: C_23  and  C_24
REMARK    5  A    between atoms: C_24  and  C_26
REMARK    6  A    between atoms: C_26  and  N_27
REMARK                            x       y       z     vdW  Elec       q    Type
REMARK                         _______ _______ _______ _____ _____    ______ ____
ROOT
ATOM      1  C   UNL     1      41.256   4.530  12.753  0.00  0.00    +0.000 C 
ATOM      2  C   UNL     1      40.957   3.137  13.160  0.00  0.00    +0.000 A 
ATOM      3  C   UNL     1      41.853   2.113  13.016  0.00  0.00    +0.000 A 
ATOM      4  C   UNL     1      41.574   0.815  13.398  0.00  0.00    +0.000 A 
ATOM      5  C   UNL     1      40.335   0.540  13.948  0.00  0.00    +0.000 A 
ATOM      6  C   UNL     1      39.398   1.542  14.112  0.00  0.00    +0.000 A 
ATOM      7  C   UNL     1      39.724   2.832  13.714  0.00  0.00    +0.000 A 
ATOM      8  C   UNL     1      38.289   0.974  14.673  0.00  0.00    +0.000 A 
ATOM      9  C   UNL     1      38.576  -0.383  14.843  0.00  0.00    +0.000 A 
ATOM     10  N   UNL     1      39.817  -0.636  14.399  0.00  0.00    +0.000 N 
ENDROOT
BRANCH   8  11
ATOM     11  C   UNL     1      37.043   1.613  15.024  0.00  0.00    +0.000 A 
ATOM     12  C   UNL     1      35.974   1.756  14.135  0.00  0.00    +0.000 A 
ATOM     13  C   UNL     1      34.838   2.381  14.536  0.00  0.00    +0.000 A 
ATOM     14  C   UNL     1      34.694   2.889  15.804  0.00  0.00    +0.000 A 
ATOM     15  C   UNL     1      35.740   2.756  16.689  0.00  0.00    +0.000 A 
ATOM     16  C   UNL     1      36.898   2.122  16.290  0.00  0.00    +0.000 A 
ENDBRANCH   8  11
BRANCH   9  17
ATOM     17  C   UNL     1      37.661  -1.303  15.454  0.00  0.00    +0.000 A 
ATOM     18  C   UNL     1      36.652  -1.883  14.753  0.00  0.00    +0.000 A 
ATOM     19  C   UNL     1      35.784  -2.746  15.346  0.00  0.00    +0.000 A 
ATOM     20  C   UNL     1      35.917  -3.055  16.691  0.00  0.00    +0.000 A 
ATOM     21  C   UNL     1      36.930  -2.480  17.417  0.00  0.00    +0.000 A 
ATOM     22  C   UNL     1      37.807  -1.604  16.813  0.00  0.00    +0.000 A 
ENDBRANCH   9  17
BRANCH  10  23
ATOM     23  C   UNL     1      40.524  -1.899  14.347  0.00  0.00    +0.000 C 
BRANCH  23  24
ATOM     24  C   UNL     1      40.465  -2.257  12.725  0.00  0.00    +0.000 C 
ATOM     25  O   UNL     1      39.257  -3.172  12.861  0.00  0.00    +0.000 OA
BRANCH  24  26
ATOM     26  C   UNL     1      41.552  -3.506  12.863  0.00  0.00    +0.000 C 
BRANCH  26  27
ATOM     27  N   UNL     1      42.568  -3.240  11.867  0.00  0.00    +0.000 NA
ATOM     28  C   UNL     1      43.903  -3.391  12.423  0.00  0.00    +0.000 C 
ATOM     29  C   UNL     1      44.338  -2.157  13.168  0.00  0.00    +0.000 C 
ATOM     30  C   UNL     1      44.550  -0.977  12.249  0.00  0.00    +0.000 C 
ATOM     31  C   UNL     1      44.838  -1.367  10.845  0.00  0.00    +0.000 C 
ATOM     32  C   UNL     1      43.572  -1.870  10.184  0.00  0.00    +0.000 C 
ATOM     33  C   UNL     1      42.466  -1.992  11.199  0.00  0.00    +0.000 C 
ENDBRANCH  26  27
ENDBRANCH  24  26
ENDBRANCH  23  24
ENDBRANCH  10  23
TORSDOF 6
ENDMDL
