MODEL 1
REMARK VINA RESULT:      -8.5      0.000      0.000
REMARK  Name = 
REMARK  6 active torsions:
REMARK  status: ('A' for Active; 'I' for Inactive)
REMARK    1  A    between atoms: C_2  and  C_3
REMARK    2  A    between atoms: C_3  and  C_5
REMARK    3  A    between atoms: C_8  and  C_9
REMARK    4  A    between atoms: C_11  and  C_12
REMARK    5  A    between atoms: N_14  and  N_15
REMARK    6  A    between atoms: C_16  and  C_17
REMARK                            x       y       z     vdW  Elec       q    Type
REMARK                         _______ _______ _______ _____ _____    ______ ____
ROOT
ATOM      1  C   UNL     1      37.860   4.035  16.046  0.00  0.00    +0.000 A 
ATOM      2  C   UNL     1      36.947   3.130  16.544  0.00  0.00    +0.000 A 
ATOM      3  C   UNL     1      36.426   2.108  15.775  0.00  0.00    +0.000 A 
ATOM      4  C   UNL     1      36.851   2.014  14.465  0.00  0.00    +0.000 A 
ATOM      5  C   UNL     1      36.336   1.000  13.700  0.00  0.00    +0.000 A 
ATOM      6  C   UNL     1      36.758   0.900  12.390  0.00  0.00    +0.000 A 
ATOM      7  C   UNL     1      37.677   1.792  11.846  0.00  0.00    +0.000 A 
ATOM      8  C   UNL     1      38.185   2.806  12.632  0.00  0.00    +0.000 A 
ATOM      9  C   UNL     1      37.773   2.922  13.950  0.00  0.00    +0.000 A 
ATOM     10  N   UNL     1      38.233   3.888  14.765  0.00  0.00    +0.000 NA
ENDROOT
BRANCH   1  14
ATOM     11  C   UNL     1      39.395   7.097  18.609  0.00  0.00    +0.000 A 
ATOM     12  C   UNL     1      38.972   7.414  17.326  0.00  0.00    +0.000 A 
ATOM     13  C   UNL     1      38.477   6.415  16.508  0.00  0.00    +0.000 A 
ATOM     14  C   UNL     1      38.383   5.103  16.908  0.00  0.00    +0.000 A 
ATOM     15  C   UNL     1      38.821   4.865  18.191  0.00  0.00    +0.000 A 
ATOM     16  C   UNL     1      39.319   5.845  19.028  0.00  0.00    +0.000 A 
BRANCH  11  17
ATOM     17  C   UNL     1      39.946   8.297  19.479  0.00  0.00    +0.000 C 
ATOM     18  C   UNL     1      41.136   7.476  20.223  0.00  0.00    +0.000 C 
BRANCH  17  20
ATOM     19  C   UNL     1      37.712   8.976  20.407  0.00  0.00    +0.000 C 
ATOM     20  C   UNL     1      38.905   8.096  20.732  0.00  0.00    +0.000 C 
ENDBRANCH  17  20
ENDBRANCH  11  17
ENDBRANCH   1  14
BRANCH   3  21
ATOM     21  C   UNL     1      35.461   1.168  16.330  0.00  0.00    +0.000 C 
ATOM     22  O   UNL     1      34.310   1.585  16.619  0.00  0.00    +0.000 OA
ATOM     23  N   UNL     1      35.731  -0.199  16.568  0.00  0.00    +0.000 NA
BRANCH  23  24
ATOM     24  N   UNL     1      34.810  -1.100  17.101  0.00  0.00    +0.000 NA
ATOM     25  C   UNL     1      35.180  -2.284  17.426  0.00  0.00    +0.000 C 
BRANCH  25  26
ATOM     26  C   UNL     1      36.577  -2.695  17.236  0.00  0.00    +0.000 A 
ATOM     27  S   UNL     1      37.310  -3.427  15.886  0.00  0.00    +0.000 S 
ATOM     28  C   UNL     1      38.906  -3.565  16.475  0.00  0.00    +0.000 A 
ATOM     29  C   UNL     1      38.810  -3.028  17.723  0.00  0.00    +0.000 A 
ATOM     30  C   UNL     1      37.617  -2.578  18.123  0.00  0.00    +0.000 A 
ATOM     31  C   UNL     1      37.424  -1.964  19.500  0.00  0.00    +0.000 C 
ENDBRANCH  25  26
ENDBRANCH  23  24
ENDBRANCH   3  21
TORSDOF 6
ENDMDL
MODEL 2
REMARK VINA RESULT:      -8.4      1.612      2.400
REMARK  Name = 
REMARK  6 active torsions:
REMARK  status: ('A' for Active; 'I' for Inactive)
REMARK    1  A    between atoms: C_2  and  C_3
REMARK    2  A    between atoms: C_3  and  C_5
REMARK    3  A    between atoms: C_8  and  C_9
REMARK    4  A    between atoms: C_11  and  C_12
REMARK    5  A    between atoms: N_14  and  N_15
REMARK    6  A    between atoms: C_16  and  C_17
REMARK                            x       y       z     vdW  Elec       q    Type
REMARK                         _______ _______ _______ _____ _____    ______ ____
ROOT
ATOM      1  C   UNL     1      39.135   4.971  16.630  0.00  0.00    +0.000 A 
ATOM      2  C   UNL     1      38.091   4.150  17.002  0.00  0.00    +0.000 A 
ATOM      3  C   UNL     1      37.309   3.486  16.078  0.00  0.00    +0.000 A 
ATOM      4  C   UNL     1      37.605   3.667  14.743  0.00  0.00    +0.000 A 
ATOM      5  C   UNL     1      36.831   3.008  13.823  0.00  0.00    +0.000 A 
ATOM      6  C   UNL     1      37.123   3.185  12.487  0.00  0.00    +0.000 A 
ATOM      7  C   UNL     1      38.166   4.003  12.066  0.00  0.00    +0.000 A 
ATOM      8  C   UNL     1      38.935   4.659  13.005  0.00  0.00    +0.000 A 
ATOM      9  C   UNL     1      38.657   4.493  14.353  0.00  0.00    +0.000 A 
ATOM     10  N   UNL     1      39.371   5.105  15.315  0.00  0.00    +0.000 NA
ENDROOT
BRANCH   1  14
ATOM     11  C   UNL     1      41.413   6.953  19.661  0.00  0.00    +0.000 A 
ATOM     12  C   UNL     1      41.942   6.794  18.387  0.00  0.00    +0.000 A 
ATOM     13  C   UNL     1      41.195   6.153  17.417  0.00  0.00    +0.000 A 
ATOM     14  C   UNL     1      39.936   5.654  17.654  0.00  0.00    +0.000 A 
ATOM     15  C   UNL     1      39.478   5.849  18.938  0.00  0.00    +0.000 A 
ATOM     16  C   UNL     1      40.204   6.487  19.925  0.00  0.00    +0.000 A 
BRANCH  11  17
ATOM     17  C   UNL     1      42.332   7.698  20.710  0.00  0.00    +0.000 C 
ATOM     18  C   UNL     1      42.881   8.856  19.710  0.00  0.00    +0.000 C 
BRANCH  17  20
ATOM     19  C   UNL     1      43.660   5.784  21.650  0.00  0.00    +0.000 C 
ATOM     20  C   UNL     1      43.655   6.753  20.483  0.00  0.00    +0.000 C 
ENDBRANCH  17  20
ENDBRANCH  11  17
ENDBRANCH   1  14
BRANCH   3  21
ATOM     21  C   UNL     1      36.211   2.627  16.503  0.00  0.00    +0.000 C 
ATOM     22  O   UNL     1      35.032   3.016  16.309  0.00  0.00    +0.000 OA
ATOM     23  N   UNL     1      36.382   1.370  17.127  0.00  0.00    +0.000 NA
BRANCH  23  24
ATOM     24  N   UNL     1      35.334   0.548  17.537  0.00  0.00    +0.000 NA
ATOM     25  C   UNL     1      35.424  -0.725  17.407  0.00  0.00    +0.000 C 
BRANCH  25  26
ATOM     26  C   UNL     1      36.633  -1.321  16.826  0.00  0.00    +0.000 A 
ATOM     27  S   UNL     1      37.009  -1.618  15.193  0.00  0.00    +0.000 S 
ATOM     28  C   UNL     1      38.558  -2.309  15.384  0.00  0.00    +0.000 A 
ATOM     29  C   UNL     1      38.731  -2.283  16.735  0.00  0.00    +0.000 A 
ATOM     30  C   UNL     1      37.747  -1.777  17.484  0.00  0.00    +0.000 A 
ATOM     31  C   UNL     1      37.860  -1.712  18.999  0.00  0.00    +0.000 C 
ENDBRANCH  25  26
ENDBRANCH  23  24
ENDBRANCH   3  21
TORSDOF 6
ENDMDL
MODEL 3
REMARK VINA RESULT:      -8.1      2.442      3.650
REMARK  Name = 
REMARK  6 active torsions:
REMARK  status: ('A' for Active; 'I' for Inactive)
REMARK    1  A    between atoms: C_2  and  C_3
REMARK    2  A    between atoms: C_3  and  C_5
REMARK    3  A    between atoms: C_8  and  C_9
REMARK    4  A    between atoms: C_11  and  C_12
REMARK    5  A    between atoms: N_14  and  N_15
REMARK    6  A    between atoms: C_16  and  C_17
REMARK                            x       y       z     vdW  Elec       q    Type
REMARK                         _______ _______ _______ _____ _____    ______ ____
ROOT
ATOM      1  C   UNL     1      38.848   5.511  16.883  0.00  0.00    +0.000 A 
ATOM      2  C   UNL     1      38.237   4.283  17.025  0.00  0.00    +0.000 A 
ATOM      3  C   UNL     1      37.263   3.838  16.153  0.00  0.00    +0.000 A 
ATOM      4  C   UNL     1      36.908   4.672  15.112  0.00  0.00    +0.000 A 
ATOM      5  C   UNL     1      35.943   4.233  14.244  0.00  0.00    +0.000 A 
ATOM      6  C   UNL     1      35.585   5.061  13.201  0.00  0.00    +0.000 A 
ATOM      7  C   UNL     1      36.175   6.308  13.019  0.00  0.00    +0.000 A 
ATOM      8  C   UNL     1      37.146   6.733  13.902  0.00  0.00    +0.000 A 
ATOM      9  C   UNL     1      37.519   5.915  14.956  0.00  0.00    +0.000 A 
ATOM     10  N   UNL     1      38.458   6.274  15.849  0.00  0.00    +0.000 NA
ENDROOT
BRANCH   1  14
ATOM     11  C   UNL     1      41.800   6.745  19.722  0.00  0.00    +0.000 A 
ATOM     12  C   UNL     1      42.136   6.623  18.381  0.00  0.00    +0.000 A 
ATOM     13  C   UNL     1      41.173   6.224  17.474  0.00  0.00    +0.000 A 
ATOM     14  C   UNL     1      39.878   5.936  17.839  0.00  0.00    +0.000 A 
ATOM     15  C   UNL     1      39.620   6.079  19.184  0.00  0.00    +0.000 A 
ATOM     16  C   UNL     1      40.565   6.477  20.110  0.00  0.00    +0.000 A 
BRANCH  11  17
ATOM     17  C   UNL     1      42.960   7.207  20.693  0.00  0.00    +0.000 C 
ATOM     18  C   UNL     1      44.185   7.040  19.636  0.00  0.00    +0.000 C 
BRANCH  17  20
ATOM     19  C   UNL     1      44.125   5.988  22.556  0.00  0.00    +0.000 C 
ATOM     20  C   UNL     1      43.223   5.731  21.363  0.00  0.00    +0.000 C 
ENDBRANCH  17  20
ENDBRANCH  11  17
ENDBRANCH   1  14
BRANCH   3  21
ATOM     21  C   UNL     1      36.634   2.536  16.331  0.00  0.00    +0.000 C 
ATOM     22  O   UNL     1      35.496   2.484  16.864  0.00  0.00    +0.000 OA
ATOM     23  N   UNL     1      37.221   1.311  15.941  0.00  0.00    +0.000 NA
BRANCH  23  24
ATOM     24  N   UNL     1      36.622   0.064  16.112  0.00  0.00    +0.000 NA
ATOM     25  C   UNL     1      36.887  -0.896  15.304  0.00  0.00    +0.000 C 
BRANCH  25  26
ATOM     26  C   UNL     1      37.824  -0.683  14.193  0.00  0.00    +0.000 A 
ATOM     27  S   UNL     1      37.547   0.030  12.673  0.00  0.00    +0.000 S 
ATOM     28  C   UNL     1      39.112  -0.115  12.007  0.00  0.00    +0.000 A 
ATOM     29  C   UNL     1      39.806  -0.723  13.009  0.00  0.00    +0.000 A 
ATOM     30  C   UNL     1      39.153  -1.020  14.136  0.00  0.00    +0.000 A 
ATOM     31  C   UNL     1      39.854  -1.699  15.301  0.00  0.00    +0.000 C 
ENDBRANCH  25  26
ENDBRANCH  23  24
ENDBRANCH   3  21
TORSDOF 6
ENDMDL
MODEL 4
REMARK VINA RESULT:      -8.0      4.124      7.274
REMARK  Name = 
REMARK  6 active torsions:
REMARK  status: ('A' for Active; 'I' for Inactive)
REMARK    1  A    between atoms: C_2  and  C_3
REMARK    2  A    between atoms: C_3  and  C_5
REMARK    3  A    between atoms: C_8  and  C_9
REMARK    4  A    between atoms: C_11  and  C_12
REMARK    5  A    between atoms: N_14  and  N_15
REMARK    6  A    between atoms: C_16  and  C_17
REMARK                            x       y       z     vdW  Elec       q    Type
REMARK                         _______ _______ _______ _____ _____    ______ ____
ROOT
ATOM      1  C   UNL     1      38.357   4.932  16.889  0.00  0.00    +0.000 A 
ATOM      2  C   UNL     1      37.904   5.567  15.751  0.00  0.00    +0.000 A 
ATOM      3  C   UNL     1      36.901   5.039  14.962  0.00  0.00    +0.000 A 
ATOM      4  C   UNL     1      36.351   3.833  15.348  0.00  0.00    +0.000 A 
ATOM      5  C   UNL     1      35.356   3.307  14.568  0.00  0.00    +0.000 A 
ATOM      6  C   UNL     1      34.802   2.103  14.950  0.00  0.00    +0.000 A 
ATOM      7  C   UNL     1      35.229   1.428  16.089  0.00  0.00    +0.000 A 
ATOM      8  C   UNL     1      36.232   1.973  16.863  0.00  0.00    +0.000 A 
ATOM      9  C   UNL     1      36.801   3.182  16.496  0.00  0.00    +0.000 A 
ATOM     10  N   UNL     1      37.781   3.763  17.210  0.00  0.00    +0.000 NA
ENDROOT
BRANCH   1  14
ATOM     11  C   UNL     1      41.515   6.699  19.171  0.00  0.00    +0.000 A 
ATOM     12  C   UNL     1      40.325   6.344  19.791  0.00  0.00    +0.000 A 
ATOM     13  C   UNL     1      39.313   5.773  19.043  0.00  0.00    +0.000 A 
ATOM     14  C   UNL     1      39.427   5.537  17.693  0.00  0.00    +0.000 A 
ATOM     15  C   UNL     1      40.633   5.916  17.147  0.00  0.00    +0.000 A 
ATOM     16  C   UNL     1      41.660   6.487  17.874  0.00  0.00    +0.000 A 
BRANCH  11  17
ATOM     17  C   UNL     1      42.620   7.345  20.099  0.00  0.00    +0.000 C 
ATOM     18  C   UNL     1      43.907   6.936  19.193  0.00  0.00    +0.000 C 
BRANCH  17  20
ATOM     19  C   UNL     1      43.720   6.512  22.198  0.00  0.00    +0.000 C 
ATOM     20  C   UNL     1      42.796   6.047  21.089  0.00  0.00    +0.000 C 
ENDBRANCH  17  20
ENDBRANCH  11  17
ENDBRANCH   1  14
BRANCH   3  21
ATOM     21  C   UNL     1      36.445   5.732  13.765  0.00  0.00    +0.000 C 
ATOM     22  O   UNL     1      37.175   5.713  12.742  0.00  0.00    +0.000 OA
ATOM     23  N   UNL     1      35.221   6.434  13.672  0.00  0.00    +0.000 NA
BRANCH  23  24
ATOM     24  N   UNL     1      34.783   7.100  12.528  0.00  0.00    +0.000 NA
ATOM     25  C   UNL     1      34.717   8.381  12.513  0.00  0.00    +0.000 C 
BRANCH  25  26
ATOM     26  C   UNL     1      35.104   9.151  13.702  0.00  0.00    +0.000 A 
ATOM     27  S   UNL     1      34.135   9.708  14.985  0.00  0.00    +0.000 S 
ATOM     28  C   UNL     1      35.331  10.489  15.920  0.00  0.00    +0.000 A 
ATOM     29  C   UNL     1      36.461  10.284  15.187  0.00  0.00    +0.000 A 
ATOM     30  C   UNL     1      36.355   9.598  14.046  0.00  0.00    +0.000 A 
ATOM     31  C   UNL     1      37.567   9.326  13.170  0.00  0.00    +0.000 C 
ENDBRANCH  25  26
ENDBRANCH  23  24
ENDBRANCH   3  21
TORSDOF 6
ENDMDL
MODEL 5
REMARK VINA RESULT:      -8.0      3.861      9.268
REMARK  Name = 
REMARK  6 active torsions:
REMARK  status: ('A' for Active; 'I' for Inactive)
REMARK    1  A    between atoms: C_2  and  C_3
REMARK    2  A    between atoms: C_3  and  C_5
REMARK    3  A    between atoms: C_8  and  C_9
REMARK    4  A    between atoms: C_11  and  C_12
REMARK    5  A    between atoms: N_14  and  N_15
REMARK    6  A    between atoms: C_16  and  C_17
REMARK                            x       y       z     vdW  Elec       q    Type
REMARK                         _______ _______ _______ _____ _____    ______ ____
ROOT
ATOM      1  C   UNL     1      36.501   2.191  15.842  0.00  0.00    +0.000 A 
ATOM      2  C   UNL     1      36.023   2.968  14.808  0.00  0.00    +0.000 A 
ATOM      3  C   UNL     1      36.365   4.299  14.665  0.00  0.00    +0.000 A 
ATOM      4  C   UNL     1      37.218   4.844  15.604  0.00  0.00    +0.000 A 
ATOM      5  C   UNL     1      37.560   6.163  15.464  0.00  0.00    +0.000 A 
ATOM      6  C   UNL     1      38.412   6.713  16.399  0.00  0.00    +0.000 A 
ATOM      7  C   UNL     1      38.919   5.967  17.458  0.00  0.00    +0.000 A 
ATOM      8  C   UNL     1      38.563   4.640  17.583  0.00  0.00    +0.000 A 
ATOM      9  C   UNL     1      37.708   4.069  16.653  0.00  0.00    +0.000 A 
ATOM     10  N   UNL     1      37.326   2.781  16.722  0.00  0.00    +0.000 NA
ENDROOT
BRANCH   1  14
ATOM     11  C   UNL     1      35.394  -1.933  16.095  0.00  0.00    +0.000 A 
ATOM     12  C   UNL     1      34.826  -1.008  16.959  0.00  0.00    +0.000 A 
ATOM     13  C   UNL     1      35.191   0.322  16.866  0.00  0.00    +0.000 A 
ATOM     14  C   UNL     1      36.106   0.781  15.948  0.00  0.00    +0.000 A 
ATOM     15  C   UNL     1      36.626  -0.193  15.126  0.00  0.00    +0.000 A 
ATOM     16  C   UNL     1      36.277  -1.527  15.197  0.00  0.00    +0.000 A 
BRANCH  11  17
ATOM     17  C   UNL     1      34.920  -3.432  16.267  0.00  0.00    +0.000 C 
ATOM     18  C   UNL     1      36.384  -4.071  16.572  0.00  0.00    +0.000 C 
BRANCH  17  20
ATOM     19  C   UNL     1      33.738  -4.636  14.406  0.00  0.00    +0.000 C 
ATOM     20  C   UNL     1      34.988  -3.820  14.673  0.00  0.00    +0.000 C 
ENDBRANCH  17  20
ENDBRANCH  11  17
ENDBRANCH   1  14
BRANCH   3  21
ATOM     21  C   UNL     1      35.842   5.094  13.563  0.00  0.00    +0.000 C 
ATOM     22  O   UNL     1      36.446   5.069  12.460  0.00  0.00    +0.000 OA
ATOM     23  N   UNL     1      34.686   5.904  13.647  0.00  0.00    +0.000 NA
BRANCH  23  24
ATOM     24  N   UNL     1      34.184   6.668  12.595  0.00  0.00    +0.000 NA
ATOM     25  C   UNL     1      34.121   7.945  12.697  0.00  0.00    +0.000 C 
BRANCH  25  26
ATOM     26  C   UNL     1      34.579   8.607  13.925  0.00  0.00    +0.000 A 
ATOM     27  S   UNL     1      33.714   8.947  15.351  0.00  0.00    +0.000 S 
ATOM     28  C   UNL     1      34.948   9.708  16.251  0.00  0.00    +0.000 A 
ATOM     29  C   UNL     1      36.007   9.670  15.396  0.00  0.00    +0.000 A 
ATOM     30  C   UNL     1      35.827   9.106  14.197  0.00  0.00    +0.000 A 
ATOM     31  C   UNL     1      36.957   9.023  13.185  0.00  0.00    +0.000 C 
ENDBRANCH  25  26
ENDBRANCH  23  24
ENDBRANCH   3  21
TORSDOF 6
ENDMDL
MODEL 6
REMARK VINA RESULT:      -7.9      2.581      4.129
REMARK  Name = 
REMARK  6 active torsions:
REMARK  status: ('A' for Active; 'I' for Inactive)
REMARK    1  A    between atoms: C_2  and  C_3
REMARK    2  A    between atoms: C_3  and  C_5
REMARK    3  A    between atoms: C_8  and  C_9
REMARK    4  A    between atoms: C_11  and  C_12
REMARK    5  A    between atoms: N_14  and  N_15
REMARK    6  A    between atoms: C_16  and  C_17
REMARK                            x       y       z     vdW  Elec       q    Type
REMARK                         _______ _______ _______ _____ _____    ______ ____
ROOT
ATOM      1  C   UNL     1      37.845   3.797  16.697  0.00  0.00    +0.000 A 
ATOM      2  C   UNL     1      38.262   3.473  15.423  0.00  0.00    +0.000 A 
ATOM      3  C   UNL     1      37.817   2.344  14.765  0.00  0.00    +0.000 A 
ATOM      4  C   UNL     1      36.925   1.527  15.430  0.00  0.00    +0.000 A 
ATOM      5  C   UNL     1      36.482   0.405  14.779  0.00  0.00    +0.000 A 
ATOM      6  C   UNL     1      35.589  -0.414  15.438  0.00  0.00    +0.000 A 
ATOM      7  C   UNL     1      35.142  -0.128  16.724  0.00  0.00    +0.000 A 
ATOM      8  C   UNL     1      35.599   1.006  17.363  0.00  0.00    +0.000 A 
ATOM      9  C   UNL     1      36.495   1.842  16.717  0.00  0.00    +0.000 A 
ATOM     10  N   UNL     1      36.976   2.961  17.288  0.00  0.00    +0.000 NA
ENDROOT
BRANCH   1  14
ATOM     11  C   UNL     1      39.291   7.373  18.545  0.00  0.00    +0.000 A 
ATOM     12  C   UNL     1      39.415   6.155  19.199  0.00  0.00    +0.000 A 
ATOM     13  C   UNL     1      38.945   5.007  18.591  0.00  0.00    +0.000 A 
ATOM     14  C   UNL     1      38.349   5.011  17.351  0.00  0.00    +0.000 A 
ATOM     15  C   UNL     1      38.260   6.254  16.765  0.00  0.00    +0.000 A 
ATOM     16  C   UNL     1      38.724   7.415  17.352  0.00  0.00    +0.000 A 
BRANCH  11  17
ATOM     17  C   UNL     1      39.856   8.637  19.310  0.00  0.00    +0.000 C 
ATOM     18  C   UNL     1      41.154   7.911  19.967  0.00  0.00    +0.000 C 
BRANCH  17  20
ATOM     19  C   UNL     1      37.801   9.417  20.527  0.00  0.00    +0.000 C 
ATOM     20  C   UNL     1      38.951   8.437  20.666  0.00  0.00    +0.000 C 
ENDBRANCH  17  20
ENDBRANCH  11  17
ENDBRANCH   1  14
BRANCH   3  21
ATOM     21  C   UNL     1      38.278   2.028  13.419  0.00  0.00    +0.000 C 
ATOM     22  O   UNL     1      37.567   2.374  12.442  0.00  0.00    +0.000 OA
ATOM     23  N   UNL     1      39.486   1.352  13.132  0.00  0.00    +0.000 NA
BRANCH  23  24
ATOM     24  N   UNL     1      39.928   1.047  11.846  0.00  0.00    +0.000 NA
ATOM     25  C   UNL     1      40.562  -0.045  11.623  0.00  0.00    +0.000 C 
BRANCH  25  26
ATOM     26  C   UNL     1      40.825  -0.980  12.725  0.00  0.00    +0.000 A 
ATOM     27  S   UNL     1      39.900  -2.306  13.257  0.00  0.00    +0.000 S 
ATOM     28  C   UNL     1      40.885  -2.835  14.546  0.00  0.00    +0.000 A 
ATOM     29  C   UNL     1      41.916  -1.946  14.517  0.00  0.00    +0.000 A 
ATOM     30  C   UNL     1      41.894  -0.988  13.585  0.00  0.00    +0.000 A 
ATOM     31  C   UNL     1      43.006   0.043  13.484  0.00  0.00    +0.000 C 
ENDBRANCH  25  26
ENDBRANCH  23  24
ENDBRANCH   3  21
TORSDOF 6
ENDMDL
MODEL 7
REMARK VINA RESULT:      -7.7      3.437      8.851
REMARK  Name = 
REMARK  6 active torsions:
REMARK  status: ('A' for Active; 'I' for Inactive)
REMARK    1  A    between atoms: C_2  and  C_3
REMARK    2  A    between atoms: C_3  and  C_5
REMARK    3  A    between atoms: C_8  and  C_9
REMARK    4  A    between atoms: C_11  and  C_12
REMARK    5  A    between atoms: N_14  and  N_15
REMARK    6  A    between atoms: C_16  and  C_17
REMARK                            x       y       z     vdW  Elec       q    Type
REMARK                         _______ _______ _______ _____ _____    ______ ____
ROOT
ATOM      1  C   UNL     1      36.384   2.686  15.629  0.00  0.00    +0.000 A 
ATOM      2  C   UNL     1      37.356   3.270  16.414  0.00  0.00    +0.000 A 
ATOM      3  C   UNL     1      37.748   4.583  16.248  0.00  0.00    +0.000 A 
ATOM      4  C   UNL     1      37.130   5.314  15.254  0.00  0.00    +0.000 A 
ATOM      5  C   UNL     1      37.517   6.618  15.087  0.00  0.00    +0.000 A 
ATOM      6  C   UNL     1      36.901   7.354  14.096  0.00  0.00    +0.000 A 
ATOM      7  C   UNL     1      35.916   6.806  13.280  0.00  0.00    +0.000 A 
ATOM      8  C   UNL     1      35.540   5.491  13.462  0.00  0.00    +0.000 A 
ATOM      9  C   UNL     1      36.146   4.736  14.454  0.00  0.00    +0.000 A 
ATOM     10  N   UNL     1      35.822   3.451  14.679  0.00  0.00    +0.000 NA
ENDROOT
BRANCH   1  14
ATOM     11  C   UNL     1      35.233  -1.376  16.321  0.00  0.00    +0.000 A 
ATOM     12  C   UNL     1      36.131  -1.072  15.307  0.00  0.00    +0.000 A 
ATOM     13  C   UNL     1      36.495   0.244  15.094  0.00  0.00    +0.000 A 
ATOM     14  C   UNL     1      36.004   1.284  15.847  0.00  0.00    +0.000 A 
ATOM     15  C   UNL     1      35.120   0.907  16.833  0.00  0.00    +0.000 A 
ATOM     16  C   UNL     1      34.741  -0.401  17.066  0.00  0.00    +0.000 A 
BRANCH  11  17
ATOM     17  C   UNL     1      34.871  -2.905  16.498  0.00  0.00    +0.000 C 
ATOM     18  C   UNL     1      36.322  -3.394  17.044  0.00  0.00    +0.000 C 
BRANCH  17  20
ATOM     19  C   UNL     1      34.163  -4.382  14.593  0.00  0.00    +0.000 C 
ATOM     20  C   UNL     1      35.209  -3.342  14.952  0.00  0.00    +0.000 C 
ENDBRANCH  17  20
ENDBRANCH  11  17
ENDBRANCH   1  14
BRANCH   3  21
ATOM     21  C   UNL     1      38.780   5.171  17.092  0.00  0.00    +0.000 C 
ATOM     22  O   UNL     1      39.933   5.325  16.616  0.00  0.00    +0.000 OA
ATOM     23  N   UNL     1      38.571   5.586  18.428  0.00  0.00    +0.000 NA
BRANCH  23  24
ATOM     24  N   UNL     1      39.557   6.146  19.239  0.00  0.00    +0.000 NA
ATOM     25  C   UNL     1      39.578   7.411  19.448  0.00  0.00    +0.000 C 
BRANCH  25  26
ATOM     26  C   UNL     1      38.562   8.275  18.833  0.00  0.00    +0.000 A 
ATOM     27  S   UNL     1      37.007   8.677  19.397  0.00  0.00    +0.000 S 
ATOM     28  C   UNL     1      36.503   9.696  18.124  0.00  0.00    +0.000 A 
ATOM     29  C   UNL     1      37.582   9.688  17.292  0.00  0.00    +0.000 A 
ATOM     30  C   UNL     1      38.644   8.960  17.648  0.00  0.00    +0.000 A 
ATOM     31  C   UNL     1      39.888   8.897  16.776  0.00  0.00    +0.000 C 
ENDBRANCH  25  26
ENDBRANCH  23  24
ENDBRANCH   3  21
TORSDOF 6
ENDMDL
MODEL 8
REMARK VINA RESULT:      -7.7      3.696      8.512
REMARK  Name = 
REMARK  6 active torsions:
REMARK  status: ('A' for Active; 'I' for Inactive)
REMARK    1  A    between atoms: C_2  and  C_3
REMARK    2  A    between atoms: C_3  and  C_5
REMARK    3  A    between atoms: C_8  and  C_9
REMARK    4  A    between atoms: C_11  and  C_12
REMARK    5  A    between atoms: N_14  and  N_15
REMARK    6  A    between atoms: C_16  and  C_17
REMARK                            x       y       z     vdW  Elec       q    Type
REMARK                         _______ _______ _______ _____ _____    ______ ____
ROOT
ATOM      1  C   UNL     1      35.968   3.817  15.042  0.00  0.00    +0.000 A 
ATOM      2  C   UNL     1      37.195   4.431  15.179  0.00  0.00    +0.000 A 
ATOM      3  C   UNL     1      37.406   5.749  14.824  0.00  0.00    +0.000 A 
ATOM      4  C   UNL     1      36.333   6.453  14.316  0.00  0.00    +0.000 A 
ATOM      5  C   UNL     1      36.538   7.761  13.964  0.00  0.00    +0.000 A 
ATOM      6  C   UNL     1      35.469   8.470  13.458  0.00  0.00    +0.000 A 
ATOM      7  C   UNL     1      34.213   7.892  13.301  0.00  0.00    +0.000 A 
ATOM      8  C   UNL     1      34.025   6.574  13.662  0.00  0.00    +0.000 A 
ATOM      9  C   UNL     1      35.087   5.845  14.174  0.00  0.00    +0.000 A 
ATOM     10  N   UNL     1      34.965   4.558  14.543  0.00  0.00    +0.000 NA
ENDROOT
BRANCH   1  14
ATOM     11  C   UNL     1      35.433  -0.253  16.246  0.00  0.00    +0.000 A 
ATOM     12  C   UNL     1      36.180   0.044  15.114  0.00  0.00    +0.000 A 
ATOM     13  C   UNL     1      36.346   1.363  14.737  0.00  0.00    +0.000 A 
ATOM     14  C   UNL     1      35.798   2.413  15.436  0.00  0.00    +0.000 A 
ATOM     15  C   UNL     1      35.072   2.042  16.545  0.00  0.00    +0.000 A 
ATOM     16  C   UNL     1      34.892   0.732  16.944  0.00  0.00    +0.000 A 
BRANCH  11  17
ATOM     17  C   UNL     1      35.293  -1.785  16.608  0.00  0.00    +0.000 C 
ATOM     18  C   UNL     1      33.859  -1.683  17.366  0.00  0.00    +0.000 C 
BRANCH  17  20
ATOM     19  C   UNL     1      37.523  -2.230  17.676  0.00  0.00    +0.000 C 
ATOM     20  C   UNL     1      36.139  -1.709  18.013  0.00  0.00    +0.000 C 
ENDBRANCH  17  20
ENDBRANCH  11  17
ENDBRANCH   1  14
BRANCH   3  21
ATOM     21  C   UNL     1      38.715   6.368  14.978  0.00  0.00    +0.000 C 
ATOM     22  O   UNL     1      39.468   6.447  13.974  0.00  0.00    +0.000 OA
ATOM     23  N   UNL     1      39.206   6.894  16.195  0.00  0.00    +0.000 NA
BRANCH  23  24
ATOM     24  N   UNL     1      40.459   7.485  16.347  0.00  0.00    +0.000 NA
ATOM     25  C   UNL     1      40.731   8.161  17.402  0.00  0.00    +0.000 C 
BRANCH  25  26
ATOM     26  C   UNL     1      39.720   8.315  18.456  0.00  0.00    +0.000 A 
ATOM     27  S   UNL     1      38.452   9.444  18.574  0.00  0.00    +0.000 S 
ATOM     28  C   UNL     1      37.772   8.947  20.058  0.00  0.00    +0.000 A 
ATOM     29  C   UNL     1      38.569   7.901  20.415  0.00  0.00    +0.000 A 
ATOM     30  C   UNL     1      39.573   7.570  19.598  0.00  0.00    +0.000 A 
ATOM     31  C   UNL     1      40.509   6.416  19.922  0.00  0.00    +0.000 C 
ENDBRANCH  25  26
ENDBRANCH  23  24
ENDBRANCH   3  21
TORSDOF 6
ENDMDL
MODEL 9
REMARK VINA RESULT:      -7.5      5.248      7.743
REMARK  Name = 
REMARK  6 active torsions:
REMARK  status: ('A' for Active; 'I' for Inactive)
REMARK    1  A    between atoms: C_2  and  C_3
REMARK    2  A    between atoms: C_3  and  C_5
REMARK    3  A    between atoms: C_8  and  C_9
REMARK    4  A    between atoms: C_11  and  C_12
REMARK    5  A    between atoms: N_14  and  N_15
REMARK    6  A    between atoms: C_16  and  C_17
REMARK                            x       y       z     vdW  Elec       q    Type
REMARK                         _______ _______ _______ _____ _____    ______ ____
ROOT
ATOM      1  C   UNL     1      38.617   0.282  11.550  0.00  0.00    +0.000 A 
ATOM      2  C   UNL     1      37.802   0.366  12.660  0.00  0.00    +0.000 A 
ATOM      3  C   UNL     1      38.079  -0.310  13.832  0.00  0.00    +0.000 A 
ATOM      4  C   UNL     1      39.218  -1.089  13.866  0.00  0.00    +0.000 A 
ATOM      5  C   UNL     1      39.496  -1.760  15.028  0.00  0.00    +0.000 A 
ATOM      6  C   UNL     1      40.633  -2.540  15.069  0.00  0.00    +0.000 A 
ATOM      7  C   UNL     1      41.483  -2.655  13.973  0.00  0.00    +0.000 A 
ATOM      8  C   UNL     1      41.187  -1.972  12.812  0.00  0.00    +0.000 A 
ATOM      9  C   UNL     1      40.049  -1.183  12.752  0.00  0.00    +0.000 A 
ATOM     10  N   UNL     1      39.709  -0.494  11.648  0.00  0.00    +0.000 NA
ENDROOT
BRANCH   1  14
ATOM     11  C   UNL     1      37.554   2.441   8.014  0.00  0.00    +0.000 A 
ATOM     12  C   UNL     1      38.854   1.988   8.185  0.00  0.00    +0.000 A 
ATOM     13  C   UNL     1      39.184   1.290   9.332  0.00  0.00    +0.000 A 
ATOM     14  C   UNL     1      38.276   1.021  10.328  0.00  0.00    +0.000 A 
ATOM     15  C   UNL     1      37.007   1.502  10.088  0.00  0.00    +0.000 A 
ATOM     16  C   UNL     1      36.652   2.200   8.951  0.00  0.00    +0.000 A 
BRANCH  11  17
ATOM     17  C   UNL     1      37.260   3.229   6.674  0.00  0.00    +0.000 C 
ATOM     18  C   UNL     1      35.667   3.448   6.915  0.00  0.00    +0.000 C 
BRANCH  17  20
ATOM     19  C   UNL     1      35.684   2.119   5.063  0.00  0.00    +0.000 C 
ATOM     20  C   UNL     1      37.025   1.901   5.740  0.00  0.00    +0.000 C 
ENDBRANCH  17  20
ENDBRANCH  11  17
ENDBRANCH   1  14
BRANCH   3  21
ATOM     21  C   UNL     1      37.198  -0.202  14.987  0.00  0.00    +0.000 C 
ATOM     22  O   UNL     1      37.379   0.741  15.798  0.00  0.00    +0.000 OA
ATOM     23  N   UNL     1      36.138  -1.096  15.263  0.00  0.00    +0.000 NA
BRANCH  23  24
ATOM     24  N   UNL     1      35.295  -0.996  16.368  0.00  0.00    +0.000 NA
ATOM     25  C   UNL     1      35.382  -1.846  17.325  0.00  0.00    +0.000 C 
BRANCH  25  26
ATOM     26  C   UNL     1      36.372  -2.928  17.258  0.00  0.00    +0.000 A 
ATOM     27  S   UNL     1      36.301  -4.403  16.412  0.00  0.00    +0.000 S 
ATOM     28  C   UNL     1      37.813  -5.055  16.858  0.00  0.00    +0.000 A 
ATOM     29  C   UNL     1      38.329  -4.086  17.664  0.00  0.00    +0.000 A 
ATOM     30  C   UNL     1      37.596  -2.989  17.876  0.00  0.00    +0.000 A 
ATOM     31  C   UNL     1      38.098  -1.861  18.762  0.00  0.00    +0.000 C 
ENDBRANCH  25  26
ENDBRANCH  23  24
ENDBRANCH   3  21
TORSDOF 6
ENDMDL
MODEL 10
REMARK VINA RESULT:      -7.4      5.043      8.949
REMARK  Name = 
REMARK  6 active torsions:
REMARK  status: ('A' for Active; 'I' for Inactive)
REMARK    1  A    between atoms: C_2  and  C_3
REMARK    2  A    between atoms: C_3  and  C_5
REMARK    3  A    between atoms: C_8  and  C_9
REMARK    4  A    between atoms: C_11  and  C_12
REMARK    5  A    between atoms: N_14  and  N_15
REMARK    6  A    between atoms: C_16  and  C_17
REMARK                            x       y       z     vdW  Elec       q    Type
REMARK                         _______ _______ _______ _____ _____    ______ ____
ROOT
ATOM      1  C   UNL     1      35.876   3.370  14.251  0.00  0.00    +0.000 A 
ATOM      2  C   UNL     1      35.065   4.471  14.429  0.00  0.00    +0.000 A 
ATOM      3  C   UNL     1      35.140   5.583  13.614  0.00  0.00    +0.000 A 
ATOM      4  C   UNL     1      36.069   5.566  12.594  0.00  0.00    +0.000 A 
ATOM      5  C   UNL     1      36.146   6.668  11.783  0.00  0.00    +0.000 A 
ATOM      6  C   UNL     1      37.072   6.656  10.761  0.00  0.00    +0.000 A 
ATOM      7  C   UNL     1      37.911   5.568  10.544  0.00  0.00    +0.000 A 
ATOM      8  C   UNL     1      37.820   4.467  11.370  0.00  0.00    +0.000 A 
ATOM      9  C   UNL     1      36.895   4.460  12.403  0.00  0.00    +0.000 A 
ATOM     10  N   UNL     1      36.759   3.416  13.240  0.00  0.00    +0.000 NA
ENDROOT
BRANCH   1  14
ATOM     11  C   UNL     1      35.569  -0.040  16.816  0.00  0.00    +0.000 A 
ATOM     12  C   UNL     1      34.853   1.113  17.105  0.00  0.00    +0.000 A 
ATOM     13  C   UNL     1      34.960   2.208  16.268  0.00  0.00    +0.000 A 
ATOM     14  C   UNL     1      35.754   2.212  15.146  0.00  0.00    +0.000 A 
ATOM     15  C   UNL     1      36.434   1.035  14.924  0.00  0.00    +0.000 A 
ATOM     16  C   UNL     1      36.343  -0.072  15.744  0.00  0.00    +0.000 A 
BRANCH  11  17
ATOM     17  C   UNL     1      35.389  -1.245  17.823  0.00  0.00    +0.000 C 
ATOM     18  C   UNL     1      35.597  -0.394  19.193  0.00  0.00    +0.000 C 
BRANCH  17  20
ATOM     19  C   UNL     1      37.457  -1.575  19.211  0.00  0.00    +0.000 C 
ATOM     20  C   UNL     1      36.955  -1.736  17.788  0.00  0.00    +0.000 C 
ENDBRANCH  17  20
ENDBRANCH  11  17
ENDBRANCH   1  14
BRANCH   3  21
ATOM     21  C   UNL     1      34.270   6.732  13.830  0.00  0.00    +0.000 C 
ATOM     22  O   UNL     1      33.178   6.786  13.209  0.00  0.00    +0.000 OA
ATOM     23  N   UNL     1      34.572   7.804  14.700  0.00  0.00    +0.000 NA
BRANCH  23  24
ATOM     24  N   UNL     1      33.743   8.906  14.906  0.00  0.00    +0.000 NA
ATOM     25  C   UNL     1      34.075  10.058  14.452  0.00  0.00    +0.000 C 
BRANCH  25  26
ATOM     26  C   UNL     1      35.333  10.221  13.712  0.00  0.00    +0.000 A 
ATOM     27  S   UNL     1      36.887  10.593  14.298  0.00  0.00    +0.000 S 
ATOM     28  C   UNL     1      37.749  10.595  12.825  0.00  0.00    +0.000 A 
ATOM     29  C   UNL     1      36.780  10.300  11.914  0.00  0.00    +0.000 A 
ATOM     30  C   UNL     1      35.535  10.106  12.360  0.00  0.00    +0.000 A 
ATOM     31  C   UNL     1      34.397   9.774  11.409  0.00  0.00    +0.000 C 
ENDBRANCH  25  26
ENDBRANCH  23  24
ENDBRANCH   3  21
TORSDOF 6
ENDMDL
