MODEL 1
REMARK VINA RESULT:      -6.6      0.000      0.000
REMARK  Name = 
REMARK  4 active torsions:
REMARK  status: ('A' for Active; 'I' for Inactive)
REMARK    1  A    between atoms: C_5  and  S_6
REMARK    2  A    between atoms: S_6  and  C_7
REMARK    3  A    between atoms: C_7  and  C_8
REMARK    4  A    between atoms: N_10  and  C_11
REMARK                            x       y       z     vdW  Elec       q    Type
REMARK                         _______ _______ _______ _____ _____    ______ ____
ROOT
ATOM      1  C   UNL     1      16.473  11.613  36.225  0.00  0.00    +0.000 C 
ATOM      2  O   UNL     1      17.244  12.501  35.754  0.00  0.00    +0.000 OA
ATOM      3  N   UNL     1      15.236  11.407  35.583  0.00  0.00    +0.000 NA
ENDROOT
BRANCH   3   4
ATOM      4  C   UNL     1      14.851  12.168  34.434  0.00  0.00    +0.000 A 
ATOM      5  C   UNL     1      15.267  11.860  33.162  0.00  0.00    +0.000 A 
ATOM      6  C   UNL     1      14.871  12.613  32.082  0.00  0.00    +0.000 A 
ATOM      7  C   UNL     1      15.259  12.361  30.678  0.00  0.00    +0.000 C 
ATOM      8  C   UNL     1      14.030  13.705  32.310  0.00  0.00    +0.000 A 
ATOM      9  C   UNL     1      13.621  14.004  33.585  0.00  0.00    +0.000 A 
ATOM     10  C   UNL     1      14.026  13.242  34.647  0.00  0.00    +0.000 A 
ATOM     11  O   UNL     1      13.593  13.572  35.920  0.00  0.00    +0.000 OA
ENDBRANCH   3   4
BRANCH   1  12
ATOM     12  C   UNL     1      16.951  10.865  37.421  0.00  0.00    +0.000 C 
BRANCH  12  13
ATOM     13  S   UNL     1      18.190   9.631  36.929  0.00  0.00    +0.000 S 
BRANCH  13  18
ATOM     14  C   UNL     1      23.738  11.891  37.939  0.00  0.00    +0.000 C 
ATOM     15  C   UNL     1      22.372  11.349  37.708  0.00  0.00    +0.000 A 
ATOM     16  C   UNL     1      21.258  11.878  38.297  0.00  0.00    +0.000 A 
ATOM     17  C   UNL     1      20.013  11.316  38.030  0.00  0.00    +0.000 A 
ATOM     18  C   UNL     1      19.846  10.242  37.193  0.00  0.00    +0.000 A 
ATOM     19  C   UNL     1      20.971   9.707  36.600  0.00  0.00    +0.000 A 
ATOM     20  C   UNL     1      22.211  10.263  36.862  0.00  0.00    +0.000 A 
ENDBRANCH  13  18
ENDBRANCH  12  13
ENDBRANCH   1  12
TORSDOF 4
ENDMDL
MODEL 2
REMARK VINA RESULT:      -6.4      3.570      4.557
REMARK  Name = 
REMARK  4 active torsions:
REMARK  status: ('A' for Active; 'I' for Inactive)
REMARK    1  A    between atoms: C_5  and  S_6
REMARK    2  A    between atoms: S_6  and  C_7
REMARK    3  A    between atoms: C_7  and  C_8
REMARK    4  A    between atoms: N_10  and  C_11
REMARK                            x       y       z     vdW  Elec       q    Type
REMARK                         _______ _______ _______ _____ _____    ______ ____
ROOT
ATOM      1  C   UNL     1      17.820   9.887  36.335  0.00  0.00    +0.000 C 
ATOM      2  O   UNL     1      17.255   9.016  35.610  0.00  0.00    +0.000 OA
ATOM      3  N   UNL     1      17.514  11.241  36.097  0.00  0.00    +0.000 NA
ENDROOT
BRANCH   3   4
ATOM      4  C   UNL     1      16.594  11.633  35.074  0.00  0.00    +0.000 A 
ATOM      5  C   UNL     1      16.821  11.406  33.739  0.00  0.00    +0.000 A 
ATOM      6  C   UNL     1      15.909  11.792  32.786  0.00  0.00    +0.000 A 
ATOM      7  C   UNL     1      16.060  11.588  31.329  0.00  0.00    +0.000 C 
ATOM      8  C   UNL     1      14.740  12.426  33.209  0.00  0.00    +0.000 A 
ATOM      9  C   UNL     1      14.522  12.649  34.545  0.00  0.00    +0.000 A 
ATOM     10  C   UNL     1      15.442  12.256  35.479  0.00  0.00    +0.000 A 
ATOM     11  O   UNL     1      15.190  12.497  36.819  0.00  0.00    +0.000 OA
ENDBRANCH   3   4
BRANCH   1  12
ATOM     12  C   UNL     1      18.761   9.394  37.379  0.00  0.00    +0.000 C 
BRANCH  12  13
ATOM     13  S   UNL     1      18.144   9.830  39.030  0.00  0.00    +0.000 S 
BRANCH  13  18
ATOM     14  C   UNL     1      17.432   4.759  42.300  0.00  0.00    +0.000 C 
ATOM     15  C   UNL     1      17.626   5.994  41.493  0.00  0.00    +0.000 A 
ATOM     16  C   UNL     1      18.642   6.135  40.590  0.00  0.00    +0.000 A 
ATOM     17  C   UNL     1      18.757   7.322  39.872  0.00  0.00    +0.000 A 
ATOM     18  C   UNL     1      17.888   8.372  40.028  0.00  0.00    +0.000 A 
ATOM     19  C   UNL     1      16.863   8.231  40.941  0.00  0.00    +0.000 A 
ATOM     20  C   UNL     1      16.745   7.052  41.657  0.00  0.00    +0.000 A 
ENDBRANCH  13  18
ENDBRANCH  12  13
ENDBRANCH   1  12
TORSDOF 4
ENDMDL
MODEL 3
REMARK VINA RESULT:      -6.2     19.492     22.451
REMARK  Name = 
REMARK  4 active torsions:
REMARK  status: ('A' for Active; 'I' for Inactive)
REMARK    1  A    between atoms: C_5  and  S_6
REMARK    2  A    between atoms: S_6  and  C_7
REMARK    3  A    between atoms: C_7  and  C_8
REMARK    4  A    between atoms: N_10  and  C_11
REMARK                            x       y       z     vdW  Elec       q    Type
REMARK                         _______ _______ _______ _____ _____    ______ ____
ROOT
ATOM      1  C   UNL     1      32.683  -2.736  34.673  0.00  0.00    +0.000 C 
ATOM      2  O   UNL     1      31.606  -2.147  34.988  0.00  0.00    +0.000 OA
ATOM      3  N   UNL     1      33.853  -1.957  34.572  0.00  0.00    +0.000 NA
ENDROOT
BRANCH   3   4
ATOM      4  C   UNL     1      33.839  -0.548  34.817  0.00  0.00    +0.000 A 
ATOM      5  C   UNL     1      33.683   0.382  33.818  0.00  0.00    +0.000 A 
ATOM      6  C   UNL     1      33.670   1.728  34.095  0.00  0.00    +0.000 A 
ATOM      7  C   UNL     1      33.503   2.804  33.093  0.00  0.00    +0.000 C 
ATOM      8  C   UNL     1      33.819   2.132  35.423  0.00  0.00    +0.000 A 
ATOM      9  C   UNL     1      33.974   1.195  36.414  0.00  0.00    +0.000 A 
ATOM     10  C   UNL     1      33.985  -0.142  36.118  0.00  0.00    +0.000 A 
ATOM     11  O   UNL     1      34.143  -1.059  37.142  0.00  0.00    +0.000 OA
ENDBRANCH   3   4
BRANCH   1  12
ATOM     12  C   UNL     1      32.610  -4.204  34.439  0.00  0.00    +0.000 C 
BRANCH  12  13
ATOM     13  S   UNL     1      34.236  -4.835  33.930  0.00  0.00    +0.000 S 
BRANCH  13  18
ATOM     14  C   UNL     1      33.981  -6.462  28.082  0.00  0.00    +0.000 C 
ATOM     15  C   UNL     1      34.027  -6.051  29.511  0.00  0.00    +0.000 A 
ATOM     16  C   UNL     1      33.022  -5.343  30.108  0.00  0.00    +0.000 A 
ATOM     17  C   UNL     1      33.138  -4.995  31.451  0.00  0.00    +0.000 A 
ATOM     18  C   UNL     1      34.226  -5.332  32.216  0.00  0.00    +0.000 A 
ATOM     19  C   UNL     1      35.241  -6.046  31.613  0.00  0.00    +0.000 A 
ATOM     20  C   UNL     1      35.130  -6.394  30.277  0.00  0.00    +0.000 A 
ENDBRANCH  13  18
ENDBRANCH  12  13
ENDBRANCH   1  12
TORSDOF 4
ENDMDL
MODEL 4
REMARK VINA RESULT:      -6.2     20.078     22.896
REMARK  Name = 
REMARK  4 active torsions:
REMARK  status: ('A' for Active; 'I' for Inactive)
REMARK    1  A    between atoms: C_5  and  S_6
REMARK    2  A    between atoms: S_6  and  C_7
REMARK    3  A    between atoms: C_7  and  C_8
REMARK    4  A    between atoms: N_10  and  C_11
REMARK                            x       y       z     vdW  Elec       q    Type
REMARK                         _______ _______ _______ _____ _____    ______ ____
ROOT
ATOM      1  C   UNL     1      33.831  -5.034  33.811  0.00  0.00    +0.000 C 
ATOM      2  O   UNL     1      34.856  -5.699  33.474  0.00  0.00    +0.000 OA
ATOM      3  N   UNL     1      32.680  -5.147  33.007  0.00  0.00    +0.000 NA
ENDROOT
BRANCH   3   4
ATOM      4  C   UNL     1      32.655  -5.983  31.847  0.00  0.00    +0.000 A 
ATOM      5  C   UNL     1      33.131  -5.578  30.624  0.00  0.00    +0.000 A 
ATOM      6  C   UNL     1      33.094  -6.415  29.534  0.00  0.00    +0.000 A 
ATOM      7  C   UNL     1      33.584  -6.074  28.180  0.00  0.00    +0.000 C 
ATOM      8  C   UNL     1      32.558  -7.693  29.699  0.00  0.00    +0.000 A 
ATOM      9  C   UNL     1      32.085  -8.088  30.925  0.00  0.00    +0.000 A 
ATOM     10  C   UNL     1      32.131  -7.241  31.999  0.00  0.00    +0.000 A 
ATOM     11  O   UNL     1      31.646  -7.673  33.222  0.00  0.00    +0.000 OA
ENDBRANCH   3   4
BRANCH   1  12
ATOM     12  C   UNL     1      33.942  -4.191  35.034  0.00  0.00    +0.000 C 
BRANCH  12  13
ATOM     13  S   UNL     1      32.571  -3.002  35.095  0.00  0.00    +0.000 S 
BRANCH  13  18
ATOM     14  C   UNL     1      33.936   2.365  32.596  0.00  0.00    +0.000 C 
ATOM     15  C   UNL     1      33.590   1.061  33.223  0.00  0.00    +0.000 A 
ATOM     16  C   UNL     1      32.612   0.932  34.168  0.00  0.00    +0.000 A 
ATOM     17  C   UNL     1      32.345  -0.323  34.708  0.00  0.00    +0.000 A 
ATOM     18  C   UNL     1      33.027  -1.453  34.332  0.00  0.00    +0.000 A 
ATOM     19  C   UNL     1      34.015  -1.323  33.379  0.00  0.00    +0.000 A 
ATOM     20  C   UNL     1      34.283  -0.077  32.840  0.00  0.00    +0.000 A 
ENDBRANCH  13  18
ENDBRANCH  12  13
ENDBRANCH   1  12
TORSDOF 4
ENDMDL
MODEL 5
REMARK VINA RESULT:      -6.1     21.542     23.185
REMARK  Name = 
REMARK  4 active torsions:
REMARK  status: ('A' for Active; 'I' for Inactive)
REMARK    1  A    between atoms: C_5  and  S_6
REMARK    2  A    between atoms: S_6  and  C_7
REMARK    3  A    between atoms: C_7  and  C_8
REMARK    4  A    between atoms: N_10  and  C_11
REMARK                            x       y       z     vdW  Elec       q    Type
REMARK                         _______ _______ _______ _____ _____    ______ ____
ROOT
ATOM      1  C   UNL     1      17.540  -9.505  27.863  0.00  0.00    +0.000 C 
ATOM      2  O   UNL     1      18.324  -9.077  28.763  0.00  0.00    +0.000 OA
ATOM      3  N   UNL     1      17.527  -8.829  26.627  0.00  0.00    +0.000 NA
ENDROOT
BRANCH   3   4
ATOM      4  C   UNL     1      18.368  -7.698  26.382  0.00  0.00    +0.000 A 
ATOM      5  C   UNL     1      19.619  -7.804  25.825  0.00  0.00    +0.000 A 
ATOM      6  C   UNL     1      20.395  -6.692  25.600  0.00  0.00    +0.000 A 
ATOM      7  C   UNL     1      21.748  -6.702  25.003  0.00  0.00    +0.000 C 
ATOM      8  C   UNL     1      19.879  -5.444  25.951  0.00  0.00    +0.000 A 
ATOM      9  C   UNL     1      18.628  -5.348  26.507  0.00  0.00    +0.000 A 
ATOM     10  C   UNL     1      17.870  -6.467  26.724  0.00  0.00    +0.000 A 
ATOM     11  O   UNL     1      16.612  -6.334  27.286  0.00  0.00    +0.000 OA
ENDBRANCH   3   4
BRANCH   1  12
ATOM     12  C   UNL     1      16.702 -10.689  28.200  0.00  0.00    +0.000 C 
BRANCH  12  13
ATOM     13  S   UNL     1      15.726 -11.191  26.753  0.00  0.00    +0.000 S 
BRANCH  13  18
ATOM     14  C   UNL     1      10.040  -9.080  27.098  0.00  0.00    +0.000 C 
ATOM     15  C   UNL     1      11.435  -9.583  26.997  0.00  0.00    +0.000 A 
ATOM     16  C   UNL     1      12.385  -8.980  26.221  0.00  0.00    +0.000 A 
ATOM     17  C   UNL     1      13.671  -9.512  26.179  0.00  0.00    +0.000 A 
ATOM     18  C   UNL     1      14.038 -10.627  26.888  0.00  0.00    +0.000 A 
ATOM     19  C   UNL     1      13.079 -11.237  27.671  0.00  0.00    +0.000 A 
ATOM     20  C   UNL     1      11.799 -10.712  27.716  0.00  0.00    +0.000 A 
ENDBRANCH  13  18
ENDBRANCH  12  13
ENDBRANCH   1  12
TORSDOF 4
ENDMDL
MODEL 6
REMARK VINA RESULT:      -6.0      2.740      7.678
REMARK  Name = 
REMARK  4 active torsions:
REMARK  status: ('A' for Active; 'I' for Inactive)
REMARK    1  A    between atoms: C_5  and  S_6
REMARK    2  A    between atoms: S_6  and  C_7
REMARK    3  A    between atoms: C_7  and  C_8
REMARK    4  A    between atoms: N_10  and  C_11
REMARK                            x       y       z     vdW  Elec       q    Type
REMARK                         _______ _______ _______ _____ _____    ______ ____
ROOT
ATOM      1  C   UNL     1      19.669   9.928  37.208  0.00  0.00    +0.000 C 
ATOM      2  O   UNL     1      20.253   9.675  36.112  0.00  0.00    +0.000 OA
ATOM      3  N   UNL     1      20.374  10.675  38.173  0.00  0.00    +0.000 NA
ENDROOT
BRANCH   3   4
ATOM      4  C   UNL     1      21.705  11.141  37.935  0.00  0.00    +0.000 A 
ATOM      5  C   UNL     1      22.606  10.460  37.155  0.00  0.00    +0.000 A 
ATOM      6  C   UNL     1      23.875  10.945  36.945  0.00  0.00    +0.000 A 
ATOM      7  C   UNL     1      24.914  10.289  36.120  0.00  0.00    +0.000 C 
ATOM      8  C   UNL     1      24.229  12.154  37.546  0.00  0.00    +0.000 A 
ATOM      9  C   UNL     1      23.321  12.827  38.324  0.00  0.00    +0.000 A 
ATOM     10  C   UNL     1      22.061  12.328  38.521  0.00  0.00    +0.000 A 
ATOM     11  O   UNL     1      21.170  13.034  39.311  0.00  0.00    +0.000 OA
ENDBRANCH   3   4
BRANCH   1  12
ATOM     12  C   UNL     1      18.283   9.408  37.374  0.00  0.00    +0.000 C 
BRANCH  12  13
ATOM     13  S   UNL     1      17.080  10.731  37.056  0.00  0.00    +0.000 S 
BRANCH  13  18
ATOM     14  C   UNL     1      15.604  11.263  31.187  0.00  0.00    +0.000 C 
ATOM     15  C   UNL     1      15.953  11.150  32.628  0.00  0.00    +0.000 A 
ATOM     16  C   UNL     1      15.275  11.820  33.608  0.00  0.00    +0.000 A 
ATOM     17  C   UNL     1      15.661  11.661  34.936  0.00  0.00    +0.000 A 
ATOM     18  C   UNL     1      16.703  10.854  35.315  0.00  0.00    +0.000 A 
ATOM     19  C   UNL     1      17.388  10.178  34.327  0.00  0.00    +0.000 A 
ATOM     20  C   UNL     1      17.008  10.333  33.005  0.00  0.00    +0.000 A 
ENDBRANCH  13  18
ENDBRANCH  12  13
ENDBRANCH   1  12
TORSDOF 4
ENDMDL
MODEL 7
REMARK VINA RESULT:      -5.9     21.514     23.528
REMARK  Name = 
REMARK  4 active torsions:
REMARK  status: ('A' for Active; 'I' for Inactive)
REMARK    1  A    between atoms: C_5  and  S_6
REMARK    2  A    between atoms: S_6  and  C_7
REMARK    3  A    between atoms: C_7  and  C_8
REMARK    4  A    between atoms: N_10  and  C_11
REMARK                            x       y       z     vdW  Elec       q    Type
REMARK                         _______ _______ _______ _____ _____    ______ ____
ROOT
ATOM      1  C   UNL     1      15.881  -8.284  25.899  0.00  0.00    +0.000 C 
ATOM      2  O   UNL     1      16.085  -8.044  24.672  0.00  0.00    +0.000 OA
ATOM      3  N   UNL     1      16.923  -8.008  26.806  0.00  0.00    +0.000 NA
ENDROOT
BRANCH   3   4
ATOM      4  C   UNL     1      18.175  -7.470  26.369  0.00  0.00    +0.000 A 
ATOM      5  C   UNL     1      19.154  -8.236  25.786  0.00  0.00    +0.000 A 
ATOM      6  C   UNL     1      20.341  -7.680  25.374  0.00  0.00    +0.000 A 
ATOM      7  C   UNL     1      21.452  -8.418  24.734  0.00  0.00    +0.000 C 
ATOM      8  C   UNL     1      20.531  -6.310  25.563  0.00  0.00    +0.000 A 
ATOM      9  C   UNL     1      19.547  -5.553  26.146  0.00  0.00    +0.000 A 
ATOM     10  C   UNL     1      18.370  -6.125  26.550  0.00  0.00    +0.000 A 
ATOM     11  O   UNL     1      17.398  -5.331  27.134  0.00  0.00    +0.000 OA
ENDBRANCH   3   4
BRANCH   1  12
ATOM     12  C   UNL     1      14.550  -8.840  26.269  0.00  0.00    +0.000 C 
BRANCH  12  13
ATOM     13  S   UNL     1      13.457  -8.855  24.818  0.00  0.00    +0.000 S 
BRANCH  13  18
ATOM     14  C   UNL     1       7.696  -9.338  26.686  0.00  0.00    +0.000 C 
ATOM     15  C   UNL     1       9.113  -9.216  26.249  0.00  0.00    +0.000 A 
ATOM     16  C   UNL     1      10.157  -9.173  27.130  0.00  0.00    +0.000 A 
ATOM     17  C   UNL     1      11.456  -9.058  26.643  0.00  0.00    +0.000 A 
ATOM     18  C   UNL     1      11.744  -8.985  25.304  0.00  0.00    +0.000 A 
ATOM     19  C   UNL     1      10.691  -9.027  24.414  0.00  0.00    +0.000 A 
ATOM     20  C   UNL     1       9.397  -9.141  24.894  0.00  0.00    +0.000 A 
ENDBRANCH  13  18
ENDBRANCH  12  13
ENDBRANCH   1  12
TORSDOF 4
ENDMDL
MODEL 8
REMARK VINA RESULT:      -5.9     21.861     23.362
REMARK  Name = 
REMARK  4 active torsions:
REMARK  status: ('A' for Active; 'I' for Inactive)
REMARK    1  A    between atoms: C_5  and  S_6
REMARK    2  A    between atoms: S_6  and  C_7
REMARK    3  A    between atoms: C_7  and  C_8
REMARK    4  A    between atoms: N_10  and  C_11
REMARK                            x       y       z     vdW  Elec       q    Type
REMARK                         _______ _______ _______ _____ _____    ______ ____
ROOT
ATOM      1  C   UNL     1      16.688  -9.382  25.636  0.00  0.00    +0.000 C 
ATOM      2  O   UNL     1      16.651  -8.793  24.515  0.00  0.00    +0.000 OA
ATOM      3  N   UNL     1      17.591  -8.901  26.604  0.00  0.00    +0.000 NA
ENDROOT
BRANCH   3   4
ATOM      4  C   UNL     1      18.444  -7.782  26.343  0.00  0.00    +0.000 A 
ATOM      5  C   UNL     1      19.688  -7.908  25.777  0.00  0.00    +0.000 A 
ATOM      6  C   UNL     1      20.476  -6.807  25.536  0.00  0.00    +0.000 A 
ATOM      7  C   UNL     1      21.823  -6.838  24.928  0.00  0.00    +0.000 C 
ATOM      8  C   UNL     1      19.978  -5.550  25.884  0.00  0.00    +0.000 A 
ATOM      9  C   UNL     1      18.733  -5.435  26.449  0.00  0.00    +0.000 A 
ATOM     10  C   UNL     1      17.964  -6.543  26.680  0.00  0.00    +0.000 A 
ATOM     11  O   UNL     1      16.712  -6.390  27.252  0.00  0.00    +0.000 OA
ENDBRANCH   3   4
BRANCH   1  12
ATOM     12  C   UNL     1      15.765 -10.536  25.826  0.00  0.00    +0.000 C 
BRANCH  12  13
ATOM     13  S   UNL     1      14.042  -9.989  25.652  0.00  0.00    +0.000 S 
BRANCH  13  18
ATOM     14  C   UNL     1      10.710 -10.982  30.635  0.00  0.00    +0.000 C 
ATOM     15  C   UNL     1      11.509 -10.730  29.406  0.00  0.00    +0.000 A 
ATOM     16  C   UNL     1      11.093  -9.886  28.414  0.00  0.00    +0.000 A 
ATOM     17  C   UNL     1      11.897  -9.701  27.293  0.00  0.00    +0.000 A 
ATOM     18  C   UNL     1      13.105 -10.332  27.133  0.00  0.00    +0.000 A 
ATOM     19  C   UNL     1      13.525 -11.184  28.133  0.00  0.00    +0.000 A 
ATOM     20  C   UNL     1      12.728 -11.371  29.250  0.00  0.00    +0.000 A 
ENDBRANCH  13  18
ENDBRANCH  12  13
ENDBRANCH   1  12
TORSDOF 4
ENDMDL
MODEL 9
REMARK VINA RESULT:      -5.8     28.108     29.691
REMARK  Name = 
REMARK  4 active torsions:
REMARK  status: ('A' for Active; 'I' for Inactive)
REMARK    1  A    between atoms: C_5  and  S_6
REMARK    2  A    between atoms: S_6  and  C_7
REMARK    3  A    between atoms: C_7  and  C_8
REMARK    4  A    between atoms: N_10  and  C_11
REMARK                            x       y       z     vdW  Elec       q    Type
REMARK                         _______ _______ _______ _____ _____    ______ ____
ROOT
ATOM      1  C   UNL     1      35.870  20.300  11.641  0.00  0.00    +0.000 C 
ATOM      2  O   UNL     1      35.900  21.513  11.272  0.00  0.00    +0.000 OA
ATOM      3  N   UNL     1      34.624  19.645  11.646  0.00  0.00    +0.000 NA
ENDROOT
BRANCH   3   4
ATOM      4  C   UNL     1      33.423  20.313  11.247  0.00  0.00    +0.000 A 
ATOM      5  C   UNL     1      32.703  21.121  12.091  0.00  0.00    +0.000 A 
ATOM      6  C   UNL     1      31.557  21.751  11.668  0.00  0.00    +0.000 A 
ATOM      7  C   UNL     1      30.717  22.642  12.497  0.00  0.00    +0.000 C 
ATOM      8  C   UNL     1      31.139  21.548  10.352  0.00  0.00    +0.000 A 
ATOM      9  C   UNL     1      31.865  20.738   9.516  0.00  0.00    +0.000 A 
ATOM     10  C   UNL     1      33.005  20.120   9.956  0.00  0.00    +0.000 A 
ATOM     11  O   UNL     1      33.714  19.310   9.085  0.00  0.00    +0.000 OA
ENDBRANCH   3   4
BRANCH   1  12
ATOM     12  C   UNL     1      37.165  19.680  12.037  0.00  0.00    +0.000 C 
BRANCH  12  13
ATOM     13  S   UNL     1      37.476  19.964  13.804  0.00  0.00    +0.000 S 
BRANCH  13  18
ATOM     14  C   UNL     1      35.864  15.244  17.273  0.00  0.00    +0.000 C 
ATOM     15  C   UNL     1      36.270  16.407  16.440  0.00  0.00    +0.000 A 
ATOM     16  C   UNL     1      37.270  17.264  16.805  0.00  0.00    +0.000 A 
ATOM     17  C   UNL     1      37.594  18.331  15.971  0.00  0.00    +0.000 A 
ATOM     18  C   UNL     1      36.948  18.568  14.783  0.00  0.00    +0.000 A 
ATOM     19  C   UNL     1      35.938  17.703  14.415  0.00  0.00    +0.000 A 
ATOM     20  C   UNL     1      35.614  16.641  15.242  0.00  0.00    +0.000 A 
ENDBRANCH  13  18
ENDBRANCH  12  13
ENDBRANCH   1  12
TORSDOF 4
ENDMDL
MODEL 10
REMARK VINA RESULT:      -5.8     17.576     19.438
REMARK  Name = 
REMARK  4 active torsions:
REMARK  status: ('A' for Active; 'I' for Inactive)
REMARK    1  A    between atoms: C_5  and  S_6
REMARK    2  A    between atoms: S_6  and  C_7
REMARK    3  A    between atoms: C_7  and  C_8
REMARK    4  A    between atoms: N_10  and  C_11
REMARK                            x       y       z     vdW  Elec       q    Type
REMARK                         _______ _______ _______ _____ _____    ______ ____
ROOT
ATOM      1  C   UNL     1      27.077  23.580  26.388  0.00  0.00    +0.000 C 
ATOM      2  O   UNL     1      27.387  24.716  26.857  0.00  0.00    +0.000 OA
ATOM      3  N   UNL     1      27.613  22.440  27.018  0.00  0.00    +0.000 NA
ENDROOT
BRANCH   3   4
ATOM      4  C   UNL     1      28.477  22.547  28.153  0.00  0.00    +0.000 A 
ATOM      5  C   UNL     1      29.840  22.673  28.043  0.00  0.00    +0.000 A 
ATOM      6  C   UNL     1      30.637  22.779  29.159  0.00  0.00    +0.000 A 
ATOM      7  C   UNL     1      32.109  22.922  29.145  0.00  0.00    +0.000 C 
ATOM      8  C   UNL     1      30.025  22.755  30.413  0.00  0.00    +0.000 A 
ATOM      9  C   UNL     1      28.662  22.629  30.512  0.00  0.00    +0.000 A 
ATOM     10  C   UNL     1      27.886  22.525  29.389  0.00  0.00    +0.000 A 
ATOM     11  O   UNL     1      26.514  22.400  29.525  0.00  0.00    +0.000 OA
ENDBRANCH   3   4
BRANCH   1  12
ATOM     12  C   UNL     1      26.169  23.559  25.207  0.00  0.00    +0.000 C 
BRANCH  12  13
ATOM     13  S   UNL     1      27.143  23.584  23.674  0.00  0.00    +0.000 S 
BRANCH  13  18
ATOM     14  C   UNL     1      33.079  24.226  24.797  0.00  0.00    +0.000 C 
ATOM     15  C   UNL     1      31.623  24.090  24.524  0.00  0.00    +0.000 A 
ATOM     16  C   UNL     1      30.816  25.163  24.269  0.00  0.00    +0.000 A 
ATOM     17  C   UNL     1      29.462  24.955  24.022  0.00  0.00    +0.000 A 
ATOM     18  C   UNL     1      28.889  23.708  24.022  0.00  0.00    +0.000 A 
ATOM     19  C   UNL     1      29.704  22.625  24.281  0.00  0.00    +0.000 A 
ATOM     20  C   UNL     1      31.051  22.827  24.527  0.00  0.00    +0.000 A 
ENDBRANCH  13  18
ENDBRANCH  12  13
ENDBRANCH   1  12
TORSDOF 4
ENDMDL
