MODEL 1
REMARK VINA RESULT:      -7.6      0.000      0.000
REMARK  Name = 
REMARK  9 active torsions:
REMARK  status: ('A' for Active; 'I' for Inactive)
REMARK    1  A    between atoms: C_2  and  C_3
REMARK    2  A    between atoms: C_3  and  C_4
REMARK    3  A    between atoms: C_4  and  O_5
REMARK    4  A    between atoms: O_5  and  C_6
REMARK    5  A    between atoms: C_9  and  O_10
REMARK    6  A    between atoms: O_10  and  C_11
REMARK    7  A    between atoms: C_11  and  C_12
REMARK    8  A    between atoms: C_12  and  N_13
REMARK    9  A    between atoms: C_22  and  C_24
REMARK                            x       y       z     vdW  Elec       q    Type
REMARK                         _______ _______ _______ _____ _____    ______ ____
ROOT
ATOM      1  N   UNL     1      12.059   0.701  27.238  0.00  0.00    +0.000 N 
ATOM      2  C   UNL     1      11.610  -0.396  26.475  0.00  0.00    +0.000 C 
ATOM      3  O   UNL     1      12.115  -1.554  26.369  0.00  0.00    +0.000 OA
ATOM      4  C   UNL     1      10.391  -0.014  25.756  0.00  0.00    +0.000 A 
ATOM      5  C   UNL     1       9.565  -0.722  24.877  0.00  0.00    +0.000 A 
ATOM      6  C   UNL     1       8.459  -0.117  24.324  0.00  0.00    +0.000 A 
ATOM      7  C   UNL     1       8.222   1.190  24.682  0.00  0.00    +0.000 A 
ATOM      8  C   UNL     1       9.015   1.910  25.543  0.00  0.00    +0.000 A 
ATOM      9  C   UNL     1      10.141   1.285  26.102  0.00  0.00    +0.000 A 
ATOM     10  C   UNL     1      11.168   1.791  27.048  0.00  0.00    +0.000 C 
ATOM     11  O   UNL     1      11.770   2.876  26.389  0.00  0.00    +0.000 OA
ENDROOT
BRANCH  10  12
ATOM     12  C   UNL     1      10.525   2.248  28.313  0.00  0.00    +0.000 A 
ATOM     13  C   UNL     1      10.476   3.584  28.638  0.00  0.00    +0.000 A 
ATOM     14  C   UNL     1       9.883   4.030  29.806  0.00  0.00    +0.000 A 
ATOM     15  C   UNL     1       9.310   3.147  30.697  0.00  0.00    +0.000 A 
ATOM     16  C   UNL     1       9.352   1.807  30.382  0.00  0.00    +0.000 A 
ATOM     17  C   UNL     1       9.954   1.362  29.199  0.00  0.00    +0.000 A 
ENDBRANCH  10  12
BRANCH   1  18
ATOM     18  C   UNL     1      13.249   0.655  28.064  0.00  0.00    +0.000 C 
BRANCH  18  19
ATOM     19  C   UNL     1      14.472   1.054  27.291  0.00  0.00    +0.000 C 
BRANCH  19  20
ATOM     20  O   UNL     1      15.289  -0.078  27.087  0.00  0.00    +0.000 OA
BRANCH  20  24
ATOM     21  C   UNL     1      18.799   0.064  24.798  0.00  0.00    +0.000 A 
ATOM     22  C   UNL     1      18.265   1.208  25.351  0.00  0.00    +0.000 A 
ATOM     23  C   UNL     1      17.104   1.159  26.108  0.00  0.00    +0.000 A 
ATOM     24  C   UNL     1      16.451  -0.039  26.327  0.00  0.00    +0.000 A 
ATOM     25  C   UNL     1      16.977  -1.180  25.779  0.00  0.00    +0.000 A 
ATOM     26  C   UNL     1      18.132  -1.113  25.029  0.00  0.00    +0.000 A 
BRANCH  21  27
ATOM     27  O   UNL     1      19.966   0.107  24.036  0.00  0.00    +0.000 OA
BRANCH  27  28
ATOM     28  C   UNL     1      20.057   0.873  22.852  0.00  0.00    +0.000 C 
BRANCH  28  29
ATOM     29  C   UNL     1      20.370   0.056  21.629  0.00  0.00    +0.000 C 
BRANCH  29  31
ATOM     30  C   UNL     1      20.242  -2.433  21.939  0.00  0.00    +0.000 C 
ATOM     31  C   UNL     1      21.143  -1.202  21.981  0.00  0.00    +0.000 C 
ENDBRANCH  29  31
ENDBRANCH  28  29
ENDBRANCH  27  28
ENDBRANCH  21  27
ENDBRANCH  20  24
ENDBRANCH  19  20
ENDBRANCH  18  19
ENDBRANCH   1  18
TORSDOF 9
ENDMDL
MODEL 2
REMARK VINA RESULT:      -7.4     24.113     26.769
REMARK  Name = 
REMARK  9 active torsions:
REMARK  status: ('A' for Active; 'I' for Inactive)
REMARK    1  A    between atoms: C_2  and  C_3
REMARK    2  A    between atoms: C_3  and  C_4
REMARK    3  A    between atoms: C_4  and  O_5
REMARK    4  A    between atoms: O_5  and  C_6
REMARK    5  A    between atoms: C_9  and  O_10
REMARK    6  A    between atoms: O_10  and  C_11
REMARK    7  A    between atoms: C_11  and  C_12
REMARK    8  A    between atoms: C_12  and  N_13
REMARK    9  A    between atoms: C_22  and  C_24
REMARK                            x       y       z     vdW  Elec       q    Type
REMARK                         _______ _______ _______ _____ _____    ______ ____
ROOT
ATOM      1  N   UNL     1      38.077  -2.917  15.945  0.00  0.00    +0.000 N 
ATOM      2  C   UNL     1      37.891  -4.204  16.491  0.00  0.00    +0.000 C 
ATOM      3  O   UNL     1      38.663  -4.872  17.243  0.00  0.00    +0.000 OA
ATOM      4  C   UNL     1      36.595  -4.728  16.051  0.00  0.00    +0.000 A 
ATOM      5  C   UNL     1      35.943  -5.941  16.302  0.00  0.00    +0.000 A 
ATOM      6  C   UNL     1      34.706  -6.191  15.753  0.00  0.00    +0.000 A 
ATOM      7  C   UNL     1      34.165  -5.202  14.964  0.00  0.00    +0.000 A 
ATOM      8  C   UNL     1      34.780  -4.003  14.700  0.00  0.00    +0.000 A 
ATOM      9  C   UNL     1      36.042  -3.755  15.264  0.00  0.00    +0.000 A 
ATOM     10  C   UNL     1      36.940  -2.576  15.167  0.00  0.00    +0.000 C 
ATOM     11  O   UNL     1      37.236  -2.453  13.798  0.00  0.00    +0.000 OA
ENDROOT
BRANCH  10  12
ATOM     12  C   UNL     1      36.241  -1.353  15.655  0.00  0.00    +0.000 A 
ATOM     13  C   UNL     1      36.336  -0.164  14.970  0.00  0.00    +0.000 A 
ATOM     14  C   UNL     1      35.695   0.983  15.405  0.00  0.00    +0.000 A 
ATOM     15  C   UNL     1      34.928   0.979  16.551  0.00  0.00    +0.000 A 
ATOM     16  C   UNL     1      34.824  -0.206  17.245  0.00  0.00    +0.000 A 
ATOM     17  C   UNL     1      35.476  -1.362  16.800  0.00  0.00    +0.000 A 
ENDBRANCH  10  12
BRANCH   1  18
ATOM     18  C   UNL     1      39.266  -2.123  16.184  0.00  0.00    +0.000 C 
BRANCH  18  19
ATOM     19  C   UNL     1      40.313  -2.370  15.138  0.00  0.00    +0.000 C 
BRANCH  19  20
ATOM     20  O   UNL     1      40.849  -1.137  14.710  0.00  0.00    +0.000 OA
BRANCH  20  24
ATOM     21  C   UNL     1      38.608   1.666  12.540  0.00  0.00    +0.000 A 
ATOM     22  C   UNL     1      38.891   0.424  12.015  0.00  0.00    +0.000 A 
ATOM     23  C   UNL     1      39.632  -0.502  12.734  0.00  0.00    +0.000 A 
ATOM     24  C   UNL     1      40.108  -0.202  13.998  0.00  0.00    +0.000 A 
ATOM     25  C   UNL     1      39.829   1.032  14.525  0.00  0.00    +0.000 A 
ATOM     26  C   UNL     1      39.091   1.940  13.796  0.00  0.00    +0.000 A 
BRANCH  21  27
ATOM     27  O   UNL     1      37.863   2.601  11.822  0.00  0.00    +0.000 OA
BRANCH  27  28
ATOM     28  C   UNL     1      38.012   3.991  12.029  0.00  0.00    +0.000 C 
BRANCH  28  29
ATOM     29  C   UNL     1      36.728   4.688  12.383  0.00  0.00    +0.000 C 
BRANCH  29  31
ATOM     30  C   UNL     1      35.216   4.465  14.376  0.00  0.00    +0.000 C 
ATOM     31  C   UNL     1      36.597   4.887  13.882  0.00  0.00    +0.000 C 
ENDBRANCH  29  31
ENDBRANCH  28  29
ENDBRANCH  27  28
ENDBRANCH  21  27
ENDBRANCH  20  24
ENDBRANCH  19  20
ENDBRANCH  18  19
ENDBRANCH   1  18
TORSDOF 9
ENDMDL
MODEL 3
REMARK VINA RESULT:      -7.4     24.068     26.914
REMARK  Name = 
REMARK  9 active torsions:
REMARK  status: ('A' for Active; 'I' for Inactive)
REMARK    1  A    between atoms: C_2  and  C_3
REMARK    2  A    between atoms: C_3  and  C_4
REMARK    3  A    between atoms: C_4  and  O_5
REMARK    4  A    between atoms: O_5  and  C_6
REMARK    5  A    between atoms: C_9  and  O_10
REMARK    6  A    between atoms: O_10  and  C_11
REMARK    7  A    between atoms: C_11  and  C_12
REMARK    8  A    between atoms: C_12  and  N_13
REMARK    9  A    between atoms: C_22  and  C_24
REMARK                            x       y       z     vdW  Elec       q    Type
REMARK                         _______ _______ _______ _____ _____    ______ ____
ROOT
ATOM      1  N   UNL     1      37.813  -3.363  16.029  0.00  0.00    +0.000 N 
ATOM      2  C   UNL     1      37.466  -4.639  16.518  0.00  0.00    +0.000 C 
ATOM      3  O   UNL     1      38.114  -5.398  17.299  0.00  0.00    +0.000 OA
ATOM      4  C   UNL     1      36.161  -5.023  15.971  0.00  0.00    +0.000 A 
ATOM      5  C   UNL     1      35.380  -6.172  16.137  0.00  0.00    +0.000 A 
ATOM      6  C   UNL     1      34.168  -6.287  15.495  0.00  0.00    +0.000 A 
ATOM      7  C   UNL     1      33.782  -5.230  14.703  0.00  0.00    +0.000 A 
ATOM      8  C   UNL     1      34.527  -4.089  14.523  0.00  0.00    +0.000 A 
ATOM      9  C   UNL     1      35.762  -3.981  15.181  0.00  0.00    +0.000 A 
ATOM     10  C   UNL     1      36.773  -2.892  15.185  0.00  0.00    +0.000 C 
ATOM     11  O   UNL     1      37.177  -2.764  13.845  0.00  0.00    +0.000 OA
ENDROOT
BRANCH  10  12
ATOM     12  C   UNL     1      36.160  -1.621  15.663  0.00  0.00    +0.000 A 
ATOM     13  C   UNL     1      35.384  -1.593  16.799  0.00  0.00    +0.000 A 
ATOM     14  C   UNL     1      34.807  -0.423  17.261  0.00  0.00    +0.000 A 
ATOM     15  C   UNL     1      34.990   0.772  16.598  0.00  0.00    +0.000 A 
ATOM     16  C   UNL     1      35.765   0.758  15.460  0.00  0.00    +0.000 A 
ATOM     17  C   UNL     1      36.345  -0.429  14.997  0.00  0.00    +0.000 A 
ENDBRANCH  10  12
BRANCH   1  18
ATOM     18  C   UNL     1      39.052  -2.695  16.376  0.00  0.00    +0.000 C 
BRANCH  18  19
ATOM     19  C   UNL     1      40.140  -3.006  15.392  0.00  0.00    +0.000 C 
BRANCH  19  20
ATOM     20  O   UNL     1      40.762  -1.807  14.983  0.00  0.00    +0.000 OA
BRANCH  20  24
ATOM     21  C   UNL     1      38.925   0.955  12.418  0.00  0.00    +0.000 A 
ATOM     22  C   UNL     1      39.319   1.318  13.687  0.00  0.00    +0.000 A 
ATOM     23  C   UNL     1      39.926   0.404  14.535  0.00  0.00    +0.000 A 
ATOM     24  C   UNL     1      40.152  -0.899  14.128  0.00  0.00    +0.000 A 
ATOM     25  C   UNL     1      39.762  -1.265  12.865  0.00  0.00    +0.000 A 
ATOM     26  C   UNL     1      39.160  -0.343  12.037  0.00  0.00    +0.000 A 
BRANCH  21  27
ATOM     27  O   UNL     1      38.315   1.870  11.561  0.00  0.00    +0.000 OA
BRANCH  27  28
ATOM     28  C   UNL     1      38.259   1.663  10.164  0.00  0.00    +0.000 C 
BRANCH  28  29
ATOM     29  C   UNL     1      36.863   1.687   9.606  0.00  0.00    +0.000 C 
BRANCH  29  31
ATOM     30  C   UNL     1      36.617   2.669   7.308  0.00  0.00    +0.000 C 
ATOM     31  C   UNL     1      36.853   1.396   8.117  0.00  0.00    +0.000 C 
ENDBRANCH  29  31
ENDBRANCH  28  29
ENDBRANCH  27  28
ENDBRANCH  21  27
ENDBRANCH  20  24
ENDBRANCH  19  20
ENDBRANCH  18  19
ENDBRANCH   1  18
TORSDOF 9
ENDMDL
MODEL 4
REMARK VINA RESULT:      -7.3     25.373     28.329
REMARK  Name = 
REMARK  9 active torsions:
REMARK  status: ('A' for Active; 'I' for Inactive)
REMARK    1  A    between atoms: C_2  and  C_3
REMARK    2  A    between atoms: C_3  and  C_4
REMARK    3  A    between atoms: C_4  and  O_5
REMARK    4  A    between atoms: O_5  and  C_6
REMARK    5  A    between atoms: C_9  and  O_10
REMARK    6  A    between atoms: O_10  and  C_11
REMARK    7  A    between atoms: C_11  and  C_12
REMARK    8  A    between atoms: C_12  and  N_13
REMARK    9  A    between atoms: C_22  and  C_24
REMARK                            x       y       z     vdW  Elec       q    Type
REMARK                         _______ _______ _______ _____ _____    ______ ____
ROOT
ATOM      1  N   UNL     1      37.314   0.908  15.477  0.00  0.00    +0.000 N 
ATOM      2  C   UNL     1      37.259  -0.337  16.136  0.00  0.00    +0.000 C 
ATOM      3  O   UNL     1      36.391  -0.771  16.951  0.00  0.00    +0.000 OA
ATOM      4  C   UNL     1      38.419  -1.140  15.739  0.00  0.00    +0.000 A 
ATOM      5  C   UNL     1      38.832  -2.427  16.101  0.00  0.00    +0.000 A 
ATOM      6  C   UNL     1      39.988  -2.959  15.576  0.00  0.00    +0.000 A 
ATOM      7  C   UNL     1      40.692  -2.169  14.696  0.00  0.00    +0.000 A 
ATOM      8  C   UNL     1      40.311  -0.903  14.322  0.00  0.00    +0.000 A 
ATOM      9  C   UNL     1      39.130  -0.368  14.862  0.00  0.00    +0.000 A 
ATOM     10  C   UNL     1      38.470   0.945  14.653  0.00  0.00    +0.000 C 
ATOM     11  O   UNL     1      39.409   1.900  15.079  0.00  0.00    +0.000 OA
ENDROOT
BRANCH  10  12
ATOM     12  C   UNL     1      38.154   1.141  13.210  0.00  0.00    +0.000 A 
ATOM     13  C   UNL     1      38.814   2.091  12.464  0.00  0.00    +0.000 A 
ATOM     14  C   UNL     1      38.537   2.288  11.122  0.00  0.00    +0.000 A 
ATOM     15  C   UNL     1      37.583   1.533  10.473  0.00  0.00    +0.000 A 
ATOM     16  C   UNL     1      36.916   0.578  11.208  0.00  0.00    +0.000 A 
ATOM     17  C   UNL     1      37.200   0.384  12.565  0.00  0.00    +0.000 A 
ENDBRANCH  10  12
BRANCH   1  18
ATOM     18  C   UNL     1      36.313   1.941  15.657  0.00  0.00    +0.000 C 
BRANCH  18  19
ATOM     19  C   UNL     1      36.684   2.880  16.767  0.00  0.00    +0.000 C 
BRANCH  19  20
ATOM     20  O   UNL     1      37.244   4.055  16.221  0.00  0.00    +0.000 OA
BRANCH  20  24
ATOM     21  C   UNL     1      40.456   6.092  17.984  0.00  0.00    +0.000 A 
ATOM     22  C   UNL     1      40.346   5.992  16.615  0.00  0.00    +0.000 A 
ATOM     23  C   UNL     1      39.282   5.318  16.033  0.00  0.00    +0.000 A 
ATOM     24  C   UNL     1      38.305   4.727  16.813  0.00  0.00    +0.000 A 
ATOM     25  C   UNL     1      38.411   4.824  18.176  0.00  0.00    +0.000 A 
ATOM     26  C   UNL     1      39.474   5.497  18.738  0.00  0.00    +0.000 A 
BRANCH  21  27
ATOM     27  O   UNL     1      41.523   6.769  18.575  0.00  0.00    +0.000 OA
BRANCH  27  28
ATOM     28  C   UNL     1      41.530   7.095  19.950  0.00  0.00    +0.000 C 
BRANCH  28  29
ATOM     29  C   UNL     1      42.257   6.094  20.804  0.00  0.00    +0.000 C 
BRANCH  29  31
ATOM     30  C   UNL     1      44.416   5.511  21.947  0.00  0.00    +0.000 C 
ATOM     31  C   UNL     1      43.656   6.569  21.152  0.00  0.00    +0.000 C 
ENDBRANCH  29  31
ENDBRANCH  28  29
ENDBRANCH  27  28
ENDBRANCH  21  27
ENDBRANCH  20  24
ENDBRANCH  19  20
ENDBRANCH  18  19
ENDBRANCH   1  18
TORSDOF 9
ENDMDL
MODEL 5
REMARK VINA RESULT:      -7.3     23.577     27.533
REMARK  Name = 
REMARK  9 active torsions:
REMARK  status: ('A' for Active; 'I' for Inactive)
REMARK    1  A    between atoms: C_2  and  C_3
REMARK    2  A    between atoms: C_3  and  C_4
REMARK    3  A    between atoms: C_4  and  O_5
REMARK    4  A    between atoms: O_5  and  C_6
REMARK    5  A    between atoms: C_9  and  O_10
REMARK    6  A    between atoms: O_10  and  C_11
REMARK    7  A    between atoms: C_11  and  C_12
REMARK    8  A    between atoms: C_12  and  N_13
REMARK    9  A    between atoms: C_22  and  C_24
REMARK                            x       y       z     vdW  Elec       q    Type
REMARK                         _______ _______ _______ _____ _____    ______ ____
ROOT
ATOM      1  N   UNL     1      36.395   2.966  14.860  0.00  0.00    +0.000 N 
ATOM      2  C   UNL     1      35.240   2.556  15.557  0.00  0.00    +0.000 C 
ATOM      3  O   UNL     1      34.154   3.183  15.740  0.00  0.00    +0.000 OA
ATOM      4  C   UNL     1      35.457   1.208  16.091  0.00  0.00    +0.000 A 
ATOM      5  C   UNL     1      34.639   0.361  16.848  0.00  0.00    +0.000 A 
ATOM      6  C   UNL     1      35.093  -0.880  17.233  0.00  0.00    +0.000 A 
ATOM      7  C   UNL     1      36.365  -1.226  16.838  0.00  0.00    +0.000 A 
ATOM      8  C   UNL     1      37.189  -0.416  16.095  0.00  0.00    +0.000 A 
ATOM      9  C   UNL     1      36.718   0.848  15.706  0.00  0.00    +0.000 A 
ATOM     10  C   UNL     1      37.362   1.927  14.914  0.00  0.00    +0.000 C 
ATOM     11  O   UNL     1      38.506   2.288  15.647  0.00  0.00    +0.000 OA
ENDROOT
BRANCH  10  12
ATOM     12  C   UNL     1      37.750   1.418  13.568  0.00  0.00    +0.000 A 
ATOM     13  C   UNL     1      36.796   1.007  12.666  0.00  0.00    +0.000 A 
ATOM     14  C   UNL     1      37.135   0.532  11.411  0.00  0.00    +0.000 A 
ATOM     15  C   UNL     1      38.452   0.454  11.010  0.00  0.00    +0.000 A 
ATOM     16  C   UNL     1      39.416   0.863  11.904  0.00  0.00    +0.000 A 
ATOM     17  C   UNL     1      39.067   1.342  13.173  0.00  0.00    +0.000 A 
ENDBRANCH  10  12
BRANCH   1  18
ATOM     18  C   UNL     1      36.510   4.259  14.213  0.00  0.00    +0.000 C 
BRANCH  18  19
ATOM     19  C   UNL     1      36.921   5.326  15.184  0.00  0.00    +0.000 C 
BRANCH  19  20
ATOM     20  O   UNL     1      38.330   5.379  15.255  0.00  0.00    +0.000 OA
BRANCH  20  24
ATOM     21  C   UNL     1      40.378   6.050  18.851  0.00  0.00    +0.000 A 
ATOM     22  C   UNL     1      39.134   5.458  18.843  0.00  0.00    +0.000 A 
ATOM     23  C   UNL     1      38.458   5.237  17.653  0.00  0.00    +0.000 A 
ATOM     24  C   UNL     1      39.015   5.606  16.442  0.00  0.00    +0.000 A 
ATOM     25  C   UNL     1      40.253   6.195  16.445  0.00  0.00    +0.000 A 
ATOM     26  C   UNL     1      40.910   6.407  17.637  0.00  0.00    +0.000 A 
BRANCH  21  27
ATOM     27  O   UNL     1      41.063   6.275  20.045  0.00  0.00    +0.000 OA
BRANCH  27  28
ATOM     28  C   UNL     1      41.806   7.456  20.268  0.00  0.00    +0.000 C 
BRANCH  28  29
ATOM     29  C   UNL     1      43.231   7.204  20.676  0.00  0.00    +0.000 C 
BRANCH  29  31
ATOM     30  C   UNL     1      44.253   6.092  22.683  0.00  0.00    +0.000 C 
ATOM     31  C   UNL     1      43.368   5.908  21.454  0.00  0.00    +0.000 C 
ENDBRANCH  29  31
ENDBRANCH  28  29
ENDBRANCH  27  28
ENDBRANCH  21  27
ENDBRANCH  20  24
ENDBRANCH  19  20
ENDBRANCH  18  19
ENDBRANCH   1  18
TORSDOF 9
ENDMDL
MODEL 6
REMARK VINA RESULT:      -7.3     24.645     27.953
REMARK  Name = 
REMARK  9 active torsions:
REMARK  status: ('A' for Active; 'I' for Inactive)
REMARK    1  A    between atoms: C_2  and  C_3
REMARK    2  A    between atoms: C_3  and  C_4
REMARK    3  A    between atoms: C_4  and  O_5
REMARK    4  A    between atoms: O_5  and  C_6
REMARK    5  A    between atoms: C_9  and  O_10
REMARK    6  A    between atoms: O_10  and  C_11
REMARK    7  A    between atoms: C_11  and  C_12
REMARK    8  A    between atoms: C_12  and  N_13
REMARK    9  A    between atoms: C_22  and  C_24
REMARK                            x       y       z     vdW  Elec       q    Type
REMARK                         _______ _______ _______ _____ _____    ______ ____
ROOT
ATOM      1  N   UNL     1      38.124   0.721  14.298  0.00  0.00    +0.000 N 
ATOM      2  C   UNL     1      39.502   1.020  14.304  0.00  0.00    +0.000 C 
ATOM      3  O   UNL     1      40.074   2.151  14.271  0.00  0.00    +0.000 OA
ATOM      4  C   UNL     1      40.264  -0.231  14.357  0.00  0.00    +0.000 A 
ATOM      5  C   UNL     1      41.639  -0.487  14.379  0.00  0.00    +0.000 A 
ATOM      6  C   UNL     1      42.104  -1.782  14.426  0.00  0.00    +0.000 A 
ATOM      7  C   UNL     1      41.157  -2.781  14.450  0.00  0.00    +0.000 A 
ATOM      8  C   UNL     1      39.802  -2.560  14.430  0.00  0.00    +0.000 A 
ATOM      9  C   UNL     1      39.336  -1.236  14.382  0.00  0.00    +0.000 A 
ATOM     10  C   UNL     1      37.957  -0.688  14.352  0.00  0.00    +0.000 C 
ATOM     11  O   UNL     1      37.379  -1.211  13.182  0.00  0.00    +0.000 OA
ENDROOT
BRANCH  10  12
ATOM     12  C   UNL     1      37.195  -1.141  15.550  0.00  0.00    +0.000 A 
ATOM     13  C   UNL     1      35.904  -1.603  15.434  0.00  0.00    +0.000 A 
ATOM     14  C   UNL     1      35.179  -2.030  16.534  0.00  0.00    +0.000 A 
ATOM     15  C   UNL     1      35.727  -2.010  17.799  0.00  0.00    +0.000 A 
ATOM     16  C   UNL     1      37.018  -1.550  17.928  0.00  0.00    +0.000 A 
ATOM     17  C   UNL     1      37.746  -1.119  16.813  0.00  0.00    +0.000 A 
ENDBRANCH  10  12
BRANCH   1  18
ATOM     18  C   UNL     1      37.095   1.741  14.244  0.00  0.00    +0.000 C 
BRANCH  18  19
ATOM     19  C   UNL     1      36.979   2.475  15.548  0.00  0.00    +0.000 C 
BRANCH  19  20
ATOM     20  O   UNL     1      37.361   3.821  15.365  0.00  0.00    +0.000 OA
BRANCH  20  24
ATOM     21  C   UNL     1      39.998   5.785  17.967  0.00  0.00    +0.000 A 
ATOM     22  C   UNL     1      38.966   5.012  18.453  0.00  0.00    +0.000 A 
ATOM     23  C   UNL     1      38.094   4.363  17.591  0.00  0.00    +0.000 A 
ATOM     24  C   UNL     1      38.239   4.475  16.220  0.00  0.00    +0.000 A 
ATOM     25  C   UNL     1      39.265   5.243  15.732  0.00  0.00    +0.000 A 
ATOM     26  C   UNL     1      40.121   5.881  16.603  0.00  0.00    +0.000 A 
BRANCH  21  27
ATOM     27  O   UNL     1      40.878   6.439  18.829  0.00  0.00    +0.000 OA
BRANCH  27  28
ATOM     28  C   UNL     1      40.522   6.755  20.160  0.00  0.00    +0.000 C 
BRANCH  28  29
ATOM     29  C   UNL     1      39.277   7.591  20.269  0.00  0.00    +0.000 C 
BRANCH  29  31
ATOM     30  C   UNL     1      38.552   9.833  21.138  0.00  0.00    +0.000 C 
ATOM     31  C   UNL     1      39.603   9.072  20.334  0.00  0.00    +0.000 C 
ENDBRANCH  29  31
ENDBRANCH  28  29
ENDBRANCH  27  28
ENDBRANCH  21  27
ENDBRANCH  20  24
ENDBRANCH  19  20
ENDBRANCH  18  19
ENDBRANCH   1  18
TORSDOF 9
ENDMDL
MODEL 7
REMARK VINA RESULT:      -7.2     23.797     26.664
REMARK  Name = 
REMARK  9 active torsions:
REMARK  status: ('A' for Active; 'I' for Inactive)
REMARK    1  A    between atoms: C_2  and  C_3
REMARK    2  A    between atoms: C_3  and  C_4
REMARK    3  A    between atoms: C_4  and  O_5
REMARK    4  A    between atoms: O_5  and  C_6
REMARK    5  A    between atoms: C_9  and  O_10
REMARK    6  A    between atoms: O_10  and  C_11
REMARK    7  A    between atoms: C_11  and  C_12
REMARK    8  A    between atoms: C_12  and  N_13
REMARK    9  A    between atoms: C_22  and  C_24
REMARK                            x       y       z     vdW  Elec       q    Type
REMARK                         _______ _______ _______ _____ _____    ______ ____
ROOT
ATOM      1  N   UNL     1      36.146  -0.345  16.728  0.00  0.00    +0.000 N 
ATOM      2  C   UNL     1      35.028  -1.204  16.744  0.00  0.00    +0.000 C 
ATOM      3  O   UNL     1      33.889  -1.021  17.268  0.00  0.00    +0.000 OA
ATOM      4  C   UNL     1      35.362  -2.438  16.027  0.00  0.00    +0.000 A 
ATOM      5  C   UNL     1      34.620  -3.594  15.762  0.00  0.00    +0.000 A 
ATOM      6  C   UNL     1      35.182  -4.633  15.055  0.00  0.00    +0.000 A 
ATOM      7  C   UNL     1      36.482  -4.468  14.636  0.00  0.00    +0.000 A 
ATOM      8  C   UNL     1      37.234  -3.345  14.881  0.00  0.00    +0.000 A 
ATOM      9  C   UNL     1      36.654  -2.290  15.603  0.00  0.00    +0.000 A 
ATOM     10  C   UNL     1      37.202  -0.973  16.016  0.00  0.00    +0.000 C 
ATOM     11  O   UNL     1      38.304  -1.275  16.834  0.00  0.00    +0.000 OA
ENDROOT
BRANCH  10  12
ATOM     12  C   UNL     1      37.643  -0.200  14.821  0.00  0.00    +0.000 A 
ATOM     13  C   UNL     1      38.943   0.238  14.702  0.00  0.00    +0.000 A 
ATOM     14  C   UNL     1      39.374   0.956  13.600  0.00  0.00    +0.000 A 
ATOM     15  C   UNL     1      38.512   1.263  12.568  0.00  0.00    +0.000 A 
ATOM     16  C   UNL     1      37.209   0.831  12.675  0.00  0.00    +0.000 A 
ATOM     17  C   UNL     1      36.779   0.105  13.792  0.00  0.00    +0.000 A 
ENDBRANCH  10  12
BRANCH   1  18
ATOM     18  C   UNL     1      36.148   0.961  17.358  0.00  0.00    +0.000 C 
BRANCH  18  19
ATOM     19  C   UNL     1      35.273   1.930  16.619  0.00  0.00    +0.000 C 
BRANCH  19  20
ATOM     20  O   UNL     1      35.898   3.195  16.586  0.00  0.00    +0.000 OA
BRANCH  20  24
ATOM     21  C   UNL     1      37.817   4.698  13.174  0.00  0.00    +0.000 A 
ATOM     22  C   UNL     1      38.525   4.429  14.325  0.00  0.00    +0.000 A 
ATOM     23  C   UNL     1      37.888   3.931  15.453  0.00  0.00    +0.000 A 
ATOM     24  C   UNL     1      36.526   3.694  15.451  0.00  0.00    +0.000 A 
ATOM     25  C   UNL     1      35.818   3.960  14.308  0.00  0.00    +0.000 A 
ATOM     26  C   UNL     1      36.466   4.453  13.197  0.00  0.00    +0.000 A 
BRANCH  21  27
ATOM     27  O   UNL     1      38.452   5.197  12.036  0.00  0.00    +0.000 OA
BRANCH  27  28
ATOM     28  C   UNL     1      37.845   5.147  10.761  0.00  0.00    +0.000 C 
BRANCH  28  29
ATOM     29  C   UNL     1      38.169   3.899   9.989  0.00  0.00    +0.000 C 
BRANCH  29  31
ATOM     30  C   UNL     1      37.250   1.756   9.056  0.00  0.00    +0.000 C 
ATOM     31  C   UNL     1      36.913   3.141   9.600  0.00  0.00    +0.000 C 
ENDBRANCH  29  31
ENDBRANCH  28  29
ENDBRANCH  27  28
ENDBRANCH  21  27
ENDBRANCH  20  24
ENDBRANCH  19  20
ENDBRANCH  18  19
ENDBRANCH   1  18
TORSDOF 9
ENDMDL
MODEL 8
REMARK VINA RESULT:      -7.1     25.382     28.539
REMARK  Name = 
REMARK  9 active torsions:
REMARK  status: ('A' for Active; 'I' for Inactive)
REMARK    1  A    between atoms: C_2  and  C_3
REMARK    2  A    between atoms: C_3  and  C_4
REMARK    3  A    between atoms: C_4  and  O_5
REMARK    4  A    between atoms: O_5  and  C_6
REMARK    5  A    between atoms: C_9  and  O_10
REMARK    6  A    between atoms: O_10  and  C_11
REMARK    7  A    between atoms: C_11  and  C_12
REMARK    8  A    between atoms: C_12  and  N_13
REMARK    9  A    between atoms: C_22  and  C_24
REMARK                            x       y       z     vdW  Elec       q    Type
REMARK                         _______ _______ _______ _____ _____    ______ ____
ROOT
ATOM      1  N   UNL     1      36.949   2.465  15.311  0.00  0.00    +0.000 N 
ATOM      2  C   UNL     1      37.112   2.868  16.652  0.00  0.00    +0.000 C 
ATOM      3  O   UNL     1      36.528   2.437  17.692  0.00  0.00    +0.000 OA
ATOM      4  C   UNL     1      38.116   3.934  16.714  0.00  0.00    +0.000 A 
ATOM      5  C   UNL     1      38.633   4.669  17.786  0.00  0.00    +0.000 A 
ATOM      6  C   UNL     1      39.587   5.638  17.568  0.00  0.00    +0.000 A 
ATOM      7  C   UNL     1      39.989   5.832  16.267  0.00  0.00    +0.000 A 
ATOM      8  C   UNL     1      39.499   5.126  15.195  0.00  0.00    +0.000 A 
ATOM      9  C   UNL     1      38.527   4.139  15.426  0.00  0.00    +0.000 A 
ATOM     10  C   UNL     1      37.822   3.227  14.490  0.00  0.00    +0.000 C 
ATOM     11  O   UNL     1      37.132   4.072  13.604  0.00  0.00    +0.000 OA
ENDROOT
BRANCH  10  12
ATOM     12  C   UNL     1      38.805   2.391  13.745  0.00  0.00    +0.000 A 
ATOM     13  C   UNL     1      38.699   2.218  12.384  0.00  0.00    +0.000 A 
ATOM     14  C   UNL     1      39.601   1.447  11.673  0.00  0.00    +0.000 A 
ATOM     15  C   UNL     1      40.653   0.817  12.304  0.00  0.00    +0.000 A 
ATOM     16  C   UNL     1      40.770   0.982  13.666  0.00  0.00    +0.000 A 
ATOM     17  C   UNL     1      39.854   1.763  14.380  0.00  0.00    +0.000 A 
ENDBRANCH  10  12
BRANCH   1  18
ATOM     18  C   UNL     1      36.022   1.427  14.905  0.00  0.00    +0.000 C 
BRANCH  18  19
ATOM     19  C   UNL     1      36.282   0.140  15.631  0.00  0.00    +0.000 C 
BRANCH  19  20
ATOM     20  O   UNL     1      36.497  -0.892  14.693  0.00  0.00    +0.000 OA
BRANCH  20  24
ATOM     21  C   UNL     1      40.272  -2.604  14.055  0.00  0.00    +0.000 A 
ATOM     22  C   UNL     1      39.888  -2.179  15.308  0.00  0.00    +0.000 A 
ATOM     23  C   UNL     1      38.639  -1.613  15.518  0.00  0.00    +0.000 A 
ATOM     24  C   UNL     1      37.746  -1.459  14.473  0.00  0.00    +0.000 A 
ATOM     25  C   UNL     1      38.123  -1.881  13.224  0.00  0.00    +0.000 A 
ATOM     26  C   UNL     1      39.368  -2.441  13.034  0.00  0.00    +0.000 A 
BRANCH  21  27
ATOM     27  O   UNL     1      41.526  -3.175  13.839  0.00  0.00    +0.000 OA
BRANCH  27  28
ATOM     28  C   UNL     1      42.273  -2.912  12.668  0.00  0.00    +0.000 C 
BRANCH  28  29
ATOM     29  C   UNL     1      43.257  -1.786  12.822  0.00  0.00    +0.000 C 
BRANCH  29  31
ATOM     30  C   UNL     1      43.961  -0.358  14.765  0.00  0.00    +0.000 C 
ATOM     31  C   UNL     1      43.882  -1.775  14.206  0.00  0.00    +0.000 C 
ENDBRANCH  29  31
ENDBRANCH  28  29
ENDBRANCH  27  28
ENDBRANCH  21  27
ENDBRANCH  20  24
ENDBRANCH  19  20
ENDBRANCH  18  19
ENDBRANCH   1  18
TORSDOF 9
ENDMDL
MODEL 9
REMARK VINA RESULT:      -7.0     24.932     29.022
REMARK  Name = 
REMARK  9 active torsions:
REMARK  status: ('A' for Active; 'I' for Inactive)
REMARK    1  A    between atoms: C_2  and  C_3
REMARK    2  A    between atoms: C_3  and  C_4
REMARK    3  A    between atoms: C_4  and  O_5
REMARK    4  A    between atoms: O_5  and  C_6
REMARK    5  A    between atoms: C_9  and  O_10
REMARK    6  A    between atoms: O_10  and  C_11
REMARK    7  A    between atoms: C_11  and  C_12
REMARK    8  A    between atoms: C_12  and  N_13
REMARK    9  A    between atoms: C_22  and  C_24
REMARK                            x       y       z     vdW  Elec       q    Type
REMARK                         _______ _______ _______ _____ _____    ______ ____
ROOT
ATOM      1  N   UNL     1      38.240  -2.445  14.888  0.00  0.00    +0.000 N 
ATOM      2  C   UNL     1      38.829  -2.941  16.069  0.00  0.00    +0.000 C 
ATOM      3  O   UNL     1      39.745  -3.808  16.201  0.00  0.00    +0.000 OA
ATOM      4  C   UNL     1      38.208  -2.288  17.226  0.00  0.00    +0.000 A 
ATOM      5  C   UNL     1      38.424  -2.423  18.601  0.00  0.00    +0.000 A 
ATOM      6  C   UNL     1      37.689  -1.679  19.496  0.00  0.00    +0.000 A 
ATOM      7  C   UNL     1      36.755  -0.818  18.967  0.00  0.00    +0.000 A 
ATOM      8  C   UNL     1      36.522  -0.664  17.622  0.00  0.00    +0.000 A 
ATOM      9  C   UNL     1      37.276  -1.427  16.717  0.00  0.00    +0.000 A 
ATOM     10  C   UNL     1      37.256  -1.480  15.233  0.00  0.00    +0.000 C 
ATOM     11  O   UNL     1      35.954  -1.889  14.898  0.00  0.00    +0.000 OA
ENDROOT
BRANCH  10  12
ATOM     12  C   UNL     1      37.535  -0.131  14.664  0.00  0.00    +0.000 A 
ATOM     13  C   UNL     1      36.619   0.497  13.852  0.00  0.00    +0.000 A 
ATOM     14  C   UNL     1      36.858   1.750  13.314  0.00  0.00    +0.000 A 
ATOM     15  C   UNL     1      38.032   2.426  13.574  0.00  0.00    +0.000 A 
ATOM     16  C   UNL     1      38.956   1.808  14.386  0.00  0.00    +0.000 A 
ATOM     17  C   UNL     1      38.709   0.540  14.927  0.00  0.00    +0.000 A 
ENDBRANCH  10  12
BRANCH   1  18
ATOM     18  C   UNL     1      38.626  -2.892  13.565  0.00  0.00    +0.000 C 
BRANCH  18  19
ATOM     19  C   UNL     1      40.116  -2.886  13.394  0.00  0.00    +0.000 C 
BRANCH  19  20
ATOM     20  O   UNL     1      40.550  -1.576  13.099  0.00  0.00    +0.000 OA
BRANCH  20  24
ATOM     21  C   UNL     1      44.198  -0.050  14.494  0.00  0.00    +0.000 A 
ATOM     22  C   UNL     1      43.736  -1.279  14.914  0.00  0.00    +0.000 A 
ATOM     23  C   UNL     1      42.529  -1.782  14.451  0.00  0.00    +0.000 A 
ATOM     24  C   UNL     1      41.757  -1.063  13.557  0.00  0.00    +0.000 A 
ATOM     25  C   UNL     1      42.212   0.160  13.137  0.00  0.00    +0.000 A 
ATOM     26  C   UNL     1      43.414   0.645  13.607  0.00  0.00    +0.000 A 
BRANCH  21  27
ATOM     27  O   UNL     1      45.411   0.461  14.955  0.00  0.00    +0.000 OA
BRANCH  27  28
ATOM     28  C   UNL     1      46.206  -0.235  15.894  0.00  0.00    +0.000 C 
BRANCH  28  29
ATOM     29  C   UNL     1      45.867   0.082  17.323  0.00  0.00    +0.000 C 
BRANCH  29  31
ATOM     30  C   UNL     1      46.292  -2.381  17.575  0.00  0.00    +0.000 C 
ATOM     31  C   UNL     1      46.325  -1.019  18.263  0.00  0.00    +0.000 C 
ENDBRANCH  29  31
ENDBRANCH  28  29
ENDBRANCH  27  28
ENDBRANCH  21  27
ENDBRANCH  20  24
ENDBRANCH  19  20
ENDBRANCH  18  19
ENDBRANCH   1  18
TORSDOF 9
ENDMDL
MODEL 10
REMARK VINA RESULT:      -7.0     25.677     28.224
REMARK  Name = 
REMARK  9 active torsions:
REMARK  status: ('A' for Active; 'I' for Inactive)
REMARK    1  A    between atoms: C_2  and  C_3
REMARK    2  A    between atoms: C_3  and  C_4
REMARK    3  A    between atoms: C_4  and  O_5
REMARK    4  A    between atoms: O_5  and  C_6
REMARK    5  A    between atoms: C_9  and  O_10
REMARK    6  A    between atoms: O_10  and  C_11
REMARK    7  A    between atoms: C_11  and  C_12
REMARK    8  A    between atoms: C_12  and  N_13
REMARK    9  A    between atoms: C_22  and  C_24
REMARK                            x       y       z     vdW  Elec       q    Type
REMARK                         _______ _______ _______ _____ _____    ______ ____
ROOT
ATOM      1  N   UNL     1      38.221  -0.540  14.824  0.00  0.00    +0.000 N 
ATOM      2  C   UNL     1      39.337   0.319  14.754  0.00  0.00    +0.000 C 
ATOM      3  O   UNL     1      39.404   1.561  15.000  0.00  0.00    +0.000 OA
ATOM      4  C   UNL     1      40.509  -0.450  14.327  0.00  0.00    +0.000 A 
ATOM      5  C   UNL     1      41.839  -0.078  14.102  0.00  0.00    +0.000 A 
ATOM      6  C   UNL     1      42.762  -1.014  13.693  0.00  0.00    +0.000 A 
ATOM      7  C   UNL     1      42.307  -2.302  13.524  0.00  0.00    +0.000 A 
ATOM      8  C   UNL     1      41.009  -2.696  13.738  0.00  0.00    +0.000 A 
ATOM      9  C   UNL     1      40.074  -1.735  14.155  0.00  0.00    +0.000 A 
ATOM     10  C   UNL     1      38.626  -1.853  14.463  0.00  0.00    +0.000 C 
ATOM     11  O   UNL     1      38.032  -2.295  13.269  0.00  0.00    +0.000 OA
ENDROOT
BRANCH  10  12
ATOM     12  C   UNL     1      38.408  -2.852  15.548  0.00  0.00    +0.000 A 
ATOM     13  C   UNL     1      39.049  -2.730  16.760  0.00  0.00    +0.000 A 
ATOM     14  C   UNL     1      38.860  -3.645  17.781  0.00  0.00    +0.000 A 
ATOM     15  C   UNL     1      38.014  -4.723  17.624  0.00  0.00    +0.000 A 
ATOM     16  C   UNL     1      37.367  -4.856  16.416  0.00  0.00    +0.000 A 
ATOM     17  C   UNL     1      37.563  -3.927  15.387  0.00  0.00    +0.000 A 
ENDBRANCH  10  12
BRANCH   1  18
ATOM     18  C   UNL     1      36.899  -0.089  15.212  0.00  0.00    +0.000 C 
BRANCH  18  19
ATOM     19  C   UNL     1      36.346   0.903  14.232  0.00  0.00    +0.000 C 
BRANCH  19  20
ATOM     20  O   UNL     1      35.774   1.986  14.932  0.00  0.00    +0.000 OA
BRANCH  20  24
ATOM     21  C   UNL     1      38.020   5.275  16.245  0.00  0.00    +0.000 A 
ATOM     22  C   UNL     1      37.646   5.153  14.924  0.00  0.00    +0.000 A 
ATOM     23  C   UNL     1      36.903   4.064  14.492  0.00  0.00    +0.000 A 
ATOM     24  C   UNL     1      36.519   3.072  15.375  0.00  0.00    +0.000 A 
ATOM     25  C   UNL     1      36.888   3.190  16.690  0.00  0.00    +0.000 A 
ATOM     26  C   UNL     1      37.626   4.278  17.103  0.00  0.00    +0.000 A 
BRANCH  21  27
ATOM     27  O   UNL     1      38.766   6.368  16.686  0.00  0.00    +0.000 OA
BRANCH  27  28
ATOM     28  C   UNL     1      38.365   7.147  17.795  0.00  0.00    +0.000 C 
BRANCH  28  29
ATOM     29  C   UNL     1      39.472   7.410  18.778  0.00  0.00    +0.000 C 
BRANCH  29  31
ATOM     30  C   UNL     1      41.224   6.380  20.253  0.00  0.00    +0.000 C 
ATOM     31  C   UNL     1      39.993   6.122  19.390  0.00  0.00    +0.000 C 
ENDBRANCH  29  31
ENDBRANCH  28  29
ENDBRANCH  27  28
ENDBRANCH  21  27
ENDBRANCH  20  24
ENDBRANCH  19  20
ENDBRANCH  18  19
ENDBRANCH   1  18
TORSDOF 9
ENDMDL
