MODEL 1
REMARK VINA RESULT:      -6.7      0.000      0.000
REMARK  Name = 
REMARK  2 active torsions:
REMARK  status: ('A' for Active; 'I' for Inactive)
REMARK    1  A    between atoms: C_2  and  C_3
REMARK    2  A    between atoms: C_3  and  C_4
REMARK                            x       y       z     vdW  Elec       q    Type
REMARK                         _______ _______ _______ _____ _____    ______ ____
ROOT
ATOM      1  O   UNL     1      24.771   2.779  17.198  0.00  0.00    +0.000 OA
ATOM      2  C   UNL     1      24.425   3.510  18.161  0.00  0.00    +0.000 C 
ATOM      3  N   UNL     1      23.047   3.542  18.504  0.00  0.00    +0.000 NA
ATOM      4  C   UNL     1      22.128   2.738  17.734  0.00  0.00    +0.000 A 
ATOM      5  N   UNL     1      20.836   2.594  17.845  0.00  0.00    +0.000 NA
ATOM      6  C   UNL     1      20.178   1.812  17.043  0.00  0.00    +0.000 A 
ATOM      7  C   UNL     1      18.794   1.575  17.060  0.00  0.00    +0.000 A 
ATOM      8  C   UNL     1      18.214   0.737  16.173  0.00  0.00    +0.000 A 
ATOM      9  C   UNL     1      18.902   0.063  15.204  0.00  0.00    +0.000 A 
ATOM     10  C   UNL     1      20.277   0.281  15.165  0.00  0.00    +0.000 A 
ATOM     11  C   UNL     1      20.891   1.149  16.080  0.00  0.00    +0.000 A 
ATOM     12  S   UNL     1      22.483   1.704  16.401  0.00  0.00    +0.000 S 
ENDROOT
BRANCH   2  13
ATOM     13  C   UNL     1      25.405   4.323  18.929  0.00  0.00    +0.000 C 
BRANCH  13  14
ATOM     14  C   UNL     1      26.321   5.080  18.028  0.00  0.00    +0.000 C 
ATOM     15  C   UNL     1      27.469   5.694  18.828  0.00  0.00    +0.000 C 
ATOM     16  C   UNL     1      27.884   7.032  18.262  0.00  0.00    +0.000 C 
ATOM     17  C   UNL     1      27.793   6.933  16.740  0.00  0.00    +0.000 C 
ATOM     18  C   UNL     1      26.332   6.910  16.307  0.00  0.00    +0.000 C 
ATOM     19  C   UNL     1      25.553   6.201  17.380  0.00  0.00    +0.000 C 
ENDBRANCH  13  14
ENDBRANCH   2  13
TORSDOF 2
ENDMDL
MODEL 2
REMARK VINA RESULT:      -6.6     19.452     21.277
REMARK  Name = 
REMARK  2 active torsions:
REMARK  status: ('A' for Active; 'I' for Inactive)
REMARK    1  A    between atoms: C_2  and  C_3
REMARK    2  A    between atoms: C_3  and  C_4
REMARK                            x       y       z     vdW  Elec       q    Type
REMARK                         _______ _______ _______ _____ _____    ______ ____
ROOT
ATOM      1  O   UNL     1      33.868  -2.664  35.765  0.00  0.00    +0.000 OA
ATOM      2  C   UNL     1      33.690  -3.051  34.582  0.00  0.00    +0.000 C 
ATOM      3  N   UNL     1      33.555  -2.058  33.576  0.00  0.00    +0.000 NA
ATOM      4  C   UNL     1      33.628  -0.670  33.966  0.00  0.00    +0.000 A 
ATOM      5  N   UNL     1      33.536   0.414  33.246  0.00  0.00    +0.000 NA
ATOM      6  C   UNL     1      33.629   1.590  33.790  0.00  0.00    +0.000 A 
ATOM      7  C   UNL     1      33.546   2.824  33.126  0.00  0.00    +0.000 A 
ATOM      8  C   UNL     1      33.658   3.991  33.798  0.00  0.00    +0.000 A 
ATOM      9  C   UNL     1      33.856   4.075  35.147  0.00  0.00    +0.000 A 
ATOM     10  C   UNL     1      33.942   2.864  35.829  0.00  0.00    +0.000 A 
ATOM     11  C   UNL     1      33.827   1.646  35.144  0.00  0.00    +0.000 A 
ATOM     12  S   UNL     1      33.866  -0.023  35.545  0.00  0.00    +0.000 S 
ENDROOT
BRANCH   2  13
ATOM     13  C   UNL     1      33.621  -4.493  34.224  0.00  0.00    +0.000 C 
BRANCH  13  14
ATOM     14  C   UNL     1      34.013  -4.728  32.804  0.00  0.00    +0.000 C 
ATOM     15  C   UNL     1      32.806  -5.185  31.987  0.00  0.00    +0.000 C 
ATOM     16  C   UNL     1      33.203  -6.179  30.921  0.00  0.00    +0.000 C 
ATOM     17  C   UNL     1      34.558  -5.739  30.366  0.00  0.00    +0.000 C 
ATOM     18  C   UNL     1      35.651  -6.007  31.393  0.00  0.00    +0.000 C 
ATOM     19  C   UNL     1      35.048  -5.821  32.758  0.00  0.00    +0.000 C 
ENDBRANCH  13  14
ENDBRANCH   2  13
TORSDOF 2
ENDMDL
MODEL 3
REMARK VINA RESULT:      -6.4     22.109     24.221
REMARK  Name = 
REMARK  2 active torsions:
REMARK  status: ('A' for Active; 'I' for Inactive)
REMARK    1  A    between atoms: C_2  and  C_3
REMARK    2  A    between atoms: C_3  and  C_4
REMARK                            x       y       z     vdW  Elec       q    Type
REMARK                         _______ _______ _______ _____ _____    ______ ____
ROOT
ATOM      1  O   UNL     1      28.619  25.348  23.444  0.00  0.00    +0.000 OA
ATOM      2  C   UNL     1      28.877  24.233  22.922  0.00  0.00    +0.000 C 
ATOM      3  N   UNL     1      29.322  24.223  21.573  0.00  0.00    +0.000 NA
ATOM      4  C   UNL     1      29.452  25.484  20.883  0.00  0.00    +0.000 A 
ATOM      5  N   UNL     1      29.834  25.742  19.662  0.00  0.00    +0.000 NA
ATOM      6  C   UNL     1      29.885  26.962  19.220  0.00  0.00    +0.000 A 
ATOM      7  C   UNL     1      30.277  27.366  17.933  0.00  0.00    +0.000 A 
ATOM      8  C   UNL     1      30.292  28.671  17.582  0.00  0.00    +0.000 A 
ATOM      9  C   UNL     1      29.937  29.688  18.421  0.00  0.00    +0.000 A 
ATOM     10  C   UNL     1      29.543  29.313  19.704  0.00  0.00    +0.000 A 
ATOM     11  C   UNL     1      29.523  27.963  20.082  0.00  0.00    +0.000 A 
ATOM     12  S   UNL     1      29.129  27.064  21.490  0.00  0.00    +0.000 S 
ENDROOT
BRANCH   2  13
ATOM     13  C   UNL     1      28.729  22.956  23.670  0.00  0.00    +0.000 C 
BRANCH  13  14
ATOM     14  C   UNL     1      29.019  23.130  25.123  0.00  0.00    +0.000 C 
ATOM     15  C   UNL     1      30.336  22.448  25.489  0.00  0.00    +0.000 C 
ATOM     16  C   UNL     1      30.287  21.860  26.879  0.00  0.00    +0.000 C 
ATOM     17  C   UNL     1      29.493  22.826  27.758  0.00  0.00    +0.000 C 
ATOM     18  C   UNL     1      28.014  22.762  27.395  0.00  0.00    +0.000 C 
ATOM     19  C   UNL     1      27.920  22.480  25.921  0.00  0.00    +0.000 C 
ENDBRANCH  13  14
ENDBRANCH   2  13
TORSDOF 2
ENDMDL
MODEL 4
REMARK VINA RESULT:      -6.3     19.833     21.695
REMARK  Name = 
REMARK  2 active torsions:
REMARK  status: ('A' for Active; 'I' for Inactive)
REMARK    1  A    between atoms: C_2  and  C_3
REMARK    2  A    between atoms: C_3  and  C_4
REMARK                            x       y       z     vdW  Elec       q    Type
REMARK                         _______ _______ _______ _____ _____    ______ ____
ROOT
ATOM      1  O   UNL     1      34.086   5.824  37.775  0.00  0.00    +0.000 OA
ATOM      2  C   UNL     1      34.172   6.739  36.917  0.00  0.00    +0.000 C 
ATOM      3  N   UNL     1      34.160   6.363  35.547  0.00  0.00    +0.000 NA
ATOM      4  C   UNL     1      34.050   4.961  35.221  0.00  0.00    +0.000 A 
ATOM      5  N   UNL     1      34.017   4.365  34.061  0.00  0.00    +0.000 NA
ATOM      6  C   UNL     1      33.914   3.073  33.973  0.00  0.00    +0.000 A 
ATOM      7  C   UNL     1      33.869   2.319  32.790  0.00  0.00    +0.000 A 
ATOM      8  C   UNL     1      33.759   0.973  32.820  0.00  0.00    +0.000 A 
ATOM      9  C   UNL     1      33.684   0.242  33.971  0.00  0.00    +0.000 A 
ATOM     10  C   UNL     1      33.727   0.967  35.160  0.00  0.00    +0.000 A 
ATOM     11  C   UNL     1      33.841   2.364  35.143  0.00  0.00    +0.000 A 
ATOM     12  S   UNL     1      33.928   3.626  36.304  0.00  0.00    +0.000 S 
ENDROOT
BRANCH   2  13
ATOM     13  C   UNL     1      34.284   8.173  37.297  0.00  0.00    +0.000 C 
BRANCH  13  14
ATOM     14  C   UNL     1      34.954   8.975  36.232  0.00  0.00    +0.000 C 
ATOM     15  C   UNL     1      36.419   9.218  36.591  0.00  0.00    +0.000 C 
ATOM     16  C   UNL     1      36.887  10.575  36.120  0.00  0.00    +0.000 C 
ATOM     17  C   UNL     1      36.230  10.841  34.766  0.00  0.00    +0.000 C 
ATOM     18  C   UNL     1      34.746  11.129  34.956  0.00  0.00    +0.000 C 
ATOM     19  C   UNL     1      34.272  10.314  36.127  0.00  0.00    +0.000 C 
ENDBRANCH  13  14
ENDBRANCH   2  13
TORSDOF 2
ENDMDL
MODEL 5
REMARK VINA RESULT:      -6.2     20.783     21.486
REMARK  Name = 
REMARK  2 active torsions:
REMARK  status: ('A' for Active; 'I' for Inactive)
REMARK    1  A    between atoms: C_2  and  C_3
REMARK    2  A    between atoms: C_3  and  C_4
REMARK                            x       y       z     vdW  Elec       q    Type
REMARK                         _______ _______ _______ _____ _____    ______ ____
ROOT
ATOM      1  O   UNL     1      32.988  21.360  11.462  0.00  0.00    +0.000 OA
ATOM      2  C   UNL     1      32.618  20.757  10.422  0.00  0.00    +0.000 C 
ATOM      3  N   UNL     1      31.242  20.818  10.077  0.00  0.00    +0.000 NA
ATOM      4  C   UNL     1      30.352  21.565  10.933  0.00  0.00    +0.000 A 
ATOM      5  N   UNL     1      29.067  21.772  10.837  0.00  0.00    +0.000 NA
ATOM      6  C   UNL     1      28.435  22.483  11.722  0.00  0.00    +0.000 A 
ATOM      7  C   UNL     1      27.062  22.775  11.730  0.00  0.00    +0.000 A 
ATOM      8  C   UNL     1      26.511  23.530  12.706  0.00  0.00    +0.000 A 
ATOM      9  C   UNL     1      27.219  24.062  13.746  0.00  0.00    +0.000 A 
ATOM     10  C   UNL     1      28.584  23.787  13.761  0.00  0.00    +0.000 A 
ATOM     11  C   UNL     1      29.169  23.005  12.754  0.00  0.00    +0.000 A 
ATOM     12  S   UNL     1      30.740  22.427  12.374  0.00  0.00    +0.000 S 
ENDROOT
BRANCH   2  13
ATOM     13  C   UNL     1      33.570  19.997   9.568  0.00  0.00    +0.000 C 
BRANCH  13  14
ATOM     14  C   UNL     1      33.123  19.957   8.145  0.00  0.00    +0.000 C 
ATOM     15  C   UNL     1      33.617  18.679   7.468  0.00  0.00    +0.000 C 
ATOM     16  C   UNL     1      33.958  18.918   6.016  0.00  0.00    +0.000 C 
ATOM     17  C   UNL     1      32.926  19.897   5.458  0.00  0.00    +0.000 C 
ATOM     18  C   UNL     1      33.177  21.292   6.018  0.00  0.00    +0.000 C 
ATOM     19  C   UNL     1      33.717  21.131   7.413  0.00  0.00    +0.000 C 
ENDBRANCH  13  14
ENDBRANCH   2  13
TORSDOF 2
ENDMDL
MODEL 6
REMARK VINA RESULT:      -6.1     12.987     14.027
REMARK  Name = 
REMARK  2 active torsions:
REMARK  status: ('A' for Active; 'I' for Inactive)
REMARK    1  A    between atoms: C_2  and  C_3
REMARK    2  A    between atoms: C_3  and  C_4
REMARK                            x       y       z     vdW  Elec       q    Type
REMARK                         _______ _______ _______ _____ _____    ______ ____
ROOT
ATOM      1  O   UNL     1      23.604  -8.537  24.551  0.00  0.00    +0.000 OA
ATOM      2  C   UNL     1      23.772  -7.403  24.035  0.00  0.00    +0.000 C 
ATOM      3  N   UNL     1      22.751  -6.434  24.223  0.00  0.00    +0.000 NA
ATOM      4  C   UNL     1      21.587  -6.803  24.992  0.00  0.00    +0.000 A 
ATOM      5  N   UNL     1      20.528  -6.108  25.305  0.00  0.00    +0.000 NA
ATOM      6  C   UNL     1      19.572  -6.626  26.016  0.00  0.00    +0.000 A 
ATOM      7  C   UNL     1      18.388  -5.985  26.415  0.00  0.00    +0.000 A 
ATOM      8  C   UNL     1      17.460  -6.626  27.158  0.00  0.00    +0.000 A 
ATOM      9  C   UNL     1      17.582  -7.920  27.577  0.00  0.00    +0.000 A 
ATOM     10  C   UNL     1      18.748  -8.579  27.193  0.00  0.00    +0.000 A 
ATOM     11  C   UNL     1      19.720  -7.926  26.422  0.00  0.00    +0.000 A 
ATOM     12  S   UNL     1      21.247  -8.317  25.742  0.00  0.00    +0.000 S 
ENDROOT
BRANCH   2  13
ATOM     13  C   UNL     1      24.989  -7.064  23.249  0.00  0.00    +0.000 C 
BRANCH  13  14
ATOM     14  C   UNL     1      25.779  -8.280  22.903  0.00  0.00    +0.000 C 
ATOM     15  C   UNL     1      27.226  -7.904  22.589  0.00  0.00    +0.000 C 
ATOM     16  C   UNL     1      27.804  -8.785  21.506  0.00  0.00    +0.000 C 
ATOM     17  C   UNL     1      27.265 -10.197  21.728  0.00  0.00    +0.000 C 
ATOM     18  C   UNL     1      25.789 -10.255  21.350  0.00  0.00    +0.000 C 
ATOM     19  C   UNL     1      25.185  -8.916  21.674  0.00  0.00    +0.000 C 
ENDBRANCH  13  14
ENDBRANCH   2  13
TORSDOF 2
ENDMDL
MODEL 7
REMARK VINA RESULT:      -6.0     21.008     21.968
REMARK  Name = 
REMARK  2 active torsions:
REMARK  status: ('A' for Active; 'I' for Inactive)
REMARK    1  A    between atoms: C_2  and  C_3
REMARK    2  A    between atoms: C_3  and  C_4
REMARK                            x       y       z     vdW  Elec       q    Type
REMARK                         _______ _______ _______ _____ _____    ______ ____
ROOT
ATOM      1  O   UNL     1      19.713   9.577  38.367  0.00  0.00    +0.000 OA
ATOM      2  C   UNL     1      20.176   9.785  37.217  0.00  0.00    +0.000 C 
ATOM      3  N   UNL     1      19.301  10.334  36.242  0.00  0.00    +0.000 NA
ATOM      4  C   UNL     1      17.939  10.620  36.624  0.00  0.00    +0.000 A 
ATOM      5  N   UNL     1      16.954  11.117  35.928  0.00  0.00    +0.000 NA
ATOM      6  C   UNL     1      15.784  11.302  36.459  0.00  0.00    +0.000 A 
ATOM      7  C   UNL     1      14.650  11.826  35.818  0.00  0.00    +0.000 A 
ATOM      8  C   UNL     1      13.478  11.975  36.473  0.00  0.00    +0.000 A 
ATOM      9  C   UNL     1      13.293  11.637  37.784  0.00  0.00    +0.000 A 
ATOM     10  C   UNL     1      14.402  11.113  38.444  0.00  0.00    +0.000 A 
ATOM     11  C   UNL     1      15.625  10.954  37.775  0.00  0.00    +0.000 A 
ATOM     12  S   UNL     1      17.195  10.377  38.160  0.00  0.00    +0.000 S 
ENDROOT
BRANCH   2  13
ATOM     13  C   UNL     1      21.588   9.476  36.864  0.00  0.00    +0.000 C 
BRANCH  13  14
ATOM     14  C   UNL     1      22.467  10.672  37.008  0.00  0.00    +0.000 C 
ATOM     15  C   UNL     1      23.648  10.583  36.042  0.00  0.00    +0.000 C 
ATOM     16  C   UNL     1      24.899  11.183  36.641  0.00  0.00    +0.000 C 
ATOM     17  C   UNL     1      24.478  12.412  37.445  0.00  0.00    +0.000 C 
ATOM     18  C   UNL     1      23.761  11.980  38.718  0.00  0.00    +0.000 C 
ATOM     19  C   UNL     1      23.014  10.711  38.410  0.00  0.00    +0.000 C 
ENDBRANCH  13  14
ENDBRANCH   2  13
TORSDOF 2
ENDMDL
MODEL 8
REMARK VINA RESULT:      -5.9     22.254     24.786
REMARK  Name = 
REMARK  2 active torsions:
REMARK  status: ('A' for Active; 'I' for Inactive)
REMARK    1  A    between atoms: C_2  and  C_3
REMARK    2  A    between atoms: C_3  and  C_4
REMARK                            x       y       z     vdW  Elec       q    Type
REMARK                         _______ _______ _______ _____ _____    ______ ____
ROOT
ATOM      1  O   UNL     1      29.415  27.880  20.538  0.00  0.00    +0.000 OA
ATOM      2  C   UNL     1      29.772  27.062  19.652  0.00  0.00    +0.000 C 
ATOM      3  N   UNL     1      29.859  25.692  20.014  0.00  0.00    +0.000 NA
ATOM      4  C   UNL     1      29.533  25.318  21.370  0.00  0.00    +0.000 A 
ATOM      5  N   UNL     1      29.533  24.146  21.944  0.00  0.00    +0.000 NA
ATOM      6  C   UNL     1      29.205  24.013  23.194  0.00  0.00    +0.000 A 
ATOM      7  C   UNL     1      29.167  22.813  23.922  0.00  0.00    +0.000 A 
ATOM      8  C   UNL     1      28.808  22.793  25.224  0.00  0.00    +0.000 A 
ATOM      9  C   UNL     1      28.460  23.908  25.933  0.00  0.00    +0.000 A 
ATOM     10  C   UNL     1      28.489  25.112  25.234  0.00  0.00    +0.000 A 
ATOM     11  C   UNL     1      28.860  25.146  23.882  0.00  0.00    +0.000 A 
ATOM     12  S   UNL     1      29.035  26.342  22.663  0.00  0.00    +0.000 S 
ENDROOT
BRANCH   2  13
ATOM     13  C   UNL     1      30.099  27.491  18.266  0.00  0.00    +0.000 C 
BRANCH  13  14
ATOM     14  C   UNL     1      31.204  28.492  18.244  0.00  0.00    +0.000 C 
ATOM     15  C   UNL     1      30.793  29.723  17.437  0.00  0.00    +0.000 C 
ATOM     16  C   UNL     1      31.966  30.312  16.689  0.00  0.00    +0.000 C 
ATOM     17  C   UNL     1      33.193  30.191  17.593  0.00  0.00    +0.000 C 
ATOM     18  C   UNL     1      33.638  28.736  17.672  0.00  0.00    +0.000 C 
ATOM     19  C   UNL     1      32.407  27.878  17.577  0.00  0.00    +0.000 C 
ENDBRANCH  13  14
ENDBRANCH   2  13
TORSDOF 2
ENDMDL
MODEL 9
REMARK VINA RESULT:      -5.9     22.222     24.475
REMARK  Name = 
REMARK  2 active torsions:
REMARK  status: ('A' for Active; 'I' for Inactive)
REMARK    1  A    between atoms: C_2  and  C_3
REMARK    2  A    between atoms: C_3  and  C_4
REMARK                            x       y       z     vdW  Elec       q    Type
REMARK                         _______ _______ _______ _____ _____    ______ ____
ROOT
ATOM      1  O   UNL     1      29.036  27.904  19.787  0.00  0.00    +0.000 OA
ATOM      2  C   UNL     1      29.829  27.066  19.286  0.00  0.00    +0.000 C 
ATOM      3  N   UNL     1      29.889  25.777  19.879  0.00  0.00    +0.000 NA
ATOM      4  C   UNL     1      29.043  25.503  21.015  0.00  0.00    +0.000 A 
ATOM      5  N   UNL     1      28.912  24.418  21.727  0.00  0.00    +0.000 NA
ATOM      6  C   UNL     1      28.084  24.368  22.727  0.00  0.00    +0.000 A 
ATOM      7  C   UNL     1      27.855  23.265  23.565  0.00  0.00    +0.000 A 
ATOM      8  C   UNL     1      26.964  23.327  24.579  0.00  0.00    +0.000 A 
ATOM      9  C   UNL     1      26.226  24.438  24.875  0.00  0.00    +0.000 A 
ATOM     10  C   UNL     1      26.435  25.547  24.058  0.00  0.00    +0.000 A 
ATOM     11  C   UNL     1      27.356  25.496  23.002  0.00  0.00    +0.000 A 
ATOM     12  S   UNL     1      27.924  26.565  21.785  0.00  0.00    +0.000 S 
ENDROOT
BRANCH   2  13
ATOM     13  C   UNL     1      30.685  27.390  18.113  0.00  0.00    +0.000 C 
BRANCH  13  14
ATOM     14  C   UNL     1      29.965  28.243  17.123  0.00  0.00    +0.000 C 
ATOM     15  C   UNL     1      29.877  27.532  15.773  0.00  0.00    +0.000 C 
ATOM     16  C   UNL     1      29.970  28.511  14.626  0.00  0.00    +0.000 C 
ATOM     17  C   UNL     1      29.211  29.772  15.037  0.00  0.00    +0.000 C 
ATOM     18  C   UNL     1      30.001  30.534  16.094  0.00  0.00    +0.000 C 
ATOM     19  C   UNL     1      30.736  29.521  16.928  0.00  0.00    +0.000 C 
ENDBRANCH  13  14
ENDBRANCH   2  13
TORSDOF 2
ENDMDL
MODEL 10
REMARK VINA RESULT:      -5.9     22.062     24.891
REMARK  Name = 
REMARK  2 active torsions:
REMARK  status: ('A' for Active; 'I' for Inactive)
REMARK    1  A    between atoms: C_2  and  C_3
REMARK    2  A    between atoms: C_3  and  C_4
REMARK                            x       y       z     vdW  Elec       q    Type
REMARK                         _______ _______ _______ _____ _____    ______ ____
ROOT
ATOM      1  O   UNL     1      28.067  26.137  21.922  0.00  0.00    +0.000 OA
ATOM      2  C   UNL     1      28.646  25.082  21.559  0.00  0.00    +0.000 C 
ATOM      3  N   UNL     1      29.575  25.173  20.489  0.00  0.00    +0.000 NA
ATOM      4  C   UNL     1      29.800  26.464  19.883  0.00  0.00    +0.000 A 
ATOM      5  N   UNL     1      30.588  26.810  18.903  0.00  0.00    +0.000 NA
ATOM      6  C   UNL     1      30.651  28.041  18.495  0.00  0.00    +0.000 A 
ATOM      7  C   UNL     1      31.455  28.536  17.455  0.00  0.00    +0.000 A 
ATOM      8  C   UNL     1      31.439  29.844  17.117  0.00  0.00    +0.000 A 
ATOM      9  C   UNL     1      30.660  30.779  17.737  0.00  0.00    +0.000 A 
ATOM     10  C   UNL     1      29.853  30.315  18.773  0.00  0.00    +0.000 A 
ATOM     11  C   UNL     1      29.860  28.960  19.134  0.00  0.00    +0.000 A 
ATOM     12  S   UNL     1      29.069  27.970  20.293  0.00  0.00    +0.000 S 
ENDROOT
BRANCH   2  13
ATOM     13  C   UNL     1      28.384  23.770  22.211  0.00  0.00    +0.000 C 
BRANCH  13  14
ATOM     14  C   UNL     1      27.624  23.929  23.485  0.00  0.00    +0.000 C 
ATOM     15  C   UNL     1      28.343  23.213  24.627  0.00  0.00    +0.000 C 
ATOM     16  C   UNL     1      27.363  22.618  25.611  0.00  0.00    +0.000 C 
ATOM     17  C   UNL     1      26.199  23.598  25.747  0.00  0.00    +0.000 C 
ATOM     18  C   UNL     1      25.347  23.573  24.484  0.00  0.00    +0.000 C 
ATOM     19  C   UNL     1      26.265  23.302  23.324  0.00  0.00    +0.000 C 
ENDBRANCH  13  14
ENDBRANCH   2  13
TORSDOF 2
ENDMDL
