MODEL 1
REMARK VINA RESULT:      -7.4      0.000      0.000
REMARK  Name = 
REMARK  1 active torsions:
REMARK  status: ('A' for Active; 'I' for Inactive)
REMARK    1  A    between atoms: C_7  and  C_8
REMARK                            x       y       z     vdW  Elec       q    Type
REMARK                         _______ _______ _______ _____ _____    ______ ____
ROOT
ATOM      1  O   UNL     1      16.839  -8.816  24.485  0.00  0.00    +0.000 OA
ATOM      2  C   UNL     1      16.922  -9.343  25.791  0.00  0.00    +0.000 A 
ATOM      3  C   UNL     1      16.163 -10.456  26.080  0.00  0.00    +0.000 A 
ATOM      4  C   UNL     1      16.224 -10.991  27.346  0.00  0.00    +0.000 A 
ATOM      5  C   UNL     1      17.048 -10.406  28.318  0.00  0.00    +0.000 A 
ATOM      6  C   UNL     1      17.806  -9.297  28.034  0.00  0.00    +0.000 A 
ATOM      7  C   UNL     1      17.728  -8.774  26.750  0.00  0.00    +0.000 A 
ATOM      8  C   UNL     1      18.687  -8.670  29.072  0.00  0.00    +0.000 C 
ATOM      9  C   UNL     1      18.919  -9.571  30.227  0.00  0.00    +0.000 C 
ATOM     10  C   UNL     1      17.580 -10.077  30.741  0.00  0.00    +0.000 C 
ATOM     11  C   UNL     1      17.081 -11.031  29.688  0.00  0.00    +0.000 C 
ENDROOT
BRANCH   7  12
ATOM     12  C   UNL     1      18.519  -7.612  26.441  0.00  0.00    +0.000 A 
ATOM     13  C   UNL     1      17.981  -6.363  26.670  0.00  0.00    +0.000 A 
ATOM     14  O   UNL     1      16.691  -6.197  27.193  0.00  0.00    +0.000 OA
ATOM     15  C   UNL     1      18.773  -5.279  26.360  0.00  0.00    +0.000 A 
ATOM     16  C   UNL     1      20.058  -5.442  25.840  0.00  0.00    +0.000 A 
ATOM     17  C   UNL     1      20.584  -6.698  25.615  0.00  0.00    +0.000 A 
ATOM     18  C   UNL     1      19.788  -7.783  25.926  0.00  0.00    +0.000 A 
ATOM     19  C   UNL     1      20.393  -9.120  25.669  0.00  0.00    +0.000 C 
ATOM     20  C   UNL     1      21.032  -9.190  24.307  0.00  0.00    +0.000 C 
ATOM     21  C   UNL     1      21.776  -7.952  23.943  0.00  0.00    +0.000 C 
ATOM     22  C   UNL     1      21.938  -6.957  25.065  0.00  0.00    +0.000 C 
ENDBRANCH   7  12
TORSDOF 1
ENDMDL
MODEL 2
REMARK VINA RESULT:      -7.3      0.505      5.491
REMARK  Name = 
REMARK  1 active torsions:
REMARK  status: ('A' for Active; 'I' for Inactive)
REMARK    1  A    between atoms: C_7  and  C_8
REMARK                            x       y       z     vdW  Elec       q    Type
REMARK                         _______ _______ _______ _____ _____    ______ ____
ROOT
ATOM      1  O   UNL     1      16.658  -6.539  27.323  0.00  0.00    +0.000 OA
ATOM      2  C   UNL     1      17.944  -6.604  26.746  0.00  0.00    +0.000 A 
ATOM      3  C   UNL     1      18.601  -5.415  26.517  0.00  0.00    +0.000 A 
ATOM      4  C   UNL     1      19.857  -5.448  25.955  0.00  0.00    +0.000 A 
ATOM      5  C   UNL     1      20.448  -6.677  25.625  0.00  0.00    +0.000 A 
ATOM      6  C   UNL     1      19.795  -7.864  25.852  0.00  0.00    +0.000 A 
ATOM      7  C   UNL     1      18.529  -7.805  26.421  0.00  0.00    +0.000 A 
ATOM      8  C   UNL     1      20.425  -9.178  25.500  0.00  0.00    +0.000 C 
ATOM      9  C   UNL     1      21.884  -9.054  25.268  0.00  0.00    +0.000 C 
ATOM     10  C   UNL     1      22.138  -7.933  24.272  0.00  0.00    +0.000 C 
ATOM     11  C   UNL     1      21.824  -6.659  25.014  0.00  0.00    +0.000 C 
ENDROOT
BRANCH   7  12
ATOM     12  C   UNL     1      17.836  -9.043  26.663  0.00  0.00    +0.000 A 
ATOM     13  C   UNL     1      16.960  -9.512  25.707  0.00  0.00    +0.000 A 
ATOM     14  O   UNL     1      16.727  -8.817  24.512  0.00  0.00    +0.000 OA
ATOM     15  C   UNL     1      16.319 -10.701  25.982  0.00  0.00    +0.000 A 
ATOM     16  C   UNL     1      16.550 -11.394  27.171  0.00  0.00    +0.000 A 
ATOM     17  C   UNL     1      17.430 -10.913  28.119  0.00  0.00    +0.000 A 
ATOM     18  C   UNL     1      18.071  -9.721  27.843  0.00  0.00    +0.000 A 
ATOM     19  C   UNL     1      19.012  -9.237  28.891  0.00  0.00    +0.000 C 
ATOM     20  C   UNL     1      18.400  -9.307  30.265  0.00  0.00    +0.000 C 
ATOM     21  C   UNL     1      17.604 -10.545  30.491  0.00  0.00    +0.000 C 
ATOM     22  C   UNL     1      17.731 -11.587  29.408  0.00  0.00    +0.000 C 
ENDBRANCH   7  12
TORSDOF 1
ENDMDL
MODEL 3
REMARK VINA RESULT:      -6.9      1.235      2.911
REMARK  Name = 
REMARK  1 active torsions:
REMARK  status: ('A' for Active; 'I' for Inactive)
REMARK    1  A    between atoms: C_7  and  C_8
REMARK                            x       y       z     vdW  Elec       q    Type
REMARK                         _______ _______ _______ _____ _____    ______ ____
ROOT
ATOM      1  O   UNL     1      18.996  -8.819  29.303  0.00  0.00    +0.000 OA
ATOM      2  C   UNL     1      17.949  -9.294  28.486  0.00  0.00    +0.000 A 
ATOM      3  C   UNL     1      17.162 -10.310  28.981  0.00  0.00    +0.000 A 
ATOM      4  C   UNL     1      16.134 -10.793  28.205  0.00  0.00    +0.000 A 
ATOM      5  C   UNL     1      15.898 -10.252  26.933  0.00  0.00    +0.000 A 
ATOM      6  C   UNL     1      16.681  -9.239  26.435  0.00  0.00    +0.000 A 
ATOM      7  C   UNL     1      17.713  -8.768  27.237  0.00  0.00    +0.000 A 
ATOM      8  C   UNL     1      16.432  -8.660  25.075  0.00  0.00    +0.000 C 
ATOM      9  C   UNL     1      15.092  -9.020  24.551  0.00  0.00    +0.000 C 
ATOM     10  C   UNL     1      14.905 -10.526  24.652  0.00  0.00    +0.000 C 
ATOM     11  C   UNL     1      14.759 -10.814  26.124  0.00  0.00    +0.000 C 
ENDROOT
BRANCH   7  12
ATOM     12  C   UNL     1      18.539  -7.706  26.725  0.00  0.00    +0.000 A 
ATOM     13  C   UNL     1      18.107  -6.403  26.863  0.00  0.00    +0.000 A 
ATOM     14  O   UNL     1      16.890  -6.088  27.485  0.00  0.00    +0.000 OA
ATOM     15  C   UNL     1      18.930  -5.420  26.359  0.00  0.00    +0.000 A 
ATOM     16  C   UNL     1      20.142  -5.731  25.741  0.00  0.00    +0.000 A 
ATOM     17  C   UNL     1      20.562  -7.039  25.610  0.00  0.00    +0.000 A 
ATOM     18  C   UNL     1      19.735  -8.024  26.115  0.00  0.00    +0.000 A 
ATOM     19  C   UNL     1      20.225  -9.422  25.953  0.00  0.00    +0.000 C 
ATOM     20  C   UNL     1      20.715  -9.681  24.554  0.00  0.00    +0.000 C 
ATOM     21  C   UNL     1      21.494  -8.548  23.984  0.00  0.00    +0.000 C 
ATOM     22  C   UNL     1      21.834  -7.454  24.966  0.00  0.00    +0.000 C 
ENDBRANCH   7  12
TORSDOF 1
ENDMDL
MODEL 4
REMARK VINA RESULT:      -6.7      1.386      2.775
REMARK  Name = 
REMARK  1 active torsions:
REMARK  status: ('A' for Active; 'I' for Inactive)
REMARK    1  A    between atoms: C_7  and  C_8
REMARK                            x       y       z     vdW  Elec       q    Type
REMARK                         _______ _______ _______ _____ _____    ______ ____
ROOT
ATOM      1  O   UNL     1      17.422 -10.293  24.616  0.00  0.00    +0.000 OA
ATOM      2  C   UNL     1      17.246 -10.439  26.008  0.00  0.00    +0.000 A 
ATOM      3  C   UNL     1      16.180 -11.196  26.442  0.00  0.00    +0.000 A 
ATOM      4  C   UNL     1      15.985 -11.355  27.795  0.00  0.00    +0.000 A 
ATOM      5  C   UNL     1      16.863 -10.753  28.708  0.00  0.00    +0.000 A 
ATOM      6  C   UNL     1      17.927  -9.997  28.279  0.00  0.00    +0.000 A 
ATOM      7  C   UNL     1      18.104  -9.851  26.909  0.00  0.00    +0.000 A 
ATOM      8  C   UNL     1      18.865  -9.352  29.254  0.00  0.00    +0.000 C 
ATOM      9  C   UNL     1      18.738  -9.925  30.615  0.00  0.00    +0.000 C 
ATOM     10  C   UNL     1      17.274  -9.909  31.028  0.00  0.00    +0.000 C 
ATOM     11  C   UNL     1      16.607 -10.959  30.177  0.00  0.00    +0.000 C 
ENDROOT
BRANCH   7  12
ATOM     12  C   UNL     1      19.216  -9.061  26.449  0.00  0.00    +0.000 A 
ATOM     13  C   UNL     1      20.426  -9.684  26.228  0.00  0.00    +0.000 A 
ATOM     14  O   UNL     1      20.601 -11.059  26.440  0.00  0.00    +0.000 OA
ATOM     15  C   UNL     1      21.462  -8.889  25.787  0.00  0.00    +0.000 A 
ATOM     16  C   UNL     1      21.289  -7.521  25.575  0.00  0.00    +0.000 A 
ATOM     17  C   UNL     1      20.072  -6.910  25.800  0.00  0.00    +0.000 A 
ATOM     18  C   UNL     1      19.035  -7.709  26.242  0.00  0.00    +0.000 A 
ATOM     19  C   UNL     1      17.739  -7.011  26.473  0.00  0.00    +0.000 C 
ATOM     20  C   UNL     1      17.922  -5.741  27.260  0.00  0.00    +0.000 C 
ATOM     21  C   UNL     1      19.124  -4.964  26.850  0.00  0.00    +0.000 C 
ATOM     22  C   UNL     1      19.806  -5.463  25.600  0.00  0.00    +0.000 C 
ENDBRANCH   7  12
TORSDOF 1
ENDMDL
MODEL 5
REMARK VINA RESULT:      -6.6     32.428     35.154
REMARK  Name = 
REMARK  1 active torsions:
REMARK  status: ('A' for Active; 'I' for Inactive)
REMARK    1  A    between atoms: C_7  and  C_8
REMARK                            x       y       z     vdW  Elec       q    Type
REMARK                         _______ _______ _______ _____ _____    ______ ____
ROOT
ATOM      1  O   UNL     1      25.901  24.373  23.535  0.00  0.00    +0.000 OA
ATOM      2  C   UNL     1      26.929  23.830  24.335  0.00  0.00    +0.000 A 
ATOM      3  C   UNL     1      26.565  22.963  25.341  0.00  0.00    +0.000 A 
ATOM      4  C   UNL     1      27.547  22.419  26.137  0.00  0.00    +0.000 A 
ATOM      5  C   UNL     1      28.893  22.748  25.917  0.00  0.00    +0.000 A 
ATOM      6  C   UNL     1      29.260  23.612  24.914  0.00  0.00    +0.000 A 
ATOM      7  C   UNL     1      28.251  24.149  24.125  0.00  0.00    +0.000 A 
ATOM      8  C   UNL     1      30.697  23.966  24.679  0.00  0.00    +0.000 C 
ATOM      9  C   UNL     1      31.622  23.025  25.355  0.00  0.00    +0.000 C 
ATOM     10  C   UNL     1      31.223  22.897  26.817  0.00  0.00    +0.000 C 
ATOM     11  C   UNL     1      29.930  22.124  26.813  0.00  0.00    +0.000 C 
ENDROOT
BRANCH   7  12
ATOM     12  C   UNL     1      28.624  25.056  23.071  0.00  0.00    +0.000 A 
ATOM     13  C   UNL     1      28.878  24.546  21.815  0.00  0.00    +0.000 A 
ATOM     14  O   UNL     1      28.786  23.174  21.540  0.00  0.00    +0.000 OA
ATOM     15  C   UNL     1      29.232  25.450  20.838  0.00  0.00    +0.000 A 
ATOM     16  C   UNL     1      29.324  26.816  21.110  0.00  0.00    +0.000 A 
ATOM     17  C   UNL     1      29.065  27.313  22.371  0.00  0.00    +0.000 A 
ATOM     18  C   UNL     1      28.713  26.405  23.349  0.00  0.00    +0.000 A 
ATOM     19  C   UNL     1      28.442  26.982  24.696  0.00  0.00    +0.000 C 
ATOM     20  C   UNL     1      29.514  27.954  25.111  0.00  0.00    +0.000 C 
ATOM     21  C   UNL     1      29.970  28.835  24.000  0.00  0.00    +0.000 C 
ATOM     22  C   UNL     1      29.142  28.749  22.742  0.00  0.00    +0.000 C 
ENDBRANCH   7  12
TORSDOF 1
ENDMDL
MODEL 6
REMARK VINA RESULT:      -6.6     32.592     35.445
REMARK  Name = 
REMARK  1 active torsions:
REMARK  status: ('A' for Active; 'I' for Inactive)
REMARK    1  A    between atoms: C_7  and  C_8
REMARK                            x       y       z     vdW  Elec       q    Type
REMARK                         _______ _______ _______ _____ _____    ______ ____
ROOT
ATOM      1  O   UNL     1      31.052  22.223  24.062  0.00  0.00    +0.000 OA
ATOM      2  C   UNL     1      31.267  23.586  24.360  0.00  0.00    +0.000 A 
ATOM      3  C   UNL     1      32.501  23.944  24.856  0.00  0.00    +0.000 A 
ATOM      4  C   UNL     1      32.738  25.266  25.156  0.00  0.00    +0.000 A 
ATOM      5  C   UNL     1      31.733  26.224  24.955  0.00  0.00    +0.000 A 
ATOM      6  C   UNL     1      30.501  25.870  24.461  0.00  0.00    +0.000 A 
ATOM      7  C   UNL     1      30.286  24.530  24.166  0.00  0.00    +0.000 A 
ATOM      8  C   UNL     1      29.426  26.892  24.247  0.00  0.00    +0.000 C 
ATOM      9  C   UNL     1      29.959  28.275  24.258  0.00  0.00    +0.000 C 
ATOM     10  C   UNL     1      30.797  28.477  25.511  0.00  0.00    +0.000 C 
ATOM     11  C   UNL     1      32.043  27.657  25.297  0.00  0.00    +0.000 C 
ENDROOT
BRANCH   7  12
ATOM     12  C   UNL     1      28.998  24.148  23.647  0.00  0.00    +0.000 A 
ATOM     13  C   UNL     1      28.804  24.153  22.282  0.00  0.00    +0.000 A 
ATOM     14  O   UNL     1      29.822  24.521  21.391  0.00  0.00    +0.000 OA
ATOM     15  C   UNL     1      27.557  23.780  21.830  0.00  0.00    +0.000 A 
ATOM     16  C   UNL     1      26.543  23.414  22.716  0.00  0.00    +0.000 A 
ATOM     17  C   UNL     1      26.751  23.412  24.080  0.00  0.00    +0.000 A 
ATOM     18  C   UNL     1      28.001  23.787  24.531  0.00  0.00    +0.000 A 
ATOM     19  C   UNL     1      28.185  23.772  26.010  0.00  0.00    +0.000 C 
ATOM     20  C   UNL     1      27.042  24.448  26.719  0.00  0.00    +0.000 C 
ATOM     21  C   UNL     1      25.712  24.129  26.129  0.00  0.00    +0.000 C 
ATOM     22  C   UNL     1      25.727  23.037  25.088  0.00  0.00    +0.000 C 
ENDBRANCH   7  12
TORSDOF 1
ENDMDL
MODEL 7
REMARK VINA RESULT:      -6.5     30.199     32.272
REMARK  Name = 
REMARK  1 active torsions:
REMARK  status: ('A' for Active; 'I' for Inactive)
REMARK    1  A    between atoms: C_7  and  C_8
REMARK                            x       y       z     vdW  Elec       q    Type
REMARK                         _______ _______ _______ _____ _____    ______ ____
ROOT
ATOM      1  O   UNL     1      19.944  24.472  35.735  0.00  0.00    +0.000 OA
ATOM      2  C   UNL     1      20.058  23.551  36.798  0.00  0.00    +0.000 A 
ATOM      3  C   UNL     1      20.789  23.935  37.900  0.00  0.00    +0.000 A 
ATOM      4  C   UNL     1      20.917  23.056  38.951  0.00  0.00    +0.000 A 
ATOM      5  C   UNL     1      20.309  21.793  38.891  0.00  0.00    +0.000 A 
ATOM      6  C   UNL     1      19.579  21.407  37.793  0.00  0.00    +0.000 A 
ATOM      7  C   UNL     1      19.464  22.311  36.745  0.00  0.00    +0.000 A 
ATOM      8  C   UNL     1      18.930  20.058  37.726  0.00  0.00    +0.000 C 
ATOM      9  C   UNL     1      18.849  19.410  39.058  0.00  0.00    +0.000 C 
ATOM     10  C   UNL     1      20.225  19.429  39.706  0.00  0.00    +0.000 C 
ATOM     11  C   UNL     1      20.477  20.870  40.068  0.00  0.00    +0.000 C 
ENDROOT
BRANCH   7  12
ATOM     12  C   UNL     1      18.701  21.917  35.589  0.00  0.00    +0.000 A 
ATOM     13  C   UNL     1      19.323  21.180  34.603  0.00  0.00    +0.000 A 
ATOM     14  O   UNL     1      20.672  20.808  34.696  0.00  0.00    +0.000 OA
ATOM     15  C   UNL     1      18.555  20.825  33.516  0.00  0.00    +0.000 A 
ATOM     16  C   UNL     1      17.212  21.194  33.423  0.00  0.00    +0.000 A 
ATOM     17  C   UNL     1      16.602  21.931  34.417  0.00  0.00    +0.000 A 
ATOM     18  C   UNL     1      17.374  22.287  35.506  0.00  0.00    +0.000 A 
ATOM     19  C   UNL     1      16.679  23.082  36.557  0.00  0.00    +0.000 C 
ATOM     20  C   UNL     1      15.884  24.215  35.963  0.00  0.00    +0.000 C 
ATOM     21  C   UNL     1      15.165  23.838  34.715  0.00  0.00    +0.000 C 
ATOM     22  C   UNL     1      15.182  22.364  34.394  0.00  0.00    +0.000 C 
ENDBRANCH   7  12
TORSDOF 1
ENDMDL
MODEL 8
REMARK VINA RESULT:      -6.5      2.012      5.570
REMARK  Name = 
REMARK  1 active torsions:
REMARK  status: ('A' for Active; 'I' for Inactive)
REMARK    1  A    between atoms: C_7  and  C_8
REMARK                            x       y       z     vdW  Elec       q    Type
REMARK                         _______ _______ _______ _____ _____    ______ ____
ROOT
ATOM      1  O   UNL     1      22.032 -10.521  25.473  0.00  0.00    +0.000 OA
ATOM      2  C   UNL     1      21.398  -9.270  25.617  0.00  0.00    +0.000 A 
ATOM      3  C   UNL     1      22.043  -8.164  25.109  0.00  0.00    +0.000 A 
ATOM      4  C   UNL     1      21.447  -6.930  25.236  0.00  0.00    +0.000 A 
ATOM      5  C   UNL     1      20.203  -6.812  25.874  0.00  0.00    +0.000 A 
ATOM      6  C   UNL     1      19.557  -7.912  26.381  0.00  0.00    +0.000 A 
ATOM      7  C   UNL     1      20.178  -9.147  26.241  0.00  0.00    +0.000 A 
ATOM      8  C   UNL     1      18.228  -7.788  27.064  0.00  0.00    +0.000 C 
ATOM      9  C   UNL     1      17.574  -6.487  26.781  0.00  0.00    +0.000 C 
ATOM     10  C   UNL     1      18.555  -5.362  27.075  0.00  0.00    +0.000 C 
ATOM     11  C   UNL     1      19.593  -5.440  25.985  0.00  0.00    +0.000 C 
ENDROOT
BRANCH   7  12
ATOM     12  C   UNL     1      19.509 -10.307  26.769  0.00  0.00    +0.000 A 
ATOM     13  C   UNL     1      18.649 -11.008  25.951  0.00  0.00    +0.000 A 
ATOM     14  O   UNL     1      18.409 -10.621  24.624  0.00  0.00    +0.000 OA
ATOM     15  C   UNL     1      18.031 -12.111  26.498  0.00  0.00    +0.000 A 
ATOM     16  C   UNL     1      18.270 -12.498  27.818  0.00  0.00    +0.000 A 
ATOM     17  C   UNL     1      19.133 -11.787  28.626  0.00  0.00    +0.000 A 
ATOM     18  C   UNL     1      19.751 -10.681  28.076  0.00  0.00    +0.000 A 
ATOM     19  C   UNL     1      20.675  -9.942  28.981  0.00  0.00    +0.000 C 
ATOM     20  C   UNL     1      20.055  -9.698  30.331  0.00  0.00    +0.000 C 
ATOM     21  C   UNL     1      19.284 -10.864  30.844  0.00  0.00    +0.000 C 
ATOM     22  C   UNL     1      19.440 -12.130  30.038  0.00  0.00    +0.000 C 
ENDBRANCH   7  12
TORSDOF 1
ENDMDL
MODEL 9
REMARK VINA RESULT:      -6.4     32.234     34.719
REMARK  Name = 
REMARK  1 active torsions:
REMARK  status: ('A' for Active; 'I' for Inactive)
REMARK    1  A    between atoms: C_7  and  C_8
REMARK                            x       y       z     vdW  Elec       q    Type
REMARK                         _______ _______ _______ _____ _____    ______ ____
ROOT
ATOM      1  O   UNL     1      25.830  22.787  23.249  0.00  0.00    +0.000 OA
ATOM      2  C   UNL     1      26.649  23.918  23.049  0.00  0.00    +0.000 A 
ATOM      3  C   UNL     1      27.021  24.216  21.757  0.00  0.00    +0.000 A 
ATOM      4  C   UNL     1      27.821  25.313  21.533  0.00  0.00    +0.000 A 
ATOM      5  C   UNL     1      28.243  26.108  22.609  0.00  0.00    +0.000 A 
ATOM      6  C   UNL     1      27.874  25.813  23.899  0.00  0.00    +0.000 A 
ATOM      7  C   UNL     1      27.067  24.701  24.100  0.00  0.00    +0.000 A 
ATOM      8  C   UNL     1      28.326  26.660  25.050  0.00  0.00    +0.000 C 
ATOM      9  C   UNL     1      28.843  27.977  24.606  0.00  0.00    +0.000 C 
ATOM     10  C   UNL     1      29.886  27.761  23.519  0.00  0.00    +0.000 C 
ATOM     11  C   UNL     1      29.115  27.299  22.310  0.00  0.00    +0.000 C 
ENDROOT
BRANCH   7  12
ATOM     12  C   UNL     1      26.674  24.383  25.448  0.00  0.00    +0.000 A 
ATOM     13  C   UNL     1      25.540  24.973  25.965  0.00  0.00    +0.000 A 
ATOM     14  O   UNL     1      24.765  25.871  25.218  0.00  0.00    +0.000 OA
ATOM     15  C   UNL     1      25.201  24.639  27.259  0.00  0.00    +0.000 A 
ATOM     16  C   UNL     1      25.971  23.745  28.004  0.00  0.00    +0.000 A 
ATOM     17  C   UNL     1      27.103  23.161  27.474  0.00  0.00    +0.000 A 
ATOM     18  C   UNL     1      27.442  23.498  26.177  0.00  0.00    +0.000 A 
ATOM     19  C   UNL     1      28.670  22.846  25.642  0.00  0.00    +0.000 C 
ATOM     20  C   UNL     1      29.812  22.923  26.620  0.00  0.00    +0.000 C 
ATOM     21  C   UNL     1      29.396  22.685  28.030  0.00  0.00    +0.000 C 
ATOM     22  C   UNL     1      27.976  22.204  28.199  0.00  0.00    +0.000 C 
ENDBRANCH   7  12
TORSDOF 1
ENDMDL
MODEL 10
REMARK VINA RESULT:      -6.2      1.807      5.475
REMARK  Name = 
REMARK  1 active torsions:
REMARK  status: ('A' for Active; 'I' for Inactive)
REMARK    1  A    between atoms: C_7  and  C_8
REMARK                            x       y       z     vdW  Elec       q    Type
REMARK                         _______ _______ _______ _____ _____    ______ ____
ROOT
ATOM      1  O   UNL     1      20.349 -11.351  26.710  0.00  0.00    +0.000 OA
ATOM      2  C   UNL     1      20.223  -9.964  26.483  0.00  0.00    +0.000 A 
ATOM      3  C   UNL     1      21.155  -9.363  25.666  0.00  0.00    +0.000 A 
ATOM      4  C   UNL     1      21.056  -8.012  25.428  0.00  0.00    +0.000 A 
ATOM      5  C   UNL     1      20.021  -7.268  26.012  0.00  0.00    +0.000 A 
ATOM      6  C   UNL     1      19.090  -7.863  26.828  0.00  0.00    +0.000 A 
ATOM      7  C   UNL     1      19.210  -9.229  27.054  0.00  0.00    +0.000 A 
ATOM      8  C   UNL     1      17.984  -7.070  27.455  0.00  0.00    +0.000 C 
ATOM      9  C   UNL     1      17.807  -5.749  26.807  0.00  0.00    +0.000 C 
ATOM     10  C   UNL     1      19.151  -5.039  26.746  0.00  0.00    +0.000 C 
ATOM     11  C   UNL     1      19.956  -5.792  25.719  0.00  0.00    +0.000 C 
ENDROOT
BRANCH   7  12
ATOM     12  C   UNL     1      18.240  -9.864  27.907  0.00  0.00    +0.000 A 
ATOM     13  C   UNL     1      18.512  -9.972  29.255  0.00  0.00    +0.000 A 
ATOM     14  O   UNL     1      19.702  -9.484  29.812  0.00  0.00    +0.000 OA
ATOM     15  C   UNL     1      17.555 -10.587  30.033  0.00  0.00    +0.000 A 
ATOM     16  C   UNL     1      16.370 -11.073  29.480  0.00  0.00    +0.000 A 
ATOM     17  C   UNL     1      16.110 -10.957  28.130  0.00  0.00    +0.000 A 
ATOM     18  C   UNL     1      17.071 -10.342  27.351  0.00  0.00    +0.000 A 
ATOM     19  C   UNL     1      16.753 -10.237  25.899  0.00  0.00    +0.000 C 
ATOM     20  C   UNL     1      16.248 -11.542  25.344  0.00  0.00    +0.000 C 
ATOM     21  C   UNL     1      15.314 -12.249  26.263  0.00  0.00    +0.000 C 
ATOM     22  C   UNL     1      14.877 -11.447  27.464  0.00  0.00    +0.000 C 
ENDBRANCH   7  12
TORSDOF 1
ENDMDL
