MODEL 1
REMARK VINA RESULT:      -8.2      0.000      0.000
REMARK  Name = 
REMARK  1 active torsions:
REMARK  status: ('A' for Active; 'I' for Inactive)
REMARK    1  A    between atoms: C_7  and  C_8
REMARK                            x       y       z     vdW  Elec       q    Type
REMARK                         _______ _______ _______ _____ _____    ______ ____
ROOT
ATOM      1  C   UNL     1      14.981  12.143  36.936  0.00  0.00    +0.000 C 
ATOM      2  C   UNL     1      16.257  11.788  36.201  0.00  0.00    +0.000 C 
ATOM      3  C   UNL     1      17.155  12.984  36.018  0.00  0.00    +0.000 C 
ATOM      4  C   UNL     1      15.939  11.226  34.846  0.00  0.00    +0.000 C 
ATOM      5  O   UNL     1      14.810  11.411  34.295  0.00  0.00    +0.000 OA
ATOM      6  C   UNL     1      16.915  10.446  34.115  0.00  0.00    +0.000 C 
ATOM      7  C   UNL     1      16.944  10.505  32.791  0.00  0.00    +0.000 C 
ATOM      8  C   UNL     1      17.881   9.609  34.871  0.00  0.00    +0.000 C 
ATOM      9  C   UNL     1      17.730   9.774  36.317  0.00  0.00    +0.000 A 
ATOM     10  C   UNL     1      18.385   8.848  37.138  0.00  0.00    +0.000 A 
ATOM     11  C   UNL     1      18.316   8.899  38.506  0.00  0.00    +0.000 A 
ATOM     12  C   UNL     1      17.583   9.885  39.120  0.00  0.00    +0.000 A 
ATOM     13  C   UNL     1      16.940  10.794  38.312  0.00  0.00    +0.000 A 
ATOM     14  C   UNL     1      17.011  10.741  36.934  0.00  0.00    +0.000 A 
ENDROOT
BRANCH   7  15
ATOM     15  C   UNL     1      16.037  11.331  32.003  0.00  0.00    +0.000 A 
ATOM     16  C   UNL     1      16.401  12.631  31.691  0.00  0.00    +0.000 A 
ATOM     17  C   UNL     1      15.541  13.409  30.961  0.00  0.00    +0.000 A 
ATOM     18  C   UNL     1      14.304  12.975  30.502  0.00  0.00    +0.000 A 
ATOM     19  C   UNL     1      13.984  11.680  30.836  0.00  0.00    +0.000 A 
ATOM     20  C   UNL     1      14.818  10.870  31.566  0.00  0.00    +0.000 A 
ATOM     21  N   UNL     1      14.427   9.518  31.896  0.00  0.00    +0.000 NA
ENDBRANCH   7  15
TORSDOF 1
ENDMDL
MODEL 2
REMARK VINA RESULT:      -7.6     20.787     22.306
REMARK  Name = 
REMARK  1 active torsions:
REMARK  status: ('A' for Active; 'I' for Inactive)
REMARK    1  A    between atoms: C_7  and  C_8
REMARK                            x       y       z     vdW  Elec       q    Type
REMARK                         _______ _______ _______ _____ _____    ______ ____
ROOT
ATOM      1  C   UNL     1      21.092  -9.934  26.469  0.00  0.00    +0.000 C 
ATOM      2  C   UNL     1      20.759  -8.816  25.502  0.00  0.00    +0.000 C 
ATOM      3  C   UNL     1      20.133  -9.335  24.234  0.00  0.00    +0.000 C 
ATOM      4  C   UNL     1      22.000  -8.054  25.139  0.00  0.00    +0.000 C 
ATOM      5  O   UNL     1      23.159  -8.544  25.312  0.00  0.00    +0.000 OA
ATOM      6  C   UNL     1      21.919  -6.724  24.575  0.00  0.00    +0.000 C 
ATOM      7  C   UNL     1      22.828  -6.326  23.697  0.00  0.00    +0.000 C 
ATOM      8  C   UNL     1      20.798  -5.837  24.980  0.00  0.00    +0.000 C 
ATOM      9  C   UNL     1      19.864  -6.514  25.877  0.00  0.00    +0.000 A 
ATOM     10  C   UNL     1      18.924  -5.718  26.543  0.00  0.00    +0.000 A 
ATOM     11  C   UNL     1      17.999  -6.238  27.411  0.00  0.00    +0.000 A 
ATOM     12  C   UNL     1      17.971  -7.590  27.653  0.00  0.00    +0.000 A 
ATOM     13  C   UNL     1      18.895  -8.372  26.999  0.00  0.00    +0.000 A 
ATOM     14  C   UNL     1      19.826  -7.845  26.126  0.00  0.00    +0.000 A 
ENDROOT
BRANCH   7  15
ATOM     15  C   UNL     1      23.931  -7.167  23.246  0.00  0.00    +0.000 A 
ATOM     16  C   UNL     1      25.187  -6.998  23.807  0.00  0.00    +0.000 A 
ATOM     17  C   UNL     1      26.224  -7.782  23.372  0.00  0.00    +0.000 A 
ATOM     18  C   UNL     1      26.100  -8.754  22.388  0.00  0.00    +0.000 A 
ATOM     19  C   UNL     1      24.838  -8.887  21.860  0.00  0.00    +0.000 A 
ATOM     20  C   UNL     1      23.774  -8.120  22.268  0.00  0.00    +0.000 A 
ATOM     21  N   UNL     1      22.469  -8.296  21.671  0.00  0.00    +0.000 NA
ENDBRANCH   7  15
TORSDOF 1
ENDMDL
MODEL 3
REMARK VINA RESULT:      -7.2     27.898     30.109
REMARK  Name = 
REMARK  1 active torsions:
REMARK  status: ('A' for Active; 'I' for Inactive)
REMARK    1  A    between atoms: C_7  and  C_8
REMARK                            x       y       z     vdW  Elec       q    Type
REMARK                         _______ _______ _______ _____ _____    ______ ____
ROOT
ATOM      1  C   UNL     1      31.430  22.913   8.257  0.00  0.00    +0.000 C 
ATOM      2  C   UNL     1      31.377  21.914   9.396  0.00  0.00    +0.000 C 
ATOM      3  C   UNL     1      30.631  20.662   9.014  0.00  0.00    +0.000 C 
ATOM      4  C   UNL     1      30.700  22.521  10.590  0.00  0.00    +0.000 C 
ATOM      5  O   UNL     1      29.958  23.546  10.488  0.00  0.00    +0.000 OA
ATOM      6  C   UNL     1      30.871  21.954  11.911  0.00  0.00    +0.000 C 
ATOM      7  C   UNL     1      29.876  22.011  12.784  0.00  0.00    +0.000 C 
ATOM      8  C   UNL     1      32.160  21.300  12.252  0.00  0.00    +0.000 C 
ATOM      9  C   UNL     1      33.073  21.266  11.111  0.00  0.00    +0.000 A 
ATOM     10  C   UNL     1      34.407  20.927  11.368  0.00  0.00    +0.000 A 
ATOM     11  C   UNL     1      35.356  20.865  10.380  0.00  0.00    +0.000 A 
ATOM     12  C   UNL     1      35.010  21.139   9.080  0.00  0.00    +0.000 A 
ATOM     13  C   UNL     1      33.699  21.472   8.828  0.00  0.00    +0.000 A 
ATOM     14  C   UNL     1      32.746  21.535   9.825  0.00  0.00    +0.000 A 
ENDROOT
BRANCH   7  15
ATOM     15  C   UNL     1      28.582  22.618  12.490  0.00  0.00    +0.000 A 
ATOM     16  C   UNL     1      27.773  22.052  11.518  0.00  0.00    +0.000 A 
ATOM     17  C   UNL     1      26.564  22.631  11.234  0.00  0.00    +0.000 A 
ATOM     18  C   UNL     1      26.083  23.769  11.869  0.00  0.00    +0.000 A 
ATOM     19  C   UNL     1      26.918  24.297  12.825  0.00  0.00    +0.000 A 
ATOM     20  C   UNL     1      28.138  23.746  13.136  0.00  0.00    +0.000 A 
ATOM     21  N   UNL     1      28.980  24.347  14.145  0.00  0.00    +0.000 NA
ENDBRANCH   7  15
TORSDOF 1
ENDMDL
MODEL 4
REMARK VINA RESULT:      -7.1     20.051     22.848
REMARK  Name = 
REMARK  1 active torsions:
REMARK  status: ('A' for Active; 'I' for Inactive)
REMARK    1  A    between atoms: C_7  and  C_8
REMARK                            x       y       z     vdW  Elec       q    Type
REMARK                         _______ _______ _______ _____ _____    ______ ____
ROOT
ATOM      1  C   UNL     1      29.303  28.025  24.357  0.00  0.00    +0.000 C 
ATOM      2  C   UNL     1      28.739  26.987  23.407  0.00  0.00    +0.000 C 
ATOM      3  C   UNL     1      27.238  26.897  23.497  0.00  0.00    +0.000 C 
ATOM      4  C   UNL     1      29.313  25.635  23.714  0.00  0.00    +0.000 C 
ATOM      5  O   UNL     1      29.856  25.377  24.832  0.00  0.00    +0.000 OA
ATOM      6  C   UNL     1      29.267  24.567  22.737  0.00  0.00    +0.000 C 
ATOM      7  C   UNL     1      29.142  23.312  23.141  0.00  0.00    +0.000 C 
ATOM      8  C   UNL     1      29.342  24.909  21.293  0.00  0.00    +0.000 C 
ATOM      9  C   UNL     1      29.377  26.355  21.076  0.00  0.00    +0.000 A 
ATOM     10  C   UNL     1      29.720  26.802  19.794  0.00  0.00    +0.000 A 
ATOM     11  C   UNL     1      29.787  28.133  19.471  0.00  0.00    +0.000 A 
ATOM     12  C   UNL     1      29.513  29.084  20.423  0.00  0.00    +0.000 A 
ATOM     13  C   UNL     1      29.177  28.644  21.683  0.00  0.00    +0.000 A 
ATOM     14  C   UNL     1      29.110  27.303  22.005  0.00  0.00    +0.000 A 
ENDROOT
BRANCH   7  15
ATOM     15  C   UNL     1      29.038  22.926  24.543  0.00  0.00    +0.000 A 
ATOM     16  C   UNL     1      30.178  22.539  25.228  0.00  0.00    +0.000 A 
ATOM     17  C   UNL     1      30.074  22.165  26.542  0.00  0.00    +0.000 A 
ATOM     18  C   UNL     1      28.880  22.148  27.250  0.00  0.00    +0.000 A 
ATOM     19  C   UNL     1      27.775  22.538  26.532  0.00  0.00    +0.000 A 
ATOM     20  C   UNL     1      27.838  22.919  25.214  0.00  0.00    +0.000 A 
ATOM     21  N   UNL     1      26.642  23.313  24.504  0.00  0.00    +0.000 NA
ENDBRANCH   7  15
TORSDOF 1
ENDMDL
MODEL 5
REMARK VINA RESULT:      -6.9      5.478      7.208
REMARK  Name = 
REMARK  1 active torsions:
REMARK  status: ('A' for Active; 'I' for Inactive)
REMARK    1  A    between atoms: C_7  and  C_8
REMARK                            x       y       z     vdW  Elec       q    Type
REMARK                         _______ _______ _______ _____ _____    ______ ____
ROOT
ATOM      1  C   UNL     1      21.533  12.676  40.358  0.00  0.00    +0.000 C 
ATOM      2  C   UNL     1      21.098  12.147  39.006  0.00  0.00    +0.000 C 
ATOM      3  C   UNL     1      20.205  13.118  38.280  0.00  0.00    +0.000 C 
ATOM      4  C   UNL     1      20.356  10.852  39.168  0.00  0.00    +0.000 C 
ATOM      5  O   UNL     1      19.850  10.507  40.280  0.00  0.00    +0.000 OA
ATOM      6  C   UNL     1      20.189   9.945  38.052  0.00  0.00    +0.000 C 
ATOM      7  C   UNL     1      19.089   9.212  37.961  0.00  0.00    +0.000 C 
ATOM      8  C   UNL     1      21.254   9.871  37.019  0.00  0.00    +0.000 C 
ATOM      9  C   UNL     1      22.324  10.835  37.269  0.00  0.00    +0.000 A 
ATOM     10  C   UNL     1      23.507  10.684  36.535  0.00  0.00    +0.000 A 
ATOM     11  C   UNL     1      24.580  11.524  36.683  0.00  0.00    +0.000 A 
ATOM     12  C   UNL     1      24.519  12.561  37.581  0.00  0.00    +0.000 A 
ATOM     13  C   UNL     1      23.357  12.709  38.303  0.00  0.00    +0.000 A 
ATOM     14  C   UNL     1      22.278  11.861  38.151  0.00  0.00    +0.000 A 
ENDROOT
BRANCH   7  15
ATOM     15  C   UNL     1      18.003   9.267  38.933  0.00  0.00    +0.000 A 
ATOM     16  C   UNL     1      18.022   8.408  40.020  0.00  0.00    +0.000 A 
ATOM     17  C   UNL     1      16.993   8.454  40.925  0.00  0.00    +0.000 A 
ATOM     18  C   UNL     1      15.913   9.321  40.826  0.00  0.00    +0.000 A 
ATOM     19  C   UNL     1      15.936  10.154  39.733  0.00  0.00    +0.000 A 
ATOM     20  C   UNL     1      16.948  10.138  38.804  0.00  0.00    +0.000 A 
ATOM     21  N   UNL     1      16.917  11.030  37.667  0.00  0.00    +0.000 NA
ENDBRANCH   7  15
TORSDOF 1
ENDMDL
MODEL 6
REMARK VINA RESULT:      -6.9      3.456      7.790
REMARK  Name = 
REMARK  1 active torsions:
REMARK  status: ('A' for Active; 'I' for Inactive)
REMARK    1  A    between atoms: C_7  and  C_8
REMARK                            x       y       z     vdW  Elec       q    Type
REMARK                         _______ _______ _______ _____ _____    ______ ____
ROOT
ATOM      1  C   UNL     1      19.084   9.790  36.381  0.00  0.00    +0.000 C 
ATOM      2  C   UNL     1      18.227  10.528  37.390  0.00  0.00    +0.000 C 
ATOM      3  C   UNL     1      18.946  11.713  37.979  0.00  0.00    +0.000 C 
ATOM      4  C   UNL     1      17.834   9.610  38.510  0.00  0.00    +0.000 C 
ATOM      5  O   UNL     1      18.462   8.531  38.741  0.00  0.00    +0.000 OA
ATOM      6  C   UNL     1      16.714   9.924  39.372  0.00  0.00    +0.000 C 
ATOM      7  C   UNL     1      16.743   9.558  40.646  0.00  0.00    +0.000 C 
ATOM      8  C   UNL     1      15.561  10.673  38.811  0.00  0.00    +0.000 C 
ATOM      9  C   UNL     1      15.786  11.058  37.418  0.00  0.00    +0.000 A 
ATOM     10  C   UNL     1      14.681  11.522  36.695  0.00  0.00    +0.000 A 
ATOM     11  C   UNL     1      14.768  11.910  35.384  0.00  0.00    +0.000 A 
ATOM     12  C   UNL     1      15.975  11.851  34.730  0.00  0.00    +0.000 A 
ATOM     13  C   UNL     1      17.061  11.394  35.441  0.00  0.00    +0.000 A 
ATOM     14  C   UNL     1      16.970  11.003  36.762  0.00  0.00    +0.000 A 
ENDROOT
BRANCH   7  15
ATOM     15  C   UNL     1      17.863   8.846  41.252  0.00  0.00    +0.000 A 
ATOM     16  C   UNL     1      18.989   9.555  41.638  0.00  0.00    +0.000 A 
ATOM     17  C   UNL     1      20.044   8.882  42.196  0.00  0.00    +0.000 A 
ATOM     18  C   UNL     1      20.062   7.509  42.406  0.00  0.00    +0.000 A 
ATOM     19  C   UNL     1      18.925   6.846  42.008  0.00  0.00    +0.000 A 
ATOM     20  C   UNL     1      17.848   7.485  41.444  0.00  0.00    +0.000 A 
ATOM     21  N   UNL     1      16.680   6.737  41.036  0.00  0.00    +0.000 NA
ENDBRANCH   7  15
TORSDOF 1
ENDMDL
MODEL 7
REMARK VINA RESULT:      -6.8     19.834     21.356
REMARK  Name = 
REMARK  1 active torsions:
REMARK  status: ('A' for Active; 'I' for Inactive)
REMARK    1  A    between atoms: C_7  and  C_8
REMARK                            x       y       z     vdW  Elec       q    Type
REMARK                         _______ _______ _______ _____ _____    ______ ____
ROOT
ATOM      1  C   UNL     1      25.820   4.896  14.581  0.00  0.00    +0.000 C 
ATOM      2  C   UNL     1      26.108   4.272  15.932  0.00  0.00    +0.000 C 
ATOM      3  C   UNL     1      26.941   3.023  15.810  0.00  0.00    +0.000 C 
ATOM      4  C   UNL     1      24.825   3.919  16.626  0.00  0.00    +0.000 C 
ATOM      5  O   UNL     1      23.731   3.804  15.991  0.00  0.00    +0.000 OA
ATOM      6  C   UNL     1      24.789   3.695  18.056  0.00  0.00    +0.000 C 
ATOM      7  C   UNL     1      23.941   2.810  18.561  0.00  0.00    +0.000 C 
ATOM      8  C   UNL     1      25.724   4.452  18.927  0.00  0.00    +0.000 C 
ATOM      9  C   UNL     1      26.632   5.294  18.150  0.00  0.00    +0.000 A 
ATOM     10  C   UNL     1      27.370   6.256  18.851  0.00  0.00    +0.000 A 
ATOM     11  C   UNL     1      28.251   7.104  18.231  0.00  0.00    +0.000 A 
ATOM     12  C   UNL     1      28.435   7.029  16.872  0.00  0.00    +0.000 A 
ATOM     13  C   UNL     1      27.708   6.085  16.184  0.00  0.00    +0.000 A 
ATOM     14  C   UNL     1      26.821   5.232  16.811  0.00  0.00    +0.000 A 
ENDROOT
BRANCH   7  15
ATOM     15  C   UNL     1      23.023   2.022  17.747  0.00  0.00    +0.000 A 
ATOM     16  C   UNL     1      21.727   2.472  17.557  0.00  0.00    +0.000 A 
ATOM     17  C   UNL     1      20.862   1.723  16.802  0.00  0.00    +0.000 A 
ATOM     18  C   UNL     1      21.204   0.519  16.200  0.00  0.00    +0.000 A 
ATOM     19  C   UNL     1      22.499   0.110  16.415  0.00  0.00    +0.000 A 
ATOM     20  C   UNL     1      23.394   0.832  17.166  0.00  0.00    +0.000 A 
ATOM     21  N   UNL     1      24.743   0.351  17.367  0.00  0.00    +0.000 NA
ENDBRANCH   7  15
TORSDOF 1
ENDMDL
MODEL 8
REMARK VINA RESULT:      -6.8     28.320     30.816
REMARK  Name = 
REMARK  1 active torsions:
REMARK  status: ('A' for Active; 'I' for Inactive)
REMARK    1  A    between atoms: C_7  and  C_8
REMARK                            x       y       z     vdW  Elec       q    Type
REMARK                         _______ _______ _______ _____ _____    ______ ____
ROOT
ATOM      1  C   UNL     1      34.134  23.350   9.231  0.00  0.00    +0.000 C 
ATOM      2  C   UNL     1      33.825  21.973   9.783  0.00  0.00    +0.000 C 
ATOM      3  C   UNL     1      33.159  21.092   8.760  0.00  0.00    +0.000 C 
ATOM      4  C   UNL     1      32.918  22.082  10.974  0.00  0.00    +0.000 C 
ATOM      5  O   UNL     1      32.230  23.126  11.198  0.00  0.00    +0.000 OA
ATOM      6  C   UNL     1      32.795  20.991  11.918  0.00  0.00    +0.000 C 
ATOM      7  C   UNL     1      31.637  20.776  12.527  0.00  0.00    +0.000 C 
ATOM      8  C   UNL     1      33.971  20.120  12.170  0.00  0.00    +0.000 C 
ATOM      9  C   UNL     1      35.106  20.478  11.321  0.00  0.00    +0.000 A 
ATOM     10  C   UNL     1      36.350  19.923  11.645  0.00  0.00    +0.000 A 
ATOM     11  C   UNL     1      37.486  20.186  10.925  0.00  0.00    +0.000 A 
ATOM     12  C   UNL     1      37.430  21.024   9.838  0.00  0.00    +0.000 A 
ATOM     13  C   UNL     1      36.207  21.571   9.520  0.00  0.00    +0.000 A 
ATOM     14  C   UNL     1      35.065  21.304  10.248  0.00  0.00    +0.000 A 
ENDROOT
BRANCH   7  15
ATOM     15  C   UNL     1      30.445  21.585  12.294  0.00  0.00    +0.000 A 
ATOM     16  C   UNL     1      30.149  22.622  13.164  0.00  0.00    +0.000 A 
ATOM     17  C   UNL     1      29.022  23.372  12.950  0.00  0.00    +0.000 A 
ATOM     18  C   UNL     1      28.139  23.160  11.900  0.00  0.00    +0.000 A 
ATOM     19  C   UNL     1      28.471  22.121  11.063  0.00  0.00    +0.000 A 
ATOM     20  C   UNL     1      29.591  21.346  11.244  0.00  0.00    +0.000 A 
ATOM     21  N   UNL     1      29.889  20.260  10.338  0.00  0.00    +0.000 NA
ENDBRANCH   7  15
TORSDOF 1
ENDMDL
MODEL 9
REMARK VINA RESULT:      -6.8     19.837     21.430
REMARK  Name = 
REMARK  1 active torsions:
REMARK  status: ('A' for Active; 'I' for Inactive)
REMARK    1  A    between atoms: C_7  and  C_8
REMARK                            x       y       z     vdW  Elec       q    Type
REMARK                         _______ _______ _______ _____ _____    ______ ____
ROOT
ATOM      1  C   UNL     1      32.222  26.014  26.227  0.00  0.00    +0.000 C 
ATOM      2  C   UNL     1      31.890  24.612  25.756  0.00  0.00    +0.000 C 
ATOM      3  C   UNL     1      32.827  24.144  24.673  0.00  0.00    +0.000 C 
ATOM      4  C   UNL     1      30.488  24.559  25.223  0.00  0.00    +0.000 C 
ATOM      5  O   UNL     1      29.868  25.610  24.871  0.00  0.00    +0.000 OA
ATOM      6  C   UNL     1      29.788  23.299  25.091  0.00  0.00    +0.000 C 
ATOM      7  C   UNL     1      28.921  23.130  24.103  0.00  0.00    +0.000 C 
ATOM      8  C   UNL     1      30.075  22.211  26.061  0.00  0.00    +0.000 C 
ATOM      9  C   UNL     1      31.132  22.583  27.000  0.00  0.00    +0.000 A 
ATOM     10  C   UNL     1      31.307  21.765  28.123  0.00  0.00    +0.000 A 
ATOM     11  C   UNL     1      32.262  22.013  29.074  0.00  0.00    +0.000 A 
ATOM     12  C   UNL     1      33.093  23.099  28.944  0.00  0.00    +0.000 A 
ATOM     13  C   UNL     1      32.920  23.903  27.841  0.00  0.00    +0.000 A 
ATOM     14  C   UNL     1      31.956  23.651  26.885  0.00  0.00    +0.000 A 
ENDROOT
BRANCH   7  15
ATOM     15  C   UNL     1      28.625  24.156  23.110  0.00  0.00    +0.000 A 
ATOM     16  C   UNL     1      29.507  24.360  22.061  0.00  0.00    +0.000 A 
ATOM     17  C   UNL     1      29.231  25.333  21.136  0.00  0.00    +0.000 A 
ATOM     18  C   UNL     1      28.105  26.144  21.178  0.00  0.00    +0.000 A 
ATOM     19  C   UNL     1      27.259  25.907  22.235  0.00  0.00    +0.000 A 
ATOM     20  C   UNL     1      27.500  24.942  23.183  0.00  0.00    +0.000 A 
ATOM     21  N   UNL     1      26.580  24.741  24.279  0.00  0.00    +0.000 NA
ENDBRANCH   7  15
TORSDOF 1
ENDMDL
MODEL 10
REMARK VINA RESULT:      -6.7     19.658     21.753
REMARK  Name = 
REMARK  1 active torsions:
REMARK  status: ('A' for Active; 'I' for Inactive)
REMARK    1  A    between atoms: C_7  and  C_8
REMARK                            x       y       z     vdW  Elec       q    Type
REMARK                         _______ _______ _______ _____ _____    ______ ____
ROOT
ATOM      1  C   UNL     1      30.973  25.542  25.823  0.00  0.00    +0.000 C 
ATOM      2  C   UNL     1      30.136  24.568  25.018  0.00  0.00    +0.000 C 
ATOM      3  C   UNL     1      30.983  23.705  24.120  0.00  0.00    +0.000 C 
ATOM      4  C   UNL     1      29.149  25.310  24.166  0.00  0.00    +0.000 C 
ATOM      5  O   UNL     1      29.296  26.541  23.891  0.00  0.00    +0.000 OA
ATOM      6  C   UNL     1      27.984  24.643  23.623  0.00  0.00    +0.000 C 
ATOM      7  C   UNL     1      27.507  25.011  22.443  0.00  0.00    +0.000 C 
ATOM      8  C   UNL     1      27.360  23.540  24.398  0.00  0.00    +0.000 C 
ATOM      9  C   UNL     1      28.108  23.239  25.617  0.00  0.00    +0.000 A 
ATOM     10  C   UNL     1      27.484  22.418  26.565  0.00  0.00    +0.000 A 
ATOM     11  C   UNL     1      28.084  22.068  27.746  0.00  0.00    +0.000 A 
ATOM     12  C   UNL     1      29.346  22.528  28.037  0.00  0.00    +0.000 A 
ATOM     13  C   UNL     1      29.958  23.335  27.106  0.00  0.00    +0.000 A 
ATOM     14  C   UNL     1      29.351  23.686  25.916  0.00  0.00    +0.000 A 
ENDROOT
BRANCH   7  15
ATOM     15  C   UNL     1      28.099  26.069  21.631  0.00  0.00    +0.000 A 
ATOM     16  C   UNL     1      27.562  27.345  21.682  0.00  0.00    +0.000 A 
ATOM     17  C   UNL     1      28.113  28.333  20.908  0.00  0.00    +0.000 A 
ATOM     18  C   UNL     1      29.196  28.139  20.061  0.00  0.00    +0.000 A 
ATOM     19  C   UNL     1      29.695  26.859  20.041  0.00  0.00    +0.000 A 
ATOM     20  C   UNL     1      29.171  25.842  20.801  0.00  0.00    +0.000 A 
ATOM     21  N   UNL     1      29.731  24.510  20.735  0.00  0.00    +0.000 NA
ENDBRANCH   7  15
TORSDOF 1
ENDMDL
