MODEL 1
REMARK VINA RESULT:      -8.4      0.000      0.000
REMARK  Name = 
REMARK  6 active torsions:
REMARK  status: ('A' for Active; 'I' for Inactive)
REMARK    1  A    between atoms: C_3  and  C_4
REMARK    2  A    between atoms: N_6  and  C_7
REMARK    3  A    between atoms: C_7  and  C_8
REMARK    4  A    between atoms: C_8  and  C_9
REMARK    5  A    between atoms: N_25  and  C_26
REMARK    6  A    between atoms: C_26  and  C_27
REMARK                            x       y       z     vdW  Elec       q    Type
REMARK                         _______ _______ _______ _____ _____    ______ ____
ROOT
ATOM      1  N   UNL     1      39.928   2.613  13.055  0.00  0.00    +0.000 NA
ATOM      2  C   UNL     1      38.956   1.813  13.731  0.00  0.00    +0.000 A 
ATOM      3  C   UNL     1      38.143   2.278  14.732  0.00  0.00    +0.000 A 
ATOM      4  C   UNL     1      37.354   1.219  15.124  0.00  0.00    +0.000 A 
ATOM      5  N   UNL     1      36.399   1.064  16.031  0.00  0.00    +0.000 NA
ATOM      6  C   UNL     1      35.776  -0.123  16.206  0.00  0.00    +0.000 A 
ATOM      7  C   UNL     1      34.787  -0.259  17.154  0.00  0.00    +0.000 A 
ATOM      8  C   UNL     1      34.165  -1.493  17.311  0.00  0.00    +0.000 A 
ATOM      9  C   UNL     1      34.518  -2.583  16.538  0.00  0.00    +0.000 A 
ATOM     10  C   UNL     1      35.510  -2.408  15.602  0.00  0.00    +0.000 A 
ATOM     11  C   UNL     1      36.155  -1.185  15.416  0.00  0.00    +0.000 A 
ATOM     12  N   UNL     1      37.126  -1.054  14.485  0.00  0.00    +0.000 NA
ATOM     13  C   UNL     1      37.726   0.141  14.335  0.00  0.00    +0.000 A 
ATOM     14  N   UNL     1      38.703   0.511  13.490  0.00  0.00    +0.000 N 
ENDROOT
BRANCH   3  15
ATOM     15  C   UNL     1      38.109   3.640  15.286  0.00  0.00    +0.000 C 
ATOM     16  O   UNL     1      37.651   4.590  14.603  0.00  0.00    +0.000 OA
ATOM     17  N   UNL     1      38.585   3.924  16.592  0.00  0.00    +0.000 NA
BRANCH  17  18
ATOM     18  C   UNL     1      38.532   5.266  17.087  0.00  0.00    +0.000 C 
BRANCH  18  19
ATOM     19  C   UNL     1      38.954   5.229  18.560  0.00  0.00    +0.000 C 
BRANCH  19  20
ATOM     20  C   UNL     1      40.220   5.978  18.758  0.00  0.00    +0.000 C 
ATOM     21  C   UNL     1      41.005   6.160  17.710  0.00  0.00    +0.000 C 
ATOM     22  C   UNL     1      42.297   6.890  17.770  0.00  0.00    +0.000 C 
ATOM     23  C   UNL     1      42.840   6.811  19.198  0.00  0.00    +0.000 C 
ATOM     24  C   UNL     1      41.813   7.235  20.196  0.00  0.00    +0.000 C 
ATOM     25  C   UNL     1      40.528   6.477  20.120  0.00  0.00    +0.000 C 
ENDBRANCH  19  20
ENDBRANCH  18  19
ENDBRANCH  17  18
ENDBRANCH   3  15
BRANCH  14  26
ATOM     26  C   UNL     1      39.404  -0.267  12.484  0.00  0.00    +0.000 C 
BRANCH  26  27
ATOM     27  C   UNL     1      40.398  -1.167  13.118  0.00  0.00    +0.000 A 
ATOM     28  C   UNL     1      41.541  -0.774  13.783  0.00  0.00    +0.000 A 
ATOM     29  C   UNL     1      42.183  -1.914  14.219  0.00  0.00    +0.000 A 
ATOM     30  C   UNL     1      41.396  -2.964  13.795  0.00  0.00    +0.000 A 
ATOM     31  O   UNL     1      40.363  -2.477  13.156  0.00  0.00    +0.000 OA
ENDBRANCH  26  27
ENDBRANCH  14  26
TORSDOF 6
ENDMDL
MODEL 2
REMARK VINA RESULT:      -8.2      2.095      4.328
REMARK  Name = 
REMARK  6 active torsions:
REMARK  status: ('A' for Active; 'I' for Inactive)
REMARK    1  A    between atoms: C_3  and  C_4
REMARK    2  A    between atoms: N_6  and  C_7
REMARK    3  A    between atoms: C_7  and  C_8
REMARK    4  A    between atoms: C_8  and  C_9
REMARK    5  A    between atoms: N_25  and  C_26
REMARK    6  A    between atoms: C_26  and  C_27
REMARK                            x       y       z     vdW  Elec       q    Type
REMARK                         _______ _______ _______ _____ _____    ______ ____
ROOT
ATOM      1  N   UNL     1      35.727   0.827  17.358  0.00  0.00    +0.000 NA
ATOM      2  C   UNL     1      36.511   0.397  16.242  0.00  0.00    +0.000 A 
ATOM      3  C   UNL     1      37.175   1.248  15.399  0.00  0.00    +0.000 A 
ATOM      4  C   UNL     1      37.808   0.462  14.461  0.00  0.00    +0.000 A 
ATOM      5  N   UNL     1      38.582   0.713  13.415  0.00  0.00    +0.000 NA
ATOM      6  C   UNL     1      39.078  -0.283  12.646  0.00  0.00    +0.000 A 
ATOM      7  C   UNL     1      39.881   0.004  11.565  0.00  0.00    +0.000 A 
ATOM      8  C   UNL     1      40.376  -1.043  10.794  0.00  0.00    +0.000 A 
ATOM      9  C   UNL     1      40.079  -2.360  11.088  0.00  0.00    +0.000 A 
ATOM     10  C   UNL     1      39.274  -2.606  12.176  0.00  0.00    +0.000 A 
ATOM     11  C   UNL     1      38.760  -1.582  12.972  0.00  0.00    +0.000 A 
ATOM     12  N   UNL     1      37.972  -1.866  14.033  0.00  0.00    +0.000 NA
ATOM     13  C   UNL     1      37.495  -0.852  14.778  0.00  0.00    +0.000 A 
ATOM     14  N   UNL     1      36.704  -0.883  15.864  0.00  0.00    +0.000 N 
ENDROOT
BRANCH   3  15
ATOM     15  C   UNL     1      37.215   2.716  15.472  0.00  0.00    +0.000 C 
ATOM     16  O   UNL     1      36.601   3.409  14.623  0.00  0.00    +0.000 OA
ATOM     17  N   UNL     1      37.940   3.391  16.488  0.00  0.00    +0.000 NA
BRANCH  17  18
ATOM     18  C   UNL     1      37.950   4.822  16.517  0.00  0.00    +0.000 C 
BRANCH  18  19
ATOM     19  C   UNL     1      39.398   5.276  16.289  0.00  0.00    +0.000 C 
BRANCH  19  20
ATOM     20  C   UNL     1      39.961   5.863  17.530  0.00  0.00    +0.000 C 
ATOM     21  C   UNL     1      41.233   6.219  17.527  0.00  0.00    +0.000 C 
ATOM     22  C   UNL     1      41.920   6.818  18.701  0.00  0.00    +0.000 C 
ATOM     23  C   UNL     1      41.195   6.376  19.972  0.00  0.00    +0.000 C 
ATOM     24  C   UNL     1      39.727   6.638  19.882  0.00  0.00    +0.000 C 
ATOM     25  C   UNL     1      39.060   6.015  18.698  0.00  0.00    +0.000 C 
ENDBRANCH  19  20
ENDBRANCH  18  19
ENDBRANCH  17  18
ENDBRANCH   3  15
BRANCH  14  26
ATOM     26  C   UNL     1      36.128  -2.019  16.560  0.00  0.00    +0.000 C 
BRANCH  26  27
ATOM     27  C   UNL     1      37.115  -2.616  17.493  0.00  0.00    +0.000 A 
ATOM     28  C   UNL     1      37.870  -3.747  17.262  0.00  0.00    +0.000 A 
ATOM     29  C   UNL     1      38.656  -3.958  18.375  0.00  0.00    +0.000 A 
ATOM     30  C   UNL     1      38.343  -2.936  19.246  0.00  0.00    +0.000 A 
ATOM     31  O   UNL     1      37.437  -2.177  18.686  0.00  0.00    +0.000 OA
ENDBRANCH  26  27
ENDBRANCH  14  26
TORSDOF 6
ENDMDL
MODEL 3
REMARK VINA RESULT:      -7.8      2.296      7.038
REMARK  Name = 
REMARK  6 active torsions:
REMARK  status: ('A' for Active; 'I' for Inactive)
REMARK    1  A    between atoms: C_3  and  C_4
REMARK    2  A    between atoms: N_6  and  C_7
REMARK    3  A    between atoms: C_7  and  C_8
REMARK    4  A    between atoms: C_8  and  C_9
REMARK    5  A    between atoms: N_25  and  C_26
REMARK    6  A    between atoms: C_26  and  C_27
REMARK                            x       y       z     vdW  Elec       q    Type
REMARK                         _______ _______ _______ _____ _____    ______ ____
ROOT
ATOM      1  N   UNL     1      35.919   1.313  13.886  0.00  0.00    +0.000 NA
ATOM      2  C   UNL     1      36.712   2.239  14.633  0.00  0.00    +0.000 A 
ATOM      3  C   UNL     1      36.685   2.342  15.999  0.00  0.00    +0.000 A 
ATOM      4  C   UNL     1      37.578   3.335  16.337  0.00  0.00    +0.000 A 
ATOM      5  N   UNL     1      37.973   3.872  17.484  0.00  0.00    +0.000 NA
ATOM      6  C   UNL     1      38.891   4.864  17.521  0.00  0.00    +0.000 A 
ATOM      7  C   UNL     1      39.286   5.405  18.724  0.00  0.00    +0.000 A 
ATOM      8  C   UNL     1      40.232   6.424  18.730  0.00  0.00    +0.000 A 
ATOM      9  C   UNL     1      40.782   6.905  17.558  0.00  0.00    +0.000 A 
ATOM     10  C   UNL     1      40.363   6.340  16.376  0.00  0.00    +0.000 A 
ATOM     11  C   UNL     1      39.417   5.316  16.331  0.00  0.00    +0.000 A 
ATOM     12  N   UNL     1      39.031   4.787  15.149  0.00  0.00    +0.000 NA
ATOM     13  C   UNL     1      38.116   3.801  15.146  0.00  0.00    +0.000 A 
ATOM     14  N   UNL     1      37.582   3.127  14.112  0.00  0.00    +0.000 N 
ENDROOT
BRANCH   3  15
ATOM     15  C   UNL     1      35.870   1.552  16.932  0.00  0.00    +0.000 C 
ATOM     16  O   UNL     1      34.616   1.624  16.895  0.00  0.00    +0.000 OA
ATOM     17  N   UNL     1      36.462   0.694  17.895  0.00  0.00    +0.000 NA
BRANCH  17  18
ATOM     18  C   UNL     1      35.626  -0.055  18.783  0.00  0.00    +0.000 C 
BRANCH  18  19
ATOM     19  C   UNL     1      36.468  -1.206  19.346  0.00  0.00    +0.000 C 
BRANCH  19  20
ATOM     20  C   UNL     1      36.911  -2.109  18.254  0.00  0.00    +0.000 C 
ATOM     21  C   UNL     1      35.987  -2.630  17.466  0.00  0.00    +0.000 C 
ATOM     22  C   UNL     1      36.294  -3.548  16.339  0.00  0.00    +0.000 C 
ATOM     23  C   UNL     1      37.621  -4.252  16.625  0.00  0.00    +0.000 C 
ATOM     24  C   UNL     1      38.695  -3.273  16.971  0.00  0.00    +0.000 C 
ATOM     25  C   UNL     1      38.364  -2.371  18.115  0.00  0.00    +0.000 C 
ENDBRANCH  19  20
ENDBRANCH  18  19
ENDBRANCH  17  18
ENDBRANCH   3  15
BRANCH  14  26
ATOM     26  C   UNL     1      37.834   3.262  12.689  0.00  0.00    +0.000 C 
BRANCH  26  27
ATOM     27  C   UNL     1      38.731   2.180  12.212  0.00  0.00    +0.000 A 
ATOM     28  C   UNL     1      38.482   1.325  11.158  0.00  0.00    +0.000 A 
ATOM     29  C   UNL     1      39.562   0.475  11.048  0.00  0.00    +0.000 A 
ATOM     30  C   UNL     1      40.431   0.851  12.050  0.00  0.00    +0.000 A 
ATOM     31  O   UNL     1      39.901   1.853  12.703  0.00  0.00    +0.000 OA
ENDBRANCH  26  27
ENDBRANCH  14  26
TORSDOF 6
ENDMDL
MODEL 4
REMARK VINA RESULT:      -7.7      1.509      1.825
REMARK  Name = 
REMARK  6 active torsions:
REMARK  status: ('A' for Active; 'I' for Inactive)
REMARK    1  A    between atoms: C_3  and  C_4
REMARK    2  A    between atoms: N_6  and  C_7
REMARK    3  A    between atoms: C_7  and  C_8
REMARK    4  A    between atoms: C_8  and  C_9
REMARK    5  A    between atoms: N_25  and  C_26
REMARK    6  A    between atoms: C_26  and  C_27
REMARK                            x       y       z     vdW  Elec       q    Type
REMARK                         _______ _______ _______ _____ _____    ______ ____
ROOT
ATOM      1  N   UNL     1      41.395   1.670  13.385  0.00  0.00    +0.000 NA
ATOM      2  C   UNL     1      40.322   0.927  13.966  0.00  0.00    +0.000 A 
ATOM      3  C   UNL     1      39.234   1.499  14.572  0.00  0.00    +0.000 A 
ATOM      4  C   UNL     1      38.431   0.465  15.001  0.00  0.00    +0.000 A 
ATOM      5  N   UNL     1      37.271   0.399  15.639  0.00  0.00    +0.000 NA
ATOM      6  C   UNL     1      36.696  -0.787  15.941  0.00  0.00    +0.000 A 
ATOM      7  C   UNL     1      35.489  -0.830  16.603  0.00  0.00    +0.000 A 
ATOM      8  C   UNL     1      34.924  -2.065  16.899  0.00  0.00    +0.000 A 
ATOM      9  C   UNL     1      35.544  -3.248  16.544  0.00  0.00    +0.000 A 
ATOM     10  C   UNL     1      36.747  -3.165  15.883  0.00  0.00    +0.000 A 
ATOM     11  C   UNL     1      37.345  -1.943  15.569  0.00  0.00    +0.000 A 
ATOM     12  N   UNL     1      38.529  -1.904  14.918  0.00  0.00    +0.000 NA
ATOM     13  C   UNL     1      39.074  -0.708  14.633  0.00  0.00    +0.000 A 
ATOM     14  N   UNL     1      40.226  -0.417  14.003  0.00  0.00    +0.000 N 
ENDROOT
BRANCH   3  15
ATOM     15  C   UNL     1      38.964   2.935  14.737  0.00  0.00    +0.000 C 
ATOM     16  O   UNL     1      38.897   3.686  13.732  0.00  0.00    +0.000 OA
ATOM     17  N   UNL     1      38.773   3.513  16.019  0.00  0.00    +0.000 NA
BRANCH  17  18
ATOM     18  C   UNL     1      38.513   4.917  16.128  0.00  0.00    +0.000 C 
BRANCH  18  19
ATOM     19  C   UNL     1      38.394   5.247  17.621  0.00  0.00    +0.000 C 
BRANCH  19  20
ATOM     20  C   UNL     1      39.637   5.892  18.113  0.00  0.00    +0.000 C 
ATOM     21  C   UNL     1      40.607   6.115  17.243  0.00  0.00    +0.000 C 
ATOM     22  C   UNL     1      41.900   6.752  17.603  0.00  0.00    +0.000 C 
ATOM     23  C   UNL     1      42.170   6.512  19.089  0.00  0.00    +0.000 C 
ATOM     24  C   UNL     1      40.999   6.911  19.927  0.00  0.00    +0.000 C 
ATOM     25  C   UNL     1      39.715   6.247  19.550  0.00  0.00    +0.000 C 
ENDBRANCH  19  20
ENDBRANCH  18  19
ENDBRANCH  17  18
ENDBRANCH   3  15
BRANCH  14  26
ATOM     26  C   UNL     1      41.226  -1.307  13.442  0.00  0.00    +0.000 C 
BRANCH  26  27
ATOM     27  C   UNL     1      40.878  -1.672  12.047  0.00  0.00    +0.000 A 
ATOM     28  C   UNL     1      40.482  -2.918  11.608  0.00  0.00    +0.000 A 
ATOM     29  C   UNL     1      40.255  -2.829  10.250  0.00  0.00    +0.000 A 
ATOM     30  C   UNL     1      40.525  -1.519   9.917  0.00  0.00    +0.000 A 
ATOM     31  O   UNL     1      40.885  -0.881  11.001  0.00  0.00    +0.000 OA
ENDBRANCH  26  27
ENDBRANCH  14  26
TORSDOF 6
ENDMDL
MODEL 5
REMARK VINA RESULT:      -7.7      2.307      2.875
REMARK  Name = 
REMARK  6 active torsions:
REMARK  status: ('A' for Active; 'I' for Inactive)
REMARK    1  A    between atoms: C_3  and  C_4
REMARK    2  A    between atoms: N_6  and  C_7
REMARK    3  A    between atoms: C_7  and  C_8
REMARK    4  A    between atoms: C_8  and  C_9
REMARK    5  A    between atoms: N_25  and  C_26
REMARK    6  A    between atoms: C_26  and  C_27
REMARK                            x       y       z     vdW  Elec       q    Type
REMARK                         _______ _______ _______ _____ _____    ______ ____
ROOT
ATOM      1  N   UNL     1      41.448   2.157  12.730  0.00  0.00    +0.000 NA
ATOM      2  C   UNL     1      40.822   1.160  13.540  0.00  0.00    +0.000 A 
ATOM      3  C   UNL     1      39.726   1.393  14.330  0.00  0.00    +0.000 A 
ATOM      4  C   UNL     1      39.424   0.199  14.947  0.00  0.00    +0.000 A 
ATOM      5  N   UNL     1      38.491  -0.188  15.806  0.00  0.00    +0.000 NA
ATOM      6  C   UNL     1      38.430  -1.460  16.260  0.00  0.00    +0.000 A 
ATOM      7  C   UNL     1      37.450  -1.837  17.151  0.00  0.00    +0.000 A 
ATOM      8  C   UNL     1      37.414  -3.153  17.599  0.00  0.00    +0.000 A 
ATOM      9  C   UNL     1      38.337  -4.088  17.171  0.00  0.00    +0.000 A 
ATOM     10  C   UNL     1      39.300  -3.674  16.280  0.00  0.00    +0.000 A 
ATOM     11  C   UNL     1      39.367  -2.362  15.809  0.00  0.00    +0.000 A 
ATOM     12  N   UNL     1      40.330  -1.994  14.934  0.00  0.00    +0.000 NA
ATOM     13  C   UNL     1      40.363  -0.721  14.502  0.00  0.00    +0.000 A 
ATOM     14  N   UNL     1      41.211  -0.126  13.645  0.00  0.00    +0.000 N 
ENDROOT
BRANCH   3  15
ATOM     15  C   UNL     1      39.004   2.662  14.492  0.00  0.00    +0.000 C 
ATOM     16  O   UNL     1      38.301   3.116  13.554  0.00  0.00    +0.000 OA
ATOM     17  N   UNL     1      39.074   3.409  15.697  0.00  0.00    +0.000 NA
BRANCH  17  18
ATOM     18  C   UNL     1      38.353   4.641  15.807  0.00  0.00    +0.000 C 
BRANCH  18  19
ATOM     19  C   UNL     1      39.381   5.779  15.781  0.00  0.00    +0.000 C 
BRANCH  19  20
ATOM     20  C   UNL     1      39.824   6.112  17.158  0.00  0.00    +0.000 C 
ATOM     21  C   UNL     1      41.116   6.294  17.368  0.00  0.00    +0.000 C 
ATOM     22  C   UNL     1      41.691   6.631  18.696  0.00  0.00    +0.000 C 
ATOM     23  C   UNL     1      40.747   6.120  19.784  0.00  0.00    +0.000 C 
ATOM     24  C   UNL     1      39.345   6.583  19.553  0.00  0.00    +0.000 C 
ATOM     25  C   UNL     1      38.789   6.221  18.214  0.00  0.00    +0.000 C 
ENDBRANCH  19  20
ENDBRANCH  18  19
ENDBRANCH  17  18
ENDBRANCH   3  15
BRANCH  14  26
ATOM     26  C   UNL     1      42.346  -0.681  12.929  0.00  0.00    +0.000 C 
BRANCH  26  27
ATOM     27  C   UNL     1      43.589  -0.533  13.725  0.00  0.00    +0.000 A 
ATOM     28  C   UNL     1      43.927  -1.264  14.845  0.00  0.00    +0.000 A 
ATOM     29  C   UNL     1      45.158  -0.816  15.278  0.00  0.00    +0.000 A 
ATOM     30  C   UNL     1      45.520   0.178  14.394  0.00  0.00    +0.000 A 
ATOM     31  O   UNL     1      44.571   0.307  13.503  0.00  0.00    +0.000 OA
ENDBRANCH  26  27
ENDBRANCH  14  26
TORSDOF 6
ENDMDL
MODEL 6
REMARK VINA RESULT:      -7.7      3.740      8.294
REMARK  Name = 
REMARK  6 active torsions:
REMARK  status: ('A' for Active; 'I' for Inactive)
REMARK    1  A    between atoms: C_3  and  C_4
REMARK    2  A    between atoms: N_6  and  C_7
REMARK    3  A    between atoms: C_7  and  C_8
REMARK    4  A    between atoms: C_8  and  C_9
REMARK    5  A    between atoms: N_25  and  C_26
REMARK    6  A    between atoms: C_26  and  C_27
REMARK                            x       y       z     vdW  Elec       q    Type
REMARK                         _______ _______ _______ _____ _____    ______ ____
ROOT
ATOM      1  N   UNL     1      35.914   0.984  13.938  0.00  0.00    +0.000 NA
ATOM      2  C   UNL     1      36.692   1.935  14.668  0.00  0.00    +0.000 A 
ATOM      3  C   UNL     1      37.706   2.677  14.122  0.00  0.00    +0.000 A 
ATOM      4  C   UNL     1      38.206   3.467  15.133  0.00  0.00    +0.000 A 
ATOM      5  N   UNL     1      39.173   4.371  15.206  0.00  0.00    +0.000 NA
ATOM      6  C   UNL     1      39.456   5.011  16.363  0.00  0.00    +0.000 A 
ATOM      7  C   UNL     1      40.465   5.948  16.415  0.00  0.00    +0.000 A 
ATOM      8  C   UNL     1      40.732   6.589  17.619  0.00  0.00    +0.000 A 
ATOM      9  C   UNL     1      40.010   6.308  18.763  0.00  0.00    +0.000 A 
ATOM     10  C   UNL     1      39.010   5.368  18.672  0.00  0.00    +0.000 A 
ATOM     11  C   UNL     1      38.713   4.705  17.481  0.00  0.00    +0.000 A 
ATOM     12  N   UNL     1      37.722   3.786  17.433  0.00  0.00    +0.000 NA
ATOM     13  C   UNL     1      37.466   3.168  16.267  0.00  0.00    +0.000 A 
ATOM     14  N   UNL     1      36.545   2.232  15.975  0.00  0.00    +0.000 N 
ENDROOT
BRANCH   3  15
ATOM     15  C   UNL     1      38.176   2.646  12.729  0.00  0.00    +0.000 C 
ATOM     16  O   UNL     1      39.259   2.080  12.438  0.00  0.00    +0.000 OA
ATOM     17  N   UNL     1      37.433   3.247  11.680  0.00  0.00    +0.000 NA
BRANCH  17  18
ATOM     18  C   UNL     1      37.933   3.192  10.339  0.00  0.00    +0.000 C 
BRANCH  18  19
ATOM     19  C   UNL     1      37.240   2.016   9.639  0.00  0.00    +0.000 C 
BRANCH  19  20
ATOM     20  C   UNL     1      36.619   2.461   8.367  0.00  0.00    +0.000 C 
ATOM     21  C   UNL     1      36.719   1.666   7.316  0.00  0.00    +0.000 C 
ATOM     22  C   UNL     1      36.143   1.990   5.985  0.00  0.00    +0.000 C 
ATOM     23  C   UNL     1      36.027   3.509   5.856  0.00  0.00    +0.000 C 
ATOM     24  C   UNL     1      35.316   4.103   7.029  0.00  0.00    +0.000 C 
ATOM     25  C   UNL     1      35.923   3.770   8.353  0.00  0.00    +0.000 C 
ENDBRANCH  19  20
ENDBRANCH  18  19
ENDBRANCH  17  18
ENDBRANCH   3  15
BRANCH  14  26
ATOM     26  C   UNL     1      35.552   1.610  16.832  0.00  0.00    +0.000 C 
BRANCH  26  27
ATOM     27  C   UNL     1      36.141   0.466  17.571  0.00  0.00    +0.000 A 
ATOM     28  C   UNL     1      35.848   0.101  18.868  0.00  0.00    +0.000 A 
ATOM     29  C   UNL     1      36.608  -1.010  19.169  0.00  0.00    +0.000 A 
ATOM     30  C   UNL     1      37.339  -1.276  18.031  0.00  0.00    +0.000 A 
ATOM     31  O   UNL     1      37.031  -0.386  17.124  0.00  0.00    +0.000 OA
ENDBRANCH  26  27
ENDBRANCH  14  26
TORSDOF 6
ENDMDL
MODEL 7
REMARK VINA RESULT:      -7.6      2.907      9.125
REMARK  Name = 
REMARK  6 active torsions:
REMARK  status: ('A' for Active; 'I' for Inactive)
REMARK    1  A    between atoms: C_3  and  C_4
REMARK    2  A    between atoms: N_6  and  C_7
REMARK    3  A    between atoms: C_7  and  C_8
REMARK    4  A    between atoms: C_8  and  C_9
REMARK    5  A    between atoms: N_25  and  C_26
REMARK    6  A    between atoms: C_26  and  C_27
REMARK                            x       y       z     vdW  Elec       q    Type
REMARK                         _______ _______ _______ _____ _____    ______ ____
ROOT
ATOM      1  N   UNL     1      36.199   4.407  13.838  0.00  0.00    +0.000 NA
ATOM      2  C   UNL     1      36.978   4.988  14.887  0.00  0.00    +0.000 A 
ATOM      3  C   UNL     1      37.492   4.281  15.942  0.00  0.00    +0.000 A 
ATOM      4  C   UNL     1      38.173   5.184  16.728  0.00  0.00    +0.000 A 
ATOM      5  N   UNL     1      38.861   5.091  17.858  0.00  0.00    +0.000 NA
ATOM      6  C   UNL     1      39.442   6.173  18.424  0.00  0.00    +0.000 A 
ATOM      7  C   UNL     1      40.152   6.051  19.597  0.00  0.00    +0.000 A 
ATOM      8  C   UNL     1      40.737   7.183  20.154  0.00  0.00    +0.000 A 
ATOM      9  C   UNL     1      40.622   8.424  19.558  0.00  0.00    +0.000 A 
ATOM     10  C   UNL     1      39.905   8.506  18.387  0.00  0.00    +0.000 A 
ATOM     11  C   UNL     1      39.304   7.392  17.799  0.00  0.00    +0.000 A 
ATOM     12  N   UNL     1      38.607   7.515  16.647  0.00  0.00    +0.000 NA
ATOM     13  C   UNL     1      38.043   6.418  16.110  0.00  0.00    +0.000 A 
ATOM     14  N   UNL     1      37.312   6.290  14.988  0.00  0.00    +0.000 N 
ENDROOT
BRANCH   3  15
ATOM     15  C   UNL     1      37.352   2.840  16.195  0.00  0.00    +0.000 C 
ATOM     16  O   UNL     1      38.062   2.015  15.569  0.00  0.00    +0.000 OA
ATOM     17  N   UNL     1      36.421   2.338  17.142  0.00  0.00    +0.000 NA
BRANCH  17  18
ATOM     18  C   UNL     1      36.321   0.925  17.353  0.00  0.00    +0.000 C 
BRANCH  18  19
ATOM     19  C   UNL     1      35.220   0.399  16.424  0.00  0.00    +0.000 C 
BRANCH  19  20
ATOM     20  C   UNL     1      35.510  -0.996  16.010  0.00  0.00    +0.000 C 
ATOM     21  C   UNL     1      36.393  -1.186  15.045  0.00  0.00    +0.000 C 
ATOM     22  C   UNL     1      36.774  -2.529  14.536  0.00  0.00    +0.000 C 
ATOM     23  C   UNL     1      35.621  -3.499  14.796  0.00  0.00    +0.000 C 
ATOM     24  C   UNL     1      35.180  -3.452  16.223  0.00  0.00    +0.000 C 
ATOM     25  C   UNL     1      34.792  -2.092  16.705  0.00  0.00    +0.000 C 
ENDBRANCH  19  20
ENDBRANCH  18  19
ENDBRANCH  17  18
ENDBRANCH   3  15
BRANCH  14  26
ATOM     26  C   UNL     1      36.915   7.297  14.021  0.00  0.00    +0.000 C 
BRANCH  26  27
ATOM     27  C   UNL     1      35.674   7.983  14.458  0.00  0.00    +0.000 A 
ATOM     28  C   UNL     1      35.582   9.280  14.916  0.00  0.00    +0.000 A 
ATOM     29  C   UNL     1      34.257   9.523  15.216  0.00  0.00    +0.000 A 
ATOM     30  C   UNL     1      33.593   8.350  14.926  0.00  0.00    +0.000 A 
ATOM     31  O   UNL     1      34.464   7.479  14.485  0.00  0.00    +0.000 OA
ENDBRANCH  26  27
ENDBRANCH  14  26
TORSDOF 6
ENDMDL
MODEL 8
REMARK VINA RESULT:      -7.6      1.837      4.747
REMARK  Name = 
REMARK  6 active torsions:
REMARK  status: ('A' for Active; 'I' for Inactive)
REMARK    1  A    between atoms: C_3  and  C_4
REMARK    2  A    between atoms: N_6  and  C_7
REMARK    3  A    between atoms: C_7  and  C_8
REMARK    4  A    between atoms: C_8  and  C_9
REMARK    5  A    between atoms: N_25  and  C_26
REMARK    6  A    between atoms: C_26  and  C_27
REMARK                            x       y       z     vdW  Elec       q    Type
REMARK                         _______ _______ _______ _____ _____    ______ ____
ROOT
ATOM      1  N   UNL     1      36.220   1.623  15.534  0.00  0.00    +0.000 NA
ATOM      2  C   UNL     1      37.504   1.104  15.183  0.00  0.00    +0.000 A 
ATOM      3  C   UNL     1      38.549   1.876  14.747  0.00  0.00    +0.000 A 
ATOM      4  C   UNL     1      39.602   1.019  14.513  0.00  0.00    +0.000 A 
ATOM      5  N   UNL     1      40.848   1.180  14.089  0.00  0.00    +0.000 NA
ATOM      6  C   UNL     1      41.688   0.130  13.948  0.00  0.00    +0.000 A 
ATOM      7  C   UNL     1      42.978   0.323  13.506  0.00  0.00    +0.000 A 
ATOM      8  C   UNL     1      43.819  -0.777  13.372  0.00  0.00    +0.000 A 
ATOM      9  C   UNL     1      43.389  -2.056  13.671  0.00  0.00    +0.000 A 
ATOM     10  C   UNL     1      42.094  -2.208  14.110  0.00  0.00    +0.000 A 
ATOM     11  C   UNL     1      41.223  -1.128  14.257  0.00  0.00    +0.000 A 
ATOM     12  N   UNL     1      39.957  -1.320  14.691  0.00  0.00    +0.000 NA
ATOM     13  C   UNL     1      39.146  -0.254  14.821  0.00  0.00    +0.000 A 
ATOM     14  N   UNL     1      37.866  -0.194  15.228  0.00  0.00    +0.000 N 
ENDROOT
BRANCH   3  15
ATOM     15  C   UNL     1      38.558   3.334  14.562  0.00  0.00    +0.000 C 
ATOM     16  O   UNL     1      38.330   3.831  13.431  0.00  0.00    +0.000 OA
ATOM     17  N   UNL     1      38.821   4.219  15.640  0.00  0.00    +0.000 NA
BRANCH  17  18
ATOM     18  C   UNL     1      38.820   5.632  15.410  0.00  0.00    +0.000 C 
BRANCH  18  19
ATOM     19  C   UNL     1      38.498   6.314  16.745  0.00  0.00    +0.000 C 
BRANCH  19  20
ATOM     20  C   UNL     1      39.694   6.328  17.625  0.00  0.00    +0.000 C 
ATOM     21  C   UNL     1      39.507   6.206  18.928  0.00  0.00    +0.000 C 
ATOM     22  C   UNL     1      40.615   6.204  19.917  0.00  0.00    +0.000 C 
ATOM     23  C   UNL     1      41.804   6.963  19.326  0.00  0.00    +0.000 C 
ATOM     24  C   UNL     1      42.154   6.454  17.965  0.00  0.00    +0.000 C 
ATOM     25  C   UNL     1      41.024   6.477  16.988  0.00  0.00    +0.000 C 
ENDBRANCH  19  20
ENDBRANCH  18  19
ENDBRANCH  17  18
ENDBRANCH   3  15
BRANCH  14  26
ATOM     26  C   UNL     1      36.976  -1.260  15.650  0.00  0.00    +0.000 C 
BRANCH  26  27
ATOM     27  C   UNL     1      37.236  -1.629  17.064  0.00  0.00    +0.000 A 
ATOM     28  C   UNL     1      36.735  -0.984  18.176  0.00  0.00    +0.000 A 
ATOM     29  C   UNL     1      37.216  -1.642  19.289  0.00  0.00    +0.000 A 
ATOM     30  C   UNL     1      37.996  -2.669  18.802  0.00  0.00    +0.000 A 
ATOM     31  O   UNL     1      37.977  -2.620  17.495  0.00  0.00    +0.000 OA
ENDBRANCH  26  27
ENDBRANCH  14  26
TORSDOF 6
ENDMDL
MODEL 9
REMARK VINA RESULT:      -7.5      4.085      6.533
REMARK  Name = 
REMARK  6 active torsions:
REMARK  status: ('A' for Active; 'I' for Inactive)
REMARK    1  A    between atoms: C_3  and  C_4
REMARK    2  A    between atoms: N_6  and  C_7
REMARK    3  A    between atoms: C_7  and  C_8
REMARK    4  A    between atoms: C_8  and  C_9
REMARK    5  A    between atoms: N_25  and  C_26
REMARK    6  A    between atoms: C_26  and  C_27
REMARK                            x       y       z     vdW  Elec       q    Type
REMARK                         _______ _______ _______ _____ _____    ______ ____
ROOT
ATOM      1  N   UNL     1      39.881  -3.366  16.051  0.00  0.00    +0.000 NA
ATOM      2  C   UNL     1      39.122  -2.186  15.780  0.00  0.00    +0.000 A 
ATOM      3  C   UNL     1      39.521  -1.199  14.918  0.00  0.00    +0.000 A 
ATOM      4  C   UNL     1      38.531  -0.241  14.928  0.00  0.00    +0.000 A 
ATOM      5  N   UNL     1      38.361   0.919  14.309  0.00  0.00    +0.000 NA
ATOM      6  C   UNL     1      37.259   1.675  14.514  0.00  0.00    +0.000 A 
ATOM      7  C   UNL     1      37.105   2.876  13.858  0.00  0.00    +0.000 A 
ATOM      8  C   UNL     1      35.961   3.631  14.090  0.00  0.00    +0.000 A 
ATOM      9  C   UNL     1      34.978   3.205  14.962  0.00  0.00    +0.000 A 
ATOM     10  C   UNL     1      35.167   2.000  15.599  0.00  0.00    +0.000 A 
ATOM     11  C   UNL     1      36.302   1.215  15.390  0.00  0.00    +0.000 A 
ATOM     12  N   UNL     1      36.452   0.037  16.035  0.00  0.00    +0.000 NA
ATOM     13  C   UNL     1      37.559  -0.692  15.809  0.00  0.00    +0.000 A 
ATOM     14  N   UNL     1      37.927  -1.878  16.324  0.00  0.00    +0.000 N 
ENDROOT
BRANCH   3  15
ATOM     15  C   UNL     1      40.761  -1.159  14.129  0.00  0.00    +0.000 C 
ATOM     16  O   UNL     1      40.738  -1.422  12.900  0.00  0.00    +0.000 OA
ATOM     17  N   UNL     1      42.008  -0.829  14.719  0.00  0.00    +0.000 NA
BRANCH  17  18
ATOM     18  C   UNL     1      43.189  -0.805  13.909  0.00  0.00    +0.000 C 
BRANCH  18  19
ATOM     19  C   UNL     1      44.062  -1.992  14.334  0.00  0.00    +0.000 C 
BRANCH  19  20
ATOM     20  C   UNL     1      44.937  -1.613  15.472  0.00  0.00    +0.000 C 
ATOM     21  C   UNL     1      45.505  -2.582  16.168  0.00  0.00    +0.000 C 
ATOM     22  C   UNL     1      46.401  -2.341  17.328  0.00  0.00    +0.000 C 
ATOM     23  C   UNL     1      46.057  -0.983  17.942  0.00  0.00    +0.000 C 
ATOM     24  C   UNL     1      46.038   0.094  16.906  0.00  0.00    +0.000 C 
ATOM     25  C   UNL     1      45.120  -0.169  15.757  0.00  0.00    +0.000 C 
ENDBRANCH  19  20
ENDBRANCH  18  19
ENDBRANCH  17  18
ENDBRANCH   3  15
BRANCH  14  26
ATOM     26  C   UNL     1      37.239  -2.728  17.279  0.00  0.00    +0.000 C 
BRANCH  26  27
ATOM     27  C   UNL     1      36.293  -3.636  16.585  0.00  0.00    +0.000 A 
ATOM     28  C   UNL     1      35.106  -3.268  15.986  0.00  0.00    +0.000 A 
ATOM     29  C   UNL     1      34.535  -4.408  15.459  0.00  0.00    +0.000 A 
ATOM     30  C   UNL     1      35.408  -5.431  15.762  0.00  0.00    +0.000 A 
ATOM     31  O   UNL     1      36.421  -4.930  16.421  0.00  0.00    +0.000 OA
ENDBRANCH  26  27
ENDBRANCH  14  26
TORSDOF 6
ENDMDL
MODEL 10
REMARK VINA RESULT:      -7.5      2.247      6.240
REMARK  Name = 
REMARK  6 active torsions:
REMARK  status: ('A' for Active; 'I' for Inactive)
REMARK    1  A    between atoms: C_3  and  C_4
REMARK    2  A    between atoms: N_6  and  C_7
REMARK    3  A    between atoms: C_7  and  C_8
REMARK    4  A    between atoms: C_8  and  C_9
REMARK    5  A    between atoms: N_25  and  C_26
REMARK    6  A    between atoms: C_26  and  C_27
REMARK                            x       y       z     vdW  Elec       q    Type
REMARK                         _______ _______ _______ _____ _____    ______ ____
ROOT
ATOM      1  N   UNL     1      40.573   2.605  13.551  0.00  0.00    +0.000 NA
ATOM      2  C   UNL     1      39.547   1.830  14.176  0.00  0.00    +0.000 A 
ATOM      3  C   UNL     1      39.577   0.464  14.282  0.00  0.00    +0.000 A 
ATOM      4  C   UNL     1      38.425   0.094  14.941  0.00  0.00    +0.000 A 
ATOM      5  N   UNL     1      37.911  -1.067  15.323  0.00  0.00    +0.000 NA
ATOM      6  C   UNL     1      36.726  -1.136  15.971  0.00  0.00    +0.000 A 
ATOM      7  C   UNL     1      36.213  -2.354  16.359  0.00  0.00    +0.000 A 
ATOM      8  C   UNL     1      34.993  -2.393  17.024  0.00  0.00    +0.000 A 
ATOM      9  C   UNL     1      34.285  -1.240  17.302  0.00  0.00    +0.000 A 
ATOM     10  C   UNL     1      34.829  -0.043  16.900  0.00  0.00    +0.000 A 
ATOM     11  C   UNL     1      36.051   0.035  16.231  0.00  0.00    +0.000 A 
ATOM     12  N   UNL     1      36.552   1.232  15.852  0.00  0.00    +0.000 NA
ATOM     13  C   UNL     1      37.734   1.267  15.209  0.00  0.00    +0.000 A 
ATOM     14  N   UNL     1      38.425   2.320  14.739  0.00  0.00    +0.000 N 
ENDROOT
BRANCH   3  15
ATOM     15  C   UNL     1      40.628  -0.440  13.796  0.00  0.00    +0.000 C 
ATOM     16  O   UNL     1      40.627  -0.828  12.601  0.00  0.00    +0.000 OA
ATOM     17  N   UNL     1      41.665  -0.902  14.647  0.00  0.00    +0.000 NA
BRANCH  17  18
ATOM     18  C   UNL     1      42.667  -1.784  14.127  0.00  0.00    +0.000 C 
BRANCH  18  19
ATOM     19  C   UNL     1      43.967  -0.980  14.006  0.00  0.00    +0.000 C 
BRANCH  19  20
ATOM     20  C   UNL     1      44.850  -1.239  15.171  0.00  0.00    +0.000 C 
ATOM     21  C   UNL     1      45.383  -2.442  15.291  0.00  0.00    +0.000 C 
ATOM     22  C   UNL     1      46.282  -2.832  16.408  0.00  0.00    +0.000 C 
ATOM     23  C   UNL     1      45.979  -1.944  17.615  0.00  0.00    +0.000 C 
ATOM     24  C   UNL     1      46.000  -0.496  17.247  0.00  0.00    +0.000 C 
ATOM     25  C   UNL     1      45.079  -0.131  16.129  0.00  0.00    +0.000 C 
ENDBRANCH  19  20
ENDBRANCH  18  19
ENDBRANCH  17  18
ENDBRANCH   3  15
BRANCH  14  26
ATOM     26  C   UNL     1      38.104   3.735  14.786  0.00  0.00    +0.000 C 
BRANCH  26  27
ATOM     27  C   UNL     1      38.562   4.334  16.064  0.00  0.00    +0.000 A 
ATOM     28  C   UNL     1      39.505   5.331  16.201  0.00  0.00    +0.000 A 
ATOM     29  C   UNL     1      39.637   5.596  17.548  0.00  0.00    +0.000 A 
ATOM     30  C   UNL     1      38.759   4.741  18.180  0.00  0.00    +0.000 A 
ATOM     31  O   UNL     1      38.153   4.022  17.270  0.00  0.00    +0.000 OA
ENDBRANCH  26  27
ENDBRANCH  14  26
TORSDOF 6
ENDMDL
