MODEL 1
REMARK VINA RESULT:      -6.6      0.000      0.000
REMARK  Name = 
REMARK  2 active torsions:
REMARK  status: ('A' for Active; 'I' for Inactive)
REMARK    1  A    between atoms: N_12  and  C_13
REMARK    2  A    between atoms: C_13  and  C_14
REMARK                            x       y       z     vdW  Elec       q    Type
REMARK                         _______ _______ _______ _____ _____    ______ ____
ROOT
ATOM      1  O   UNL     1      18.650  12.902  37.601  0.00  0.00    +0.000 OA
ATOM      2  C   UNL     1      19.069  11.755  37.937  0.00  0.00    +0.000 C 
ATOM      3  N   UNL     1      20.368  11.404  38.401  0.00  0.00    +0.000 NA
ATOM      4  C   UNL     1      20.508  10.000  38.139  0.00  0.00    +0.000 C 
ATOM      5  C   UNL     1      21.427   9.294  39.098  0.00  0.00    +0.000 C 
ATOM      6  C   UNL     1      22.827   9.813  39.008  0.00  0.00    +0.000 C 
ATOM      7  C   UNL     1      23.044  10.580  37.738  0.00  0.00    +0.000 C 
ATOM      8  C   UNL     1      22.407   9.842  36.577  0.00  0.00    +0.000 C 
ATOM      9  C   UNL     1      20.897   9.805  36.700  0.00  0.00    +0.000 C 
ATOM     10  C   UNL     1      19.112   9.510  38.355  0.00  0.00    +0.000 C 
ATOM     11  O   UNL     1      18.760   8.392  38.838  0.00  0.00    +0.000 OA
ATOM     12  N   UNL     1      18.269  10.564  37.904  0.00  0.00    +0.000 N 
ENDROOT
BRANCH  12  13
ATOM     13  C   UNL     1      16.888  10.409  37.506  0.00  0.00    +0.000 C 
BRANCH  13  14
ATOM     14  C   UNL     1      16.698  10.630  36.052  0.00  0.00    +0.000 A 
ATOM     15  C   UNL     1      17.441   9.981  35.085  0.00  0.00    +0.000 A 
ATOM     16  C   UNL     1      17.228  10.218  33.724  0.00  0.00    +0.000 A 
ATOM     17  C   UNL     1      16.257  11.119  33.361  0.00  0.00    +0.000 A 
ATOM     18  C   UNL     1      15.497  11.784  34.296  0.00  0.00    +0.000 A 
ATOM     19  C   UNL     1      15.736  11.522  35.639  0.00  0.00    +0.000 A 
ATOM     20 CL   UNL     1      14.801  12.339  36.873  0.00  0.00    +0.000 Cl
ENDBRANCH  13  14
ENDBRANCH  12  13
TORSDOF 2
ENDMDL
MODEL 2
REMARK VINA RESULT:      -6.5      2.220      5.839
REMARK  Name = 
REMARK  2 active torsions:
REMARK  status: ('A' for Active; 'I' for Inactive)
REMARK    1  A    between atoms: N_12  and  C_13
REMARK    2  A    between atoms: C_13  and  C_14
REMARK                            x       y       z     vdW  Elec       q    Type
REMARK                         _______ _______ _______ _____ _____    ______ ____
ROOT
ATOM      1  O   UNL     1      19.378  13.173  38.355  0.00  0.00    +0.000 OA
ATOM      2  C   UNL     1      18.799  12.288  37.660  0.00  0.00    +0.000 C 
ATOM      3  N   UNL     1      17.670  12.450  36.809  0.00  0.00    +0.000 NA
ATOM      4  C   UNL     1      17.087  11.144  36.685  0.00  0.00    +0.000 C 
ATOM      5  C   UNL     1      16.366  10.924  35.382  0.00  0.00    +0.000 C 
ATOM      6  C   UNL     1      15.201  11.850  35.231  0.00  0.00    +0.000 C 
ATOM      7  C   UNL     1      14.805  12.449  36.547  0.00  0.00    +0.000 C 
ATOM      8  C   UNL     1      14.821  11.380  37.623  0.00  0.00    +0.000 C 
ATOM      9  C   UNL     1      16.224  10.874  37.886  0.00  0.00    +0.000 C 
ATOM     10  C   UNL     1      18.296  10.266  36.724  0.00  0.00    +0.000 C 
ATOM     11  O   UNL     1      18.473   9.179  36.096  0.00  0.00    +0.000 OA
ATOM     12  N   UNL     1      19.201  10.910  37.613  0.00  0.00    +0.000 N 
ENDROOT
BRANCH  12  13
ATOM     13  C   UNL     1      20.291  10.259  38.304  0.00  0.00    +0.000 C 
BRANCH  13  14
ATOM     14  C   UNL     1      21.594  10.492  37.634  0.00  0.00    +0.000 A 
ATOM     15  C   UNL     1      21.940   9.908  36.431  0.00  0.00    +0.000 A 
ATOM     16  C   UNL     1      23.181  10.156  35.834  0.00  0.00    +0.000 A 
ATOM     17  C   UNL     1      24.057  10.998  36.472  0.00  0.00    +0.000 A 
ATOM     18  C   UNL     1      23.746  11.598  37.671  0.00  0.00    +0.000 A 
ATOM     19  C   UNL     1      22.505  11.329  38.235  0.00  0.00    +0.000 A 
ATOM     20 CL   UNL     1      22.055  12.062  39.759  0.00  0.00    +0.000 Cl
ENDBRANCH  13  14
ENDBRANCH  12  13
TORSDOF 2
ENDMDL
MODEL 3
REMARK VINA RESULT:      -6.4     21.504     22.942
REMARK  Name = 
REMARK  2 active torsions:
REMARK  status: ('A' for Active; 'I' for Inactive)
REMARK    1  A    between atoms: N_12  and  C_13
REMARK    2  A    between atoms: C_13  and  C_14
REMARK                            x       y       z     vdW  Elec       q    Type
REMARK                         _______ _______ _______ _____ _____    ______ ____
ROOT
ATOM      1  O   UNL     1      27.728  26.052  24.719  0.00  0.00    +0.000 OA
ATOM      2  C   UNL     1      28.227  25.994  23.557  0.00  0.00    +0.000 C 
ATOM      3  N   UNL     1      28.696  27.073  22.755  0.00  0.00    +0.000 NA
ATOM      4  C   UNL     1      28.655  26.597  21.402  0.00  0.00    +0.000 C 
ATOM      5  C   UNL     1      29.682  27.233  20.505  0.00  0.00    +0.000 C 
ATOM      6  C   UNL     1      29.463  28.707  20.371  0.00  0.00    +0.000 C 
ATOM      7  C   UNL     1      28.081  29.095  20.804  0.00  0.00    +0.000 C 
ATOM      8  C   UNL     1      27.074  28.102  20.259  0.00  0.00    +0.000 C 
ATOM      9  C   UNL     1      27.253  26.730  20.876  0.00  0.00    +0.000 C 
ATOM     10  C   UNL     1      28.993  25.151  21.577  0.00  0.00    +0.000 C 
ATOM     11  O   UNL     1      29.659  24.420  20.784  0.00  0.00    +0.000 OA
ATOM     12  N   UNL     1      28.410  24.776  22.820  0.00  0.00    +0.000 N 
ENDROOT
BRANCH  12  13
ATOM     13  C   UNL     1      28.089  23.422  23.211  0.00  0.00    +0.000 C 
BRANCH  13  14
ATOM     14  C   UNL     1      28.831  23.001  24.424  0.00  0.00    +0.000 A 
ATOM     15  C   UNL     1      30.207  22.890  24.469  0.00  0.00    +0.000 A 
ATOM     16  C   UNL     1      30.866  22.490  25.636  0.00  0.00    +0.000 A 
ATOM     17  C   UNL     1      30.112  22.204  26.747  0.00  0.00    +0.000 A 
ATOM     18  C   UNL     1      28.740  22.304  26.740  0.00  0.00    +0.000 A 
ATOM     19  C   UNL     1      28.119  22.704  25.564  0.00  0.00    +0.000 A 
ATOM     20 CL   UNL     1      26.376  22.847  25.494  0.00  0.00    +0.000 Cl
ENDBRANCH  13  14
ENDBRANCH  12  13
TORSDOF 2
ENDMDL
MODEL 4
REMARK VINA RESULT:      -6.3      2.775      6.115
REMARK  Name = 
REMARK  2 active torsions:
REMARK  status: ('A' for Active; 'I' for Inactive)
REMARK    1  A    between atoms: N_12  and  C_13
REMARK    2  A    between atoms: C_13  and  C_14
REMARK                            x       y       z     vdW  Elec       q    Type
REMARK                         _______ _______ _______ _____ _____    ______ ____
ROOT
ATOM      1  O   UNL     1      18.605  12.837  37.940  0.00  0.00    +0.000 OA
ATOM      2  C   UNL     1      17.978  12.074  37.147  0.00  0.00    +0.000 C 
ATOM      3  N   UNL     1      17.100  12.447  36.091  0.00  0.00    +0.000 NA
ATOM      4  C   UNL     1      16.264  11.304  35.860  0.00  0.00    +0.000 C 
ATOM      5  C   UNL     1      15.772  11.191  34.442  0.00  0.00    +0.000 C 
ATOM      6  C   UNL     1      14.904  12.348  34.063  0.00  0.00    +0.000 C 
ATOM      7  C   UNL     1      14.415  13.084  35.276  0.00  0.00    +0.000 C 
ATOM      8  C   UNL     1      13.979  12.092  36.336  0.00  0.00    +0.000 C 
ATOM      9  C   UNL     1      15.151  11.294  36.870  0.00  0.00    +0.000 C 
ATOM     10  C   UNL     1      17.206  10.177  36.136  0.00  0.00    +0.000 C 
ATOM     11  O   UNL     1      17.242   9.049  35.558  0.00  0.00    +0.000 OA
ATOM     12  N   UNL     1      18.051  10.640  37.183  0.00  0.00    +0.000 N 
ENDROOT
BRANCH  12  13
ATOM     13  C   UNL     1      18.810   9.793  38.075  0.00  0.00    +0.000 C 
BRANCH  13  14
ATOM     14  C   UNL     1      18.195   9.709  39.423  0.00  0.00    +0.000 A 
ATOM     15  C   UNL     1      16.834   9.610  39.628  0.00  0.00    +0.000 A 
ATOM     16  C   UNL     1      16.297   9.532  40.918  0.00  0.00    +0.000 A 
ATOM     17  C   UNL     1      17.158   9.559  41.987  0.00  0.00    +0.000 A 
ATOM     18  C   UNL     1      18.520   9.657  41.821  0.00  0.00    +0.000 A 
ATOM     19  C   UNL     1      19.018   9.731  40.526  0.00  0.00    +0.000 A 
ATOM     20 CL   UNL     1      20.742   9.859  40.253  0.00  0.00    +0.000 Cl
ENDBRANCH  13  14
ENDBRANCH  12  13
TORSDOF 2
ENDMDL
MODEL 5
REMARK VINA RESULT:      -6.2     19.569     20.714
REMARK  Name = 
REMARK  2 active torsions:
REMARK  status: ('A' for Active; 'I' for Inactive)
REMARK    1  A    between atoms: N_12  and  C_13
REMARK    2  A    between atoms: C_13  and  C_14
REMARK                            x       y       z     vdW  Elec       q    Type
REMARK                         _______ _______ _______ _____ _____    ______ ____
ROOT
ATOM      1  O   UNL     1      29.588  23.836  26.080  0.00  0.00    +0.000 OA
ATOM      2  C   UNL     1      28.912  23.875  25.010  0.00  0.00    +0.000 C 
ATOM      3  N   UNL     1      29.293  24.437  23.758  0.00  0.00    +0.000 NA
ATOM      4  C   UNL     1      28.067  24.712  23.067  0.00  0.00    +0.000 C 
ATOM      5  C   UNL     1      28.190  24.651  21.568  0.00  0.00    +0.000 C 
ATOM      6  C   UNL     1      29.132  25.688  21.047  0.00  0.00    +0.000 C 
ATOM      7  C   UNL     1      29.381  26.761  22.066  0.00  0.00    +0.000 C 
ATOM      8  C   UNL     1      28.074  27.152  22.727  0.00  0.00    +0.000 C 
ATOM      9  C   UNL     1      27.507  26.018  23.557  0.00  0.00    +0.000 C 
ATOM     10  C   UNL     1      27.198  23.586  23.528  0.00  0.00    +0.000 C 
ATOM     11  O   UNL     1      26.304  22.985  22.858  0.00  0.00    +0.000 OA
ATOM     12  N   UNL     1      27.588  23.336  24.873  0.00  0.00    +0.000 N 
ENDROOT
BRANCH  12  13
ATOM     13  C   UNL     1      26.775  22.666  25.863  0.00  0.00    +0.000 C 
BRANCH  13  14
ATOM     14  C   UNL     1      26.154  23.620  26.813  0.00  0.00    +0.000 A 
ATOM     15  C   UNL     1      25.244  24.585  26.429  0.00  0.00    +0.000 A 
ATOM     16  C   UNL     1      24.681  25.464  27.360  0.00  0.00    +0.000 A 
ATOM     17  C   UNL     1      25.055  25.350  28.676  0.00  0.00    +0.000 A 
ATOM     18  C   UNL     1      25.958  24.401  29.095  0.00  0.00    +0.000 A 
ATOM     19  C   UNL     1      26.496  23.544  28.143  0.00  0.00    +0.000 A 
ATOM     20 CL   UNL     1      27.651  22.317  28.618  0.00  0.00    +0.000 Cl
ENDBRANCH  13  14
ENDBRANCH  12  13
TORSDOF 2
ENDMDL
MODEL 6
REMARK VINA RESULT:      -5.8     19.011     20.596
REMARK  Name = 
REMARK  2 active torsions:
REMARK  status: ('A' for Active; 'I' for Inactive)
REMARK    1  A    between atoms: N_12  and  C_13
REMARK    2  A    between atoms: C_13  and  C_14
REMARK                            x       y       z     vdW  Elec       q    Type
REMARK                         _______ _______ _______ _____ _____    ______ ____
ROOT
ATOM      1  O   UNL     1      27.017  25.155  26.519  0.00  0.00    +0.000 OA
ATOM      2  C   UNL     1      27.756  24.662  25.617  0.00  0.00    +0.000 C 
ATOM      3  N   UNL     1      28.217  25.292  24.426  0.00  0.00    +0.000 NA
ATOM      4  C   UNL     1      28.538  24.225  23.522  0.00  0.00    +0.000 C 
ATOM      5  C   UNL     1      29.624  24.571  22.540  0.00  0.00    +0.000 C 
ATOM      6  C   UNL     1      29.219  25.692  21.637  0.00  0.00    +0.000 C 
ATOM      7  C   UNL     1      27.733  25.898  21.656  0.00  0.00    +0.000 C 
ATOM      8  C   UNL     1      27.029  24.557  21.603  0.00  0.00    +0.000 C 
ATOM      9  C   UNL     1      27.277  23.746  22.858  0.00  0.00    +0.000 C 
ATOM     10  C   UNL     1      29.046  23.175  24.457  0.00  0.00    +0.000 C 
ATOM     11  O   UNL     1      29.969  22.334  24.235  0.00  0.00    +0.000 OA
ATOM     12  N   UNL     1      28.275  23.323  25.644  0.00  0.00    +0.000 N 
ENDROOT
BRANCH  12  13
ATOM     13  C   UNL     1      28.087  22.298  26.645  0.00  0.00    +0.000 C 
BRANCH  13  14
ATOM     14  C   UNL     1      28.994  22.476  27.805  0.00  0.00    +0.000 A 
ATOM     15  C   UNL     1      30.368  22.372  27.713  0.00  0.00    +0.000 A 
ATOM     16  C   UNL     1      31.187  22.549  28.833  0.00  0.00    +0.000 A 
ATOM     17  C   UNL     1      30.593  22.831  30.038  0.00  0.00    +0.000 A 
ATOM     18  C   UNL     1      29.228  22.943  30.168  0.00  0.00    +0.000 A 
ATOM     19  C   UNL     1      28.446  22.761  29.034  0.00  0.00    +0.000 A 
ATOM     20 CL   UNL     1      26.703  22.891  29.138  0.00  0.00    +0.000 Cl
ENDBRANCH  13  14
ENDBRANCH  12  13
TORSDOF 2
ENDMDL
MODEL 7
REMARK VINA RESULT:      -5.8     21.014     23.319
REMARK  Name = 
REMARK  2 active torsions:
REMARK  status: ('A' for Active; 'I' for Inactive)
REMARK    1  A    between atoms: N_12  and  C_13
REMARK    2  A    between atoms: C_13  and  C_14
REMARK                            x       y       z     vdW  Elec       q    Type
REMARK                         _______ _______ _______ _____ _____    ______ ____
ROOT
ATOM      1  O   UNL     1      36.685  -6.189  32.666  0.00  0.00    +0.000 OA
ATOM      2  C   UNL     1      35.546  -6.577  32.271  0.00  0.00    +0.000 C 
ATOM      3  N   UNL     1      35.214  -7.173  31.022  0.00  0.00    +0.000 NA
ATOM      4  C   UNL     1      33.809  -6.940  30.842  0.00  0.00    +0.000 C 
ATOM      5  C   UNL     1      33.122  -7.994  30.017  0.00  0.00    +0.000 C 
ATOM      6  C   UNL     1      33.655  -8.040  28.621  0.00  0.00    +0.000 C 
ATOM      7  C   UNL     1      34.414  -6.791  28.285  0.00  0.00    +0.000 C 
ATOM      8  C   UNL     1      33.658  -5.579  28.794  0.00  0.00    +0.000 C 
ATOM      9  C   UNL     1      33.605  -5.550  30.308  0.00  0.00    +0.000 C 
ATOM     10  C   UNL     1      33.305  -7.020  32.247  0.00  0.00    +0.000 C 
ATOM     11  O   UNL     1      32.188  -7.476  32.635  0.00  0.00    +0.000 OA
ATOM     12  N   UNL     1      34.346  -6.476  33.052  0.00  0.00    +0.000 N 
ENDROOT
BRANCH  12  13
ATOM     13  C   UNL     1      34.172  -5.943  34.384  0.00  0.00    +0.000 C 
BRANCH  13  14
ATOM     14  C   UNL     1      34.172  -4.459  34.396  0.00  0.00    +0.000 A 
ATOM     15  C   UNL     1      33.492  -3.696  33.468  0.00  0.00    +0.000 A 
ATOM     16  C   UNL     1      33.519  -2.298  33.516  0.00  0.00    +0.000 A 
ATOM     17  C   UNL     1      34.242  -1.693  34.514  0.00  0.00    +0.000 A 
ATOM     18  C   UNL     1      34.931  -2.421  35.457  0.00  0.00    +0.000 A 
ATOM     19  C   UNL     1      34.882  -3.807  35.377  0.00  0.00    +0.000 A 
ATOM     20 CL   UNL     1      35.740  -4.785  36.548  0.00  0.00    +0.000 Cl
ENDBRANCH  13  14
ENDBRANCH  12  13
TORSDOF 2
ENDMDL
MODEL 8
REMARK VINA RESULT:      -5.8     18.735     19.833
REMARK  Name = 
REMARK  2 active torsions:
REMARK  status: ('A' for Active; 'I' for Inactive)
REMARK    1  A    between atoms: N_12  and  C_13
REMARK    2  A    between atoms: C_13  and  C_14
REMARK                            x       y       z     vdW  Elec       q    Type
REMARK                         _______ _______ _______ _____ _____    ______ ____
ROOT
ATOM      1  O   UNL     1      30.054  24.339  27.208  0.00  0.00    +0.000 OA
ATOM      2  C   UNL     1      28.796  24.205  27.236  0.00  0.00    +0.000 C 
ATOM      3  N   UNL     1      27.880  24.762  28.173  0.00  0.00    +0.000 NA
ATOM      4  C   UNL     1      26.713  23.929  28.116  0.00  0.00    +0.000 C 
ATOM      5  C   UNL     1      25.437  24.652  28.455  0.00  0.00    +0.000 C 
ATOM      6  C   UNL     1      25.444  25.159  29.862  0.00  0.00    +0.000 C 
ATOM      7  C   UNL     1      26.501  24.479  30.681  0.00  0.00    +0.000 C 
ATOM      8  C   UNL     1      26.502  22.993  30.385  0.00  0.00    +0.000 C 
ATOM      9  C   UNL     1      26.937  22.708  28.962  0.00  0.00    +0.000 C 
ATOM     10  C   UNL     1      26.683  23.545  26.672  0.00  0.00    +0.000 C 
ATOM     11  O   UNL     1      25.657  23.358  25.950  0.00  0.00    +0.000 OA
ATOM     12  N   UNL     1      28.047  23.433  26.283  0.00  0.00    +0.000 N 
ENDROOT
BRANCH  12  13
ATOM     13  C   UNL     1      28.528  22.682  25.146  0.00  0.00    +0.000 C 
BRANCH  13  14
ATOM     14  C   UNL     1      28.451  23.463  23.888  0.00  0.00    +0.000 A 
ATOM     15  C   UNL     1      27.268  23.705  23.219  0.00  0.00    +0.000 A 
ATOM     16  C   UNL     1      27.240  24.448  22.035  0.00  0.00    +0.000 A 
ATOM     17  C   UNL     1      28.425  24.937  21.543  0.00  0.00    +0.000 A 
ATOM     18  C   UNL     1      29.624  24.717  22.182  0.00  0.00    +0.000 A 
ATOM     19  C   UNL     1      29.612  23.975  23.356  0.00  0.00    +0.000 A 
ATOM     20 CL   UNL     1      31.107  23.661  24.213  0.00  0.00    +0.000 Cl
ENDBRANCH  13  14
ENDBRANCH  12  13
TORSDOF 2
ENDMDL
MODEL 9
REMARK VINA RESULT:      -5.8     19.765     21.043
REMARK  Name = 
REMARK  2 active torsions:
REMARK  status: ('A' for Active; 'I' for Inactive)
REMARK    1  A    between atoms: N_12  and  C_13
REMARK    2  A    between atoms: C_13  and  C_14
REMARK                            x       y       z     vdW  Elec       q    Type
REMARK                         _______ _______ _______ _____ _____    ______ ____
ROOT
ATOM      1  O   UNL     1      25.556  23.921  23.891  0.00  0.00    +0.000 OA
ATOM      2  C   UNL     1      26.728  24.392  23.987  0.00  0.00    +0.000 C 
ATOM      3  N   UNL     1      27.260  25.541  23.337  0.00  0.00    +0.000 NA
ATOM      4  C   UNL     1      28.683  25.358  23.328  0.00  0.00    +0.000 C 
ATOM      5  C   UNL     1      29.460  26.646  23.339  0.00  0.00    +0.000 C 
ATOM      6  C   UNL     1      29.199  27.460  22.112  0.00  0.00    +0.000 C 
ATOM      7  C   UNL     1      28.584  26.628  21.025  0.00  0.00    +0.000 C 
ATOM      8  C   UNL     1      29.291  25.290  20.942  0.00  0.00    +0.000 C 
ATOM      9  C   UNL     1      29.057  24.456  22.185  0.00  0.00    +0.000 C 
ATOM     10  C   UNL     1      28.906  24.647  24.624  0.00  0.00    +0.000 C 
ATOM     11  O   UNL     1      29.905  24.760  25.398  0.00  0.00    +0.000 OA
ATOM     12  N   UNL     1      27.762  23.820  24.802  0.00  0.00    +0.000 N 
ENDROOT
BRANCH  12  13
ATOM     13  C   UNL     1      27.706  22.650  25.650  0.00  0.00    +0.000 C 
BRANCH  13  14
ATOM     14  C   UNL     1      27.448  23.000  27.068  0.00  0.00    +0.000 A 
ATOM     15  C   UNL     1      26.263  23.557  27.506  0.00  0.00    +0.000 A 
ATOM     16  C   UNL     1      26.062  23.871  28.854  0.00  0.00    +0.000 A 
ATOM     17  C   UNL     1      27.076  23.614  29.743  0.00  0.00    +0.000 A 
ATOM     18  C   UNL     1      28.270  23.060  29.343  0.00  0.00    +0.000 A 
ATOM     19  C   UNL     1      28.435  22.761  27.997  0.00  0.00    +0.000 A 
ATOM     20 CL   UNL     1      29.933  22.056  27.429  0.00  0.00    +0.000 Cl
ENDBRANCH  13  14
ENDBRANCH  12  13
TORSDOF 2
ENDMDL
MODEL 10
REMARK VINA RESULT:      -5.6     21.089     23.332
REMARK  Name = 
REMARK  2 active torsions:
REMARK  status: ('A' for Active; 'I' for Inactive)
REMARK    1  A    between atoms: N_12  and  C_13
REMARK    2  A    between atoms: C_13  and  C_14
REMARK                            x       y       z     vdW  Elec       q    Type
REMARK                         _______ _______ _______ _____ _____    ______ ____
ROOT
ATOM      1  O   UNL     1      22.387  -0.291  15.169  0.00  0.00    +0.000 OA
ATOM      2  C   UNL     1      21.355   0.371  15.481  0.00  0.00    +0.000 C 
ATOM      3  N   UNL     1      20.252   0.711  14.646  0.00  0.00    +0.000 NA
ATOM      4  C   UNL     1      19.643   1.858  15.256  0.00  0.00    +0.000 C 
ATOM      5  C   UNL     1      18.166   1.971  14.991  0.00  0.00    +0.000 C 
ATOM      6  C   UNL     1      17.876   2.147  13.535  0.00  0.00    +0.000 C 
ATOM      7  C   UNL     1      19.102   2.576  12.783  0.00  0.00    +0.000 C 
ATOM      8  C   UNL     1      19.839   3.642  13.569  0.00  0.00    +0.000 C 
ATOM      9  C   UNL     1      20.406   3.090  14.861  0.00  0.00    +0.000 C 
ATOM     10  C   UNL     1      19.854   1.577  16.710  0.00  0.00    +0.000 C 
ATOM     11  O   UNL     1      19.075   1.870  17.667  0.00  0.00    +0.000 OA
ATOM     12  N   UNL     1      21.111   0.916  16.787  0.00  0.00    +0.000 N 
ENDROOT
BRANCH  12  13
ATOM     13  C   UNL     1      21.936   0.836  17.971  0.00  0.00    +0.000 C 
BRANCH  13  14
ATOM     14  C   UNL     1      22.961   1.908  18.010  0.00  0.00    +0.000 A 
ATOM     15  C   UNL     1      22.654   3.242  18.195  0.00  0.00    +0.000 A 
ATOM     16  C   UNL     1      23.653   4.220  18.226  0.00  0.00    +0.000 A 
ATOM     17  C   UNL     1      24.958   3.827  18.066  0.00  0.00    +0.000 A 
ATOM     18  C   UNL     1      25.302   2.507  17.880  0.00  0.00    +0.000 A 
ATOM     19  C   UNL     1      24.284   1.563  17.855  0.00  0.00    +0.000 A 
ATOM     20 CL   UNL     1      24.661  -0.130  17.620  0.00  0.00    +0.000 Cl
ENDBRANCH  13  14
ENDBRANCH  12  13
TORSDOF 2
ENDMDL
