MODEL 1
REMARK VINA RESULT:      -6.5      0.000      0.000
REMARK  Name = 
REMARK  5 active torsions:
REMARK  status: ('A' for Active; 'I' for Inactive)
REMARK    1  A    between atoms: C_2  and  C_3
REMARK    2  A    between atoms: C_3  and  C_4
REMARK    3  A    between atoms: C_4  and  C_5
REMARK    4  A    between atoms: C_5  and  N_6
REMARK    5  A    between atoms: C_10  and  C_11
REMARK                            x       y       z     vdW  Elec       q    Type
REMARK                         _______ _______ _______ _____ _____    ______ ____
ROOT
ATOM      1  N   UNL     1      15.690  11.005  34.009  0.00  0.00    +0.000 N 
ATOM      2  C   UNL     1      14.762  11.875  34.687  0.00  0.00    +0.000 C 
ATOM      3  C   UNL     1      15.305  11.944  36.059  0.00  0.00    +0.000 C 
ATOM      4  O   UNL     1      14.804  12.535  37.072  0.00  0.00    +0.000 OA
ATOM      5  C   UNL     1      16.554  11.203  36.080  0.00  0.00    +0.000 C 
ATOM      6  C   UNL     1      16.760  10.669  34.886  0.00  0.00    +0.000 C 
ATOM      7  N   UNL     1      17.895   9.855  34.531  0.00  0.00    +0.000 NA
ENDROOT
BRANCH   5   8
ATOM      8  C   UNL     1      17.497  11.026  37.198  0.00  0.00    +0.000 A 
ATOM      9  C   UNL     1      18.510  11.936  37.433  0.00  0.00    +0.000 A 
ATOM     10  C   UNL     1      19.429  11.775  38.478  0.00  0.00    +0.000 A 
ATOM     11  C   UNL     1      19.345  10.686  39.310  0.00  0.00    +0.000 A 
ATOM     12  C   UNL     1      18.348   9.765  39.099  0.00  0.00    +0.000 A 
ATOM     13  C   UNL     1      17.433   9.942  38.047  0.00  0.00    +0.000 A 
ENDBRANCH   5   8
BRANCH   1  14
ATOM     14  C   UNL     1      15.542  10.542  32.657  0.00  0.00    +0.000 C 
BRANCH  14  15
ATOM     15  C   UNL     1      16.081  11.460  31.610  0.00  0.00    +0.000 C 
BRANCH  15  16
ATOM     16  C   UNL     1      14.905  12.027  30.832  0.00  0.00    +0.000 C 
BRANCH  16  18
ATOM     17  C   UNL     1      16.434  13.810  30.158  0.00  0.00    +0.000 C 
ATOM     18  C   UNL     1      15.028  13.542  30.682  0.00  0.00    +0.000 C 
ENDBRANCH  16  18
ENDBRANCH  15  16
ENDBRANCH  14  15
ENDBRANCH   1  14
TORSDOF 5
ENDMDL
MODEL 2
REMARK VINA RESULT:      -6.2      1.762      6.284
REMARK  Name = 
REMARK  5 active torsions:
REMARK  status: ('A' for Active; 'I' for Inactive)
REMARK    1  A    between atoms: C_2  and  C_3
REMARK    2  A    between atoms: C_3  and  C_4
REMARK    3  A    between atoms: C_4  and  C_5
REMARK    4  A    between atoms: C_5  and  N_6
REMARK    5  A    between atoms: C_10  and  C_11
REMARK                            x       y       z     vdW  Elec       q    Type
REMARK                         _______ _______ _______ _____ _____    ______ ____
ROOT
ATOM      1  N   UNL     1      16.219  11.285  36.595  0.00  0.00    +0.000 N 
ATOM      2  C   UNL     1      14.969  11.532  37.269  0.00  0.00    +0.000 C 
ATOM      3  C   UNL     1      14.159  12.215  36.241  0.00  0.00    +0.000 C 
ATOM      4  O   UNL     1      12.989  12.707  36.363  0.00  0.00    +0.000 OA
ATOM      5  C   UNL     1      14.932  12.239  35.011  0.00  0.00    +0.000 C 
ATOM      6  C   UNL     1      16.119  11.697  35.235  0.00  0.00    +0.000 C 
ATOM      7  N   UNL     1      17.161  11.556  34.250  0.00  0.00    +0.000 NA
ENDROOT
BRANCH   5   8
ATOM      8  C   UNL     1      14.538  12.759  33.690  0.00  0.00    +0.000 A 
ATOM      9  C   UNL     1      13.882  13.968  33.561  0.00  0.00    +0.000 A 
ATOM     10  C   UNL     1      13.480  14.469  32.317  0.00  0.00    +0.000 A 
ATOM     11  C   UNL     1      13.733  13.757  31.171  0.00  0.00    +0.000 A 
ATOM     12  C   UNL     1      14.384  12.551  31.269  0.00  0.00    +0.000 A 
ATOM     13  C   UNL     1      14.781  12.063  32.525  0.00  0.00    +0.000 A 
ENDBRANCH   5   8
BRANCH   1  14
ATOM     14  C   UNL     1      17.387  10.721  37.212  0.00  0.00    +0.000 C 
BRANCH  14  15
ATOM     15  C   UNL     1      18.401  11.715  37.676  0.00  0.00    +0.000 C 
BRANCH  15  16
ATOM     16  C   UNL     1      19.677  10.962  38.015  0.00  0.00    +0.000 C 
BRANCH  16  18
ATOM     17  C   UNL     1      21.346   9.819  36.644  0.00  0.00    +0.000 C 
ATOM     18  C   UNL     1      19.882   9.782  37.068  0.00  0.00    +0.000 C 
ENDBRANCH  16  18
ENDBRANCH  15  16
ENDBRANCH  14  15
ENDBRANCH   1  14
TORSDOF 5
ENDMDL
MODEL 3
REMARK VINA RESULT:      -6.0     28.097     30.043
REMARK  Name = 
REMARK  5 active torsions:
REMARK  status: ('A' for Active; 'I' for Inactive)
REMARK    1  A    between atoms: C_2  and  C_3
REMARK    2  A    between atoms: C_3  and  C_4
REMARK    3  A    between atoms: C_4  and  C_5
REMARK    4  A    between atoms: C_5  and  N_6
REMARK    5  A    between atoms: C_10  and  C_11
REMARK                            x       y       z     vdW  Elec       q    Type
REMARK                         _______ _______ _______ _____ _____    ______ ____
ROOT
ATOM      1  N   UNL     1      32.446  21.172  11.365  0.00  0.00    +0.000 N 
ATOM      2  C   UNL     1      32.512  21.847  10.093  0.00  0.00    +0.000 C 
ATOM      3  C   UNL     1      31.162  22.429   9.950  0.00  0.00    +0.000 C 
ATOM      4  O   UNL     1      30.686  23.069   8.955  0.00  0.00    +0.000 OA
ATOM      5  C   UNL     1      30.426  22.151  11.172  0.00  0.00    +0.000 C 
ATOM      6  C   UNL     1      31.185  21.425  11.977  0.00  0.00    +0.000 C 
ATOM      7  N   UNL     1      30.787  20.949  13.278  0.00  0.00    +0.000 NA
ENDROOT
BRANCH   5   8
ATOM      8  C   UNL     1      29.063  22.571  11.536  0.00  0.00    +0.000 A 
ATOM      9  C   UNL     1      28.844  23.589  12.445  0.00  0.00    +0.000 A 
ATOM     10  C   UNL     1      27.555  23.988  12.821  0.00  0.00    +0.000 A 
ATOM     11  C   UNL     1      26.455  23.366  12.285  0.00  0.00    +0.000 A 
ATOM     12  C   UNL     1      26.643  22.350  11.379  0.00  0.00    +0.000 A 
ATOM     13  C   UNL     1      27.942  21.962  11.012  0.00  0.00    +0.000 A 
ENDBRANCH   5   8
BRANCH   1  14
ATOM     14  C   UNL     1      33.493  20.358  11.918  0.00  0.00    +0.000 C 
BRANCH  14  15
ATOM     15  C   UNL     1      34.726  20.257  11.081  0.00  0.00    +0.000 C 
BRANCH  15  16
ATOM     16  C   UNL     1      35.926  20.233  12.012  0.00  0.00    +0.000 C 
BRANCH  16  18
ATOM     17  C   UNL     1      36.609  19.614  14.275  0.00  0.00    +0.000 C 
ATOM     18  C   UNL     1      35.759  19.166  13.092  0.00  0.00    +0.000 C 
ENDBRANCH  16  18
ENDBRANCH  15  16
ENDBRANCH  14  15
ENDBRANCH   1  14
TORSDOF 5
ENDMDL
MODEL 4
REMARK VINA RESULT:      -5.9      1.396      6.691
REMARK  Name = 
REMARK  5 active torsions:
REMARK  status: ('A' for Active; 'I' for Inactive)
REMARK    1  A    between atoms: C_2  and  C_3
REMARK    2  A    between atoms: C_3  and  C_4
REMARK    3  A    between atoms: C_4  and  C_5
REMARK    4  A    between atoms: C_5  and  N_6
REMARK    5  A    between atoms: C_10  and  C_11
REMARK                            x       y       z     vdW  Elec       q    Type
REMARK                         _______ _______ _______ _____ _____    ______ ____
ROOT
ATOM      1  N   UNL     1      16.981  10.916  36.561  0.00  0.00    +0.000 N 
ATOM      2  C   UNL     1      15.787  11.419  37.191  0.00  0.00    +0.000 C 
ATOM      3  C   UNL     1      14.942  11.814  36.046  0.00  0.00    +0.000 C 
ATOM      4  O   UNL     1      13.802  12.385  36.072  0.00  0.00    +0.000 OA
ATOM      5  C   UNL     1      15.637  11.433  34.829  0.00  0.00    +0.000 C 
ATOM      6  C   UNL     1      16.813  10.915  35.147  0.00  0.00    +0.000 C 
ATOM      7  N   UNL     1      17.786  10.433  34.200  0.00  0.00    +0.000 NA
ENDROOT
BRANCH   5   8
ATOM      8  C   UNL     1      15.183  11.562  33.434  0.00  0.00    +0.000 A 
ATOM      9  C   UNL     1      15.015  10.453  32.628  0.00  0.00    +0.000 A 
ATOM     10  C   UNL     1      14.604  10.557  31.293  0.00  0.00    +0.000 A 
ATOM     11  C   UNL     1      14.353  11.788  30.741  0.00  0.00    +0.000 A 
ATOM     12  C   UNL     1      14.512  12.909  31.519  0.00  0.00    +0.000 A 
ATOM     13  C   UNL     1      14.924  12.788  32.857  0.00  0.00    +0.000 A 
ENDBRANCH   5   8
BRANCH   1  14
ATOM     14  C   UNL     1      18.163  10.495  37.261  0.00  0.00    +0.000 C 
BRANCH  14  15
ATOM     15  C   UNL     1      17.953   9.407  38.263  0.00  0.00    +0.000 C 
BRANCH  15  16
ATOM     16  C   UNL     1      18.243   9.976  39.642  0.00  0.00    +0.000 C 
BRANCH  16  18
ATOM     17  C   UNL     1      16.068   9.478  40.638  0.00  0.00    +0.000 C 
ATOM     18  C   UNL     1      17.554   9.153  40.729  0.00  0.00    +0.000 C 
ENDBRANCH  16  18
ENDBRANCH  15  16
ENDBRANCH  14  15
ENDBRANCH   1  14
TORSDOF 5
ENDMDL
MODEL 5
REMARK VINA RESULT:      -5.9     28.037     30.234
REMARK  Name = 
REMARK  5 active torsions:
REMARK  status: ('A' for Active; 'I' for Inactive)
REMARK    1  A    between atoms: C_2  and  C_3
REMARK    2  A    between atoms: C_3  and  C_4
REMARK    3  A    between atoms: C_4  and  C_5
REMARK    4  A    between atoms: C_5  and  N_6
REMARK    5  A    between atoms: C_10  and  C_11
REMARK                            x       y       z     vdW  Elec       q    Type
REMARK                         _______ _______ _______ _____ _____    ______ ____
ROOT
ATOM      1  N   UNL     1      32.175  21.180  10.089  0.00  0.00    +0.000 N 
ATOM      2  C   UNL     1      32.269  20.208  11.149  0.00  0.00    +0.000 C 
ATOM      3  C   UNL     1      31.181  20.601  12.066  0.00  0.00    +0.000 C 
ATOM      4  O   UNL     1      30.888  20.095  13.199  0.00  0.00    +0.000 OA
ATOM      5  C   UNL     1      30.458  21.702  11.451  0.00  0.00    +0.000 C 
ATOM      6  C   UNL     1      31.047  22.021  10.310  0.00  0.00    +0.000 C 
ATOM      7  N   UNL     1      30.618  23.075   9.426  0.00  0.00    +0.000 NA
ENDROOT
BRANCH   5   8
ATOM      8  C   UNL     1      29.261  22.402  11.945  0.00  0.00    +0.000 A 
ATOM      9  C   UNL     1      29.327  23.264  13.023  0.00  0.00    +0.000 A 
ATOM     10  C   UNL     1      28.196  23.924  13.522  0.00  0.00    +0.000 A 
ATOM     11  C   UNL     1      26.969  23.725  12.940  0.00  0.00    +0.000 A 
ATOM     12  C   UNL     1      26.873  22.873  11.866  0.00  0.00    +0.000 A 
ATOM     13  C   UNL     1      28.018  22.220  11.378  0.00  0.00    +0.000 A 
ENDBRANCH   5   8
BRANCH   1  14
ATOM     14  C   UNL     1      33.092  21.285   8.988  0.00  0.00    +0.000 C 
BRANCH  14  15
ATOM     15  C   UNL     1      33.033  20.163   8.004  0.00  0.00    +0.000 C 
BRANCH  15  16
ATOM     16  C   UNL     1      31.845  20.403   7.088  0.00  0.00    +0.000 C 
BRANCH  16  18
ATOM     17  C   UNL     1      29.884  19.343   6.088  0.00  0.00    +0.000 C 
ATOM     18  C   UNL     1      31.324  19.087   6.513  0.00  0.00    +0.000 C 
ENDBRANCH  16  18
ENDBRANCH  15  16
ENDBRANCH  14  15
ENDBRANCH   1  14
TORSDOF 5
ENDMDL
MODEL 6
REMARK VINA RESULT:      -5.7     28.313     30.535
REMARK  Name = 
REMARK  5 active torsions:
REMARK  status: ('A' for Active; 'I' for Inactive)
REMARK    1  A    between atoms: C_2  and  C_3
REMARK    2  A    between atoms: C_3  and  C_4
REMARK    3  A    between atoms: C_4  and  C_5
REMARK    4  A    between atoms: C_5  and  N_6
REMARK    5  A    between atoms: C_10  and  C_11
REMARK                            x       y       z     vdW  Elec       q    Type
REMARK                         _______ _______ _______ _____ _____    ______ ____
ROOT
ATOM      1  N   UNL     1      32.428  21.739  10.676  0.00  0.00    +0.000 N 
ATOM      2  C   UNL     1      32.535  21.103  11.965  0.00  0.00    +0.000 C 
ATOM      3  C   UNL     1      31.228  21.388  12.591  0.00  0.00    +0.000 C 
ATOM      4  O   UNL     1      30.845  21.099  13.773  0.00  0.00    +0.000 OA
ATOM      5  C   UNL     1      30.407  22.077  11.611  0.00  0.00    +0.000 C 
ATOM      6  C   UNL     1      31.117  22.270  10.511  0.00  0.00    +0.000 C 
ATOM      7  N   UNL     1      30.637  22.933   9.325  0.00  0.00    +0.000 NA
ENDROOT
BRANCH   5   8
ATOM      8  C   UNL     1      29.008  22.522  11.737  0.00  0.00    +0.000 A 
ATOM      9  C   UNL     1      28.668  23.608  12.519  0.00  0.00    +0.000 A 
ATOM     10  C   UNL     1      27.342  24.034  12.669  0.00  0.00    +0.000 A 
ATOM     11  C   UNL     1      26.326  23.368  12.029  0.00  0.00    +0.000 A 
ATOM     12  C   UNL     1      26.635  22.283  11.244  0.00  0.00    +0.000 A 
ATOM     13  C   UNL     1      27.971  21.870  11.105  0.00  0.00    +0.000 A 
ENDBRANCH   5   8
BRANCH   1  14
ATOM     14  C   UNL     1      33.492  21.830   9.715  0.00  0.00    +0.000 C 
BRANCH  14  15
ATOM     15  C   UNL     1      34.246  23.119   9.725  0.00  0.00    +0.000 C 
BRANCH  15  16
ATOM     16  C   UNL     1      35.587  22.875  10.396  0.00  0.00    +0.000 C 
BRANCH  16  18
ATOM     17  C   UNL     1      35.633  25.254   9.842  0.00  0.00    +0.000 C 
ATOM     18  C   UNL     1      36.283  24.195  10.724  0.00  0.00    +0.000 C 
ENDBRANCH  16  18
ENDBRANCH  15  16
ENDBRANCH  14  15
ENDBRANCH   1  14
TORSDOF 5
ENDMDL
MODEL 7
REMARK VINA RESULT:      -5.7     18.406     20.295
REMARK  Name = 
REMARK  5 active torsions:
REMARK  status: ('A' for Active; 'I' for Inactive)
REMARK    1  A    between atoms: C_2  and  C_3
REMARK    2  A    between atoms: C_3  and  C_4
REMARK    3  A    between atoms: C_4  and  C_5
REMARK    4  A    between atoms: C_5  and  N_6
REMARK    5  A    between atoms: C_10  and  C_11
REMARK                            x       y       z     vdW  Elec       q    Type
REMARK                         _______ _______ _______ _____ _____    ______ ____
ROOT
ATOM      1  N   UNL     1      33.552   1.109  34.968  0.00  0.00    +0.000 N 
ATOM      2  C   UNL     1      33.424   1.289  33.544  0.00  0.00    +0.000 C 
ATOM      3  C   UNL     1      33.691   2.729  33.360  0.00  0.00    +0.000 C 
ATOM      4  O   UNL     1      33.630   3.406  32.281  0.00  0.00    +0.000 OA
ATOM      5  C   UNL     1      34.052   3.283  34.653  0.00  0.00    +0.000 C 
ATOM      6  C   UNL     1      33.967   2.331  35.570  0.00  0.00    +0.000 C 
ATOM      7  N   UNL     1      34.241   2.511  36.973  0.00  0.00    +0.000 NA
ENDROOT
BRANCH   5   8
ATOM      8  C   UNL     1      34.460   4.660  34.980  0.00  0.00    +0.000 A 
ATOM      9  C   UNL     1      35.794   5.010  35.073  0.00  0.00    +0.000 A 
ATOM     10  C   UNL     1      36.202   6.309  35.403  0.00  0.00    +0.000 A 
ATOM     11  C   UNL     1      35.269   7.285  35.648  0.00  0.00    +0.000 A 
ATOM     12  C   UNL     1      33.935   6.965  35.562  0.00  0.00    +0.000 A 
ATOM     13  C   UNL     1      33.542   5.658  35.229  0.00  0.00    +0.000 A 
ENDBRANCH   5   8
BRANCH   1  14
ATOM     14  C   UNL     1      33.285  -0.117  35.668  0.00  0.00    +0.000 C 
BRANCH  14  15
ATOM     15  C   UNL     1      34.384  -1.126  35.621  0.00  0.00    +0.000 C 
BRANCH  15  16
ATOM     16  C   UNL     1      33.799  -2.437  35.123  0.00  0.00    +0.000 C 
BRANCH  16  18
ATOM     17  C   UNL     1      33.601  -3.773  33.087  0.00  0.00    +0.000 C 
ATOM     18  C   UNL     1      33.470  -2.357  33.634  0.00  0.00    +0.000 C 
ENDBRANCH  16  18
ENDBRANCH  15  16
ENDBRANCH  14  15
ENDBRANCH   1  14
TORSDOF 5
ENDMDL
MODEL 8
REMARK VINA RESULT:      -5.6     28.101     30.370
REMARK  Name = 
REMARK  5 active torsions:
REMARK  status: ('A' for Active; 'I' for Inactive)
REMARK    1  A    between atoms: C_2  and  C_3
REMARK    2  A    between atoms: C_3  and  C_4
REMARK    3  A    between atoms: C_4  and  C_5
REMARK    4  A    between atoms: C_5  and  N_6
REMARK    5  A    between atoms: C_10  and  C_11
REMARK                            x       y       z     vdW  Elec       q    Type
REMARK                         _______ _______ _______ _____ _____    ______ ____
ROOT
ATOM      1  N   UNL     1      32.594  21.438  11.469  0.00  0.00    +0.000 N 
ATOM      2  C   UNL     1      32.618  22.085  10.182  0.00  0.00    +0.000 C 
ATOM      3  C   UNL     1      31.232  22.568  10.021  0.00  0.00    +0.000 C 
ATOM      4  O   UNL     1      30.716  23.149   9.010  0.00  0.00    +0.000 OA
ATOM      5  C   UNL     1      30.512  22.268  11.247  0.00  0.00    +0.000 C 
ATOM      6  C   UNL     1      31.316  21.616  12.072  0.00  0.00    +0.000 C 
ATOM      7  N   UNL     1      30.948  21.144  13.382  0.00  0.00    +0.000 NA
ENDROOT
BRANCH   5   8
ATOM      8  C   UNL     1      29.121  22.600  11.598  0.00  0.00    +0.000 A 
ATOM      9  C   UNL     1      28.058  21.905  11.054  0.00  0.00    +0.000 A 
ATOM     10  C   UNL     1      26.727  22.218  11.358  0.00  0.00    +0.000 A 
ATOM     11  C   UNL     1      26.440  23.245  12.223  0.00  0.00    +0.000 A 
ATOM     12  C   UNL     1      27.477  23.954  12.779  0.00  0.00    +0.000 A 
ATOM     13  C   UNL     1      28.807  23.626  12.464  0.00  0.00    +0.000 A 
ENDBRANCH   5   8
BRANCH   1  14
ATOM     14  C   UNL     1      33.694  20.713  12.044  0.00  0.00    +0.000 C 
BRANCH  14  15
ATOM     15  C   UNL     1      34.476  19.881  11.082  0.00  0.00    +0.000 C 
BRANCH  15  16
ATOM     16  C   UNL     1      35.934  19.912  11.510  0.00  0.00    +0.000 C 
BRANCH  16  18
ATOM     17  C   UNL     1      37.042  21.503  10.023  0.00  0.00    +0.000 C 
ATOM     18  C   UNL     1      36.496  21.331  11.435  0.00  0.00    +0.000 C 
ENDBRANCH  16  18
ENDBRANCH  15  16
ENDBRANCH  14  15
ENDBRANCH   1  14
TORSDOF 5
ENDMDL
MODEL 9
REMARK VINA RESULT:      -5.5     18.490     20.293
REMARK  Name = 
REMARK  5 active torsions:
REMARK  status: ('A' for Active; 'I' for Inactive)
REMARK    1  A    between atoms: C_2  and  C_3
REMARK    2  A    between atoms: C_3  and  C_4
REMARK    3  A    between atoms: C_4  and  C_5
REMARK    4  A    between atoms: C_5  and  N_6
REMARK    5  A    between atoms: C_10  and  C_11
REMARK                            x       y       z     vdW  Elec       q    Type
REMARK                         _______ _______ _______ _____ _____    ______ ____
ROOT
ATOM      1  N   UNL     1      33.501   1.265  34.703  0.00  0.00    +0.000 N 
ATOM      2  C   UNL     1      33.680   1.011  36.110  0.00  0.00    +0.000 C 
ATOM      3  C   UNL     1      34.219   2.288  36.618  0.00  0.00    +0.000 C 
ATOM      4  O   UNL     1      34.613   2.558  37.801  0.00  0.00    +0.000 OA
ATOM      5  C   UNL     1      34.230   3.235  35.517  0.00  0.00    +0.000 C 
ATOM      6  C   UNL     1      33.811   2.626  34.419  0.00  0.00    +0.000 C 
ATOM      7  N   UNL     1      33.699   3.246  33.123  0.00  0.00    +0.000 NA
ENDROOT
BRANCH   5   8
ATOM      8  C   UNL     1      34.624   4.654  35.531  0.00  0.00    +0.000 A 
ATOM      9  C   UNL     1      35.944   5.034  35.382  0.00  0.00    +0.000 A 
ATOM     10  C   UNL     1      36.342   6.377  35.414  0.00  0.00    +0.000 A 
ATOM     11  C   UNL     1      35.412   7.369  35.600  0.00  0.00    +0.000 A 
ATOM     12  C   UNL     1      34.091   7.020  35.752  0.00  0.00    +0.000 A 
ATOM     13  C   UNL     1      33.709   5.668  35.716  0.00  0.00    +0.000 A 
ENDBRANCH   5   8
BRANCH   1  14
ATOM     14  C   UNL     1      33.085   0.285  33.737  0.00  0.00    +0.000 C 
BRANCH  14  15
ATOM     15  C   UNL     1      33.899  -0.966  33.714  0.00  0.00    +0.000 C 
BRANCH  15  16
ATOM     16  C   UNL     1      33.046  -2.093  34.271  0.00  0.00    +0.000 C 
BRANCH  16  18
ATOM     17  C   UNL     1      33.564  -3.894  32.703  0.00  0.00    +0.000 C 
ATOM     18  C   UNL     1      33.763  -3.436  34.143  0.00  0.00    +0.000 C 
ENDBRANCH  16  18
ENDBRANCH  15  16
ENDBRANCH  14  15
ENDBRANCH   1  14
TORSDOF 5
ENDMDL
MODEL 10
REMARK VINA RESULT:      -5.5     18.026     21.028
REMARK  Name = 
REMARK  5 active torsions:
REMARK  status: ('A' for Active; 'I' for Inactive)
REMARK    1  A    between atoms: C_2  and  C_3
REMARK    2  A    between atoms: C_3  and  C_4
REMARK    3  A    between atoms: C_4  and  C_5
REMARK    4  A    between atoms: C_5  and  N_6
REMARK    5  A    between atoms: C_10  and  C_11
REMARK                            x       y       z     vdW  Elec       q    Type
REMARK                         _______ _______ _______ _____ _____    ______ ____
ROOT
ATOM      1  N   UNL     1      26.466  23.728  25.690  0.00  0.00    +0.000 N 
ATOM      2  C   UNL     1      25.722  22.860  24.812  0.00  0.00    +0.000 C 
ATOM      3  C   UNL     1      26.065  23.367  23.468  0.00  0.00    +0.000 C 
ATOM      4  O   UNL     1      25.606  22.980  22.343  0.00  0.00    +0.000 OA
ATOM      5  C   UNL     1      27.052  24.421  23.629  0.00  0.00    +0.000 C 
ATOM      6  C   UNL     1      27.271  24.614  24.920  0.00  0.00    +0.000 C 
ATOM      7  N   UNL     1      28.182  25.588  25.465  0.00  0.00    +0.000 NA
ENDROOT
BRANCH   5   8
ATOM      8  C   UNL     1      27.745  25.195  22.585  0.00  0.00    +0.000 A 
ATOM      9  C   UNL     1      27.349  26.478  22.261  0.00  0.00    +0.000 A 
ATOM     10  C   UNL     1      27.981  27.223  21.258  0.00  0.00    +0.000 A 
ATOM     11  C   UNL     1      29.032  26.685  20.556  0.00  0.00    +0.000 A 
ATOM     12  C   UNL     1      29.447  25.411  20.857  0.00  0.00    +0.000 A 
ATOM     13  C   UNL     1      28.802  24.677  21.867  0.00  0.00    +0.000 A 
ENDBRANCH   5   8
BRANCH   1  14
ATOM     14  C   UNL     1      26.390  23.704  27.125  0.00  0.00    +0.000 C 
BRANCH  14  15
ATOM     15  C   UNL     1      27.643  23.285  27.820  0.00  0.00    +0.000 C 
BRANCH  15  16
ATOM     16  C   UNL     1      28.224  22.099  27.067  0.00  0.00    +0.000 C 
BRANCH  16  18
ATOM     17  C   UNL     1      30.047  22.331  25.457  0.00  0.00    +0.000 C 
ATOM     18  C   UNL     1      29.742  22.220  26.946  0.00  0.00    +0.000 C 
ENDBRANCH  16  18
ENDBRANCH  15  16
ENDBRANCH  14  15
ENDBRANCH   1  14
TORSDOF 5
ENDMDL
