MODEL 1
REMARK VINA RESULT:      -6.1      0.000      0.000
REMARK  Name = 
REMARK  3 active torsions:
REMARK  status: ('A' for Active; 'I' for Inactive)
REMARK    1  A    between atoms: N_8  and  C_9
REMARK    2  A    between atoms: C_9  and  C_10
REMARK    3  A    between atoms: C_10  and  C_11
REMARK                            x       y       z     vdW  Elec       q    Type
REMARK                         _______ _______ _______ _____ _____    ______ ____
ROOT
ATOM      1  C   UNL     1      34.420  21.156  32.160  0.00  0.00    +0.000 C 
ATOM      2  C   UNL     1      33.044  21.535  31.667  0.00  0.00    +0.000 A 
ATOM      3  S   UNL     1      31.557  21.551  32.501  0.00  0.00    +0.000 S 
ATOM      4  C   UNL     1      30.537  22.087  31.247  0.00  0.00    +0.000 A 
ATOM      5  N   UNL     1      29.202  22.348  31.145  0.00  0.00    +0.000 NA
ATOM      6  C   UNL     1      28.648  22.774  29.995  0.00  0.00    +0.000 A 
ATOM      7  O   UNL     1      27.417  23.008  29.921  0.00  0.00    +0.000 OA
ATOM      8  N   UNL     1      29.490  22.927  28.961  0.00  0.00    +0.000 N 
ATOM      9  C   UNL     1      30.789  22.692  28.997  0.00  0.00    +0.000 A 
ATOM     10  O   UNL     1      31.451  22.882  27.944  0.00  0.00    +0.000 OA
ATOM     11  C   UNL     1      31.397  22.243  30.192  0.00  0.00    +0.000 A 
ATOM     12  C   UNL     1      32.692  21.958  30.410  0.00  0.00    +0.000 A 
ATOM     13  C   UNL     1      33.785  22.073  29.353  0.00  0.00    +0.000 C 
ENDROOT
BRANCH   8  14
ATOM     14  C   UNL     1      28.886  23.390  27.718  0.00  0.00    +0.000 C 
BRANCH  14  15
ATOM     15  C   UNL     1      28.562  22.289  26.769  0.00  0.00    +0.000 C 
BRANCH  15  16
ATOM     16  C   UNL     1      27.878  22.732  25.537  0.00  0.00    +0.000 A 
ATOM     17  C   UNL     1      26.498  22.877  25.524  0.00  0.00    +0.000 A 
ATOM     18  C   UNL     1      25.838  23.288  24.388  0.00  0.00    +0.000 A 
ATOM     19  C   UNL     1      26.503  23.576  23.217  0.00  0.00    +0.000 A 
ATOM     20  C   UNL     1      27.875  23.431  23.230  0.00  0.00    +0.000 A 
ATOM     21  C   UNL     1      28.543  23.020  24.364  0.00  0.00    +0.000 A 
ENDBRANCH  15  16
ENDBRANCH  14  15
ENDBRANCH   8  14
TORSDOF 3
ENDMDL
MODEL 2
REMARK VINA RESULT:      -6.1      2.692      6.933
REMARK  Name = 
REMARK  3 active torsions:
REMARK  status: ('A' for Active; 'I' for Inactive)
REMARK    1  A    between atoms: N_8  and  C_9
REMARK    2  A    between atoms: C_9  and  C_10
REMARK    3  A    between atoms: C_10  and  C_11
REMARK                            x       y       z     vdW  Elec       q    Type
REMARK                         _______ _______ _______ _____ _____    ______ ____
ROOT
ATOM      1  C   UNL     1      28.366  23.757  22.117  0.00  0.00    +0.000 C 
ATOM      2  C   UNL     1      27.879  23.724  23.547  0.00  0.00    +0.000 A 
ATOM      3  S   UNL     1      26.470  24.398  24.230  0.00  0.00    +0.000 S 
ATOM      4  C   UNL     1      26.683  23.912  25.848  0.00  0.00    +0.000 A 
ATOM      5  N   UNL     1      25.967  24.074  26.998  0.00  0.00    +0.000 NA
ATOM      6  C   UNL     1      26.385  23.565  28.173  0.00  0.00    +0.000 A 
ATOM      7  O   UNL     1      25.712  23.727  29.220  0.00  0.00    +0.000 OA
ATOM      8  N   UNL     1      27.545  22.892  28.138  0.00  0.00    +0.000 N 
ATOM      9  C   UNL     1      28.282  22.701  27.060  0.00  0.00    +0.000 A 
ATOM     10  O   UNL     1      29.349  22.046  27.184  0.00  0.00    +0.000 OA
ATOM     11  C   UNL     1      27.867  23.224  25.814  0.00  0.00    +0.000 A 
ATOM     12  C   UNL     1      28.484  23.127  24.624  0.00  0.00    +0.000 A 
ATOM     13  C   UNL     1      29.806  22.401  24.400  0.00  0.00    +0.000 C 
ENDROOT
BRANCH   8  14
ATOM     14  C   UNL     1      27.994  22.342  29.412  0.00  0.00    +0.000 C 
BRANCH  14  15
ATOM     15  C   UNL     1      28.956  23.222  30.132  0.00  0.00    +0.000 C 
BRANCH  15  16
ATOM     16  C   UNL     1      30.146  22.520  30.653  0.00  0.00    +0.000 A 
ATOM     17  C   UNL     1      30.155  22.039  31.954  0.00  0.00    +0.000 A 
ATOM     18  C   UNL     1      31.252  21.381  32.462  0.00  0.00    +0.000 A 
ATOM     19  C   UNL     1      32.388  21.166  31.715  0.00  0.00    +0.000 A 
ATOM     20  C   UNL     1      32.381  21.644  30.421  0.00  0.00    +0.000 A 
ATOM     21  C   UNL     1      31.285  22.304  29.905  0.00  0.00    +0.000 A 
ENDBRANCH  15  16
ENDBRANCH  14  15
ENDBRANCH   8  14
TORSDOF 3
ENDMDL
MODEL 3
REMARK VINA RESULT:      -5.9     18.374     20.180
REMARK  Name = 
REMARK  3 active torsions:
REMARK  status: ('A' for Active; 'I' for Inactive)
REMARK    1  A    between atoms: N_8  and  C_9
REMARK    2  A    between atoms: C_9  and  C_10
REMARK    3  A    between atoms: C_10  and  C_11
REMARK                            x       y       z     vdW  Elec       q    Type
REMARK                         _______ _______ _______ _____ _____    ______ ____
ROOT
ATOM      1  C   UNL     1      16.580   8.021  43.668  0.00  0.00    +0.000 C 
ATOM      2  C   UNL     1      16.874   8.633  42.319  0.00  0.00    +0.000 A 
ATOM      3  S   UNL     1      15.804   9.052  41.059  0.00  0.00    +0.000 S 
ATOM      4  C   UNL     1      16.924   9.663  39.931  0.00  0.00    +0.000 A 
ATOM      5  N   UNL     1      16.829  10.190  38.677  0.00  0.00    +0.000 NA
ATOM      6  C   UNL     1      17.913  10.606  37.997  0.00  0.00    +0.000 A 
ATOM      7  O   UNL     1      17.802  11.088  36.842  0.00  0.00    +0.000 OA
ATOM      8  N   UNL     1      19.088  10.470  38.629  0.00  0.00    +0.000 N 
ATOM      9  C   UNL     1      19.246   9.968  39.840  0.00  0.00    +0.000 A 
ATOM     10  O   UNL     1      20.414   9.904  40.303  0.00  0.00    +0.000 OA
ATOM     11  C   UNL     1      18.125   9.524  40.577  0.00  0.00    +0.000 A 
ATOM     12  C   UNL     1      18.098   8.992  41.811  0.00  0.00    +0.000 A 
ATOM     13  C   UNL     1      19.334   8.763  42.674  0.00  0.00    +0.000 C 
ENDROOT
BRANCH   8  14
ATOM     14  C   UNL     1      20.260  10.923  37.889  0.00  0.00    +0.000 C 
BRANCH  14  15
ATOM     15  C   UNL     1      20.832   9.883  36.990  0.00  0.00    +0.000 C 
BRANCH  15  16
ATOM     16  C   UNL     1      22.306   9.802  37.018  0.00  0.00    +0.000 A 
ATOM     17  C   UNL     1      23.048  10.279  35.946  0.00  0.00    +0.000 A 
ATOM     18  C   UNL     1      24.423  10.215  35.949  0.00  0.00    +0.000 A 
ATOM     19  C   UNL     1      25.130   9.681  37.004  0.00  0.00    +0.000 A 
ATOM     20  C   UNL     1      24.393   9.207  38.069  0.00  0.00    +0.000 A 
ATOM     21  C   UNL     1      23.015   9.268  38.073  0.00  0.00    +0.000 A 
ENDBRANCH  15  16
ENDBRANCH  14  15
ENDBRANCH   8  14
TORSDOF 3
ENDMDL
MODEL 4
REMARK VINA RESULT:      -5.8      5.545      8.779
REMARK  Name = 
REMARK  3 active torsions:
REMARK  status: ('A' for Active; 'I' for Inactive)
REMARK    1  A    between atoms: N_8  and  C_9
REMARK    2  A    between atoms: C_9  and  C_10
REMARK    3  A    between atoms: C_10  and  C_11
REMARK                            x       y       z     vdW  Elec       q    Type
REMARK                         _______ _______ _______ _____ _____    ______ ____
ROOT
ATOM      1  C   UNL     1      27.303  31.211  23.225  0.00  0.00    +0.000 C 
ATOM      2  C   UNL     1      27.759  29.854  22.742  0.00  0.00    +0.000 A 
ATOM      3  S   UNL     1      28.733  29.449  21.403  0.00  0.00    +0.000 S 
ATOM      4  C   UNL     1      28.757  27.755  21.576  0.00  0.00    +0.000 A 
ATOM      5  N   UNL     1      29.332  26.730  20.883  0.00  0.00    +0.000 NA
ATOM      6  C   UNL     1      29.180  25.446  21.258  0.00  0.00    +0.000 A 
ATOM      7  O   UNL     1      29.717  24.517  20.605  0.00  0.00    +0.000 OA
ATOM      8  N   UNL     1      28.431  25.241  22.351  0.00  0.00    +0.000 N 
ATOM      9  C   UNL     1      27.849  26.188  23.064  0.00  0.00    +0.000 A 
ATOM     10  O   UNL     1      27.176  25.841  24.068  0.00  0.00    +0.000 OA
ATOM     11  C   UNL     1      27.992  27.545  22.693  0.00  0.00    +0.000 A 
ATOM     12  C   UNL     1      27.477  28.630  23.295  0.00  0.00    +0.000 A 
ATOM     13  C   UNL     1      26.605  28.585  24.545  0.00  0.00    +0.000 C 
ENDROOT
BRANCH   8  14
ATOM     14  C   UNL     1      28.270  23.849  22.754  0.00  0.00    +0.000 C 
BRANCH  14  15
ATOM     15  C   UNL     1      29.461  23.293  23.455  0.00  0.00    +0.000 C 
BRANCH  15  16
ATOM     16  C   UNL     1      29.206  22.880  24.850  0.00  0.00    +0.000 A 
ATOM     17  C   UNL     1      27.912  22.889  25.351  0.00  0.00    +0.000 A 
ATOM     18  C   UNL     1      27.649  22.508  26.647  0.00  0.00    +0.000 A 
ATOM     19  C   UNL     1      28.644  22.101  27.508  0.00  0.00    +0.000 A 
ATOM     20  C   UNL     1      29.930  22.093  27.010  0.00  0.00    +0.000 A 
ATOM     21  C   UNL     1      30.201  22.473  25.713  0.00  0.00    +0.000 A 
ENDBRANCH  15  16
ENDBRANCH  14  15
ENDBRANCH   8  14
TORSDOF 3
ENDMDL
MODEL 5
REMARK VINA RESULT:      -5.8      3.912      7.273
REMARK  Name = 
REMARK  3 active torsions:
REMARK  status: ('A' for Active; 'I' for Inactive)
REMARK    1  A    between atoms: N_8  and  C_9
REMARK    2  A    between atoms: C_9  and  C_10
REMARK    3  A    between atoms: C_10  and  C_11
REMARK                            x       y       z     vdW  Elec       q    Type
REMARK                         _______ _______ _______ _____ _____    ______ ____
ROOT
ATOM      1  C   UNL     1      23.324  26.367  27.895  0.00  0.00    +0.000 C 
ATOM      2  C   UNL     1      24.309  25.703  26.961  0.00  0.00    +0.000 A 
ATOM      3  S   UNL     1      24.361  25.704  25.257  0.00  0.00    +0.000 S 
ATOM      4  C   UNL     1      25.748  24.746  25.018  0.00  0.00    +0.000 A 
ATOM      5  N   UNL     1      26.426  24.300  23.922  0.00  0.00    +0.000 NA
ATOM      6  C   UNL     1      27.527  23.534  24.031  0.00  0.00    +0.000 A 
ATOM      7  O   UNL     1      28.136  23.133  23.008  0.00  0.00    +0.000 OA
ATOM      8  N   UNL     1      27.913  23.239  25.281  0.00  0.00    +0.000 N 
ATOM      9  C   UNL     1      27.302  23.640  26.380  0.00  0.00    +0.000 A 
ATOM     10  O   UNL     1      27.783  23.283  27.486  0.00  0.00    +0.000 OA
ATOM     11  C   UNL     1      26.143  24.445  26.296  0.00  0.00    +0.000 A 
ATOM     12  C   UNL     1      25.399  24.941  27.298  0.00  0.00    +0.000 A 
ATOM     13  C   UNL     1      25.688  24.708  28.777  0.00  0.00    +0.000 C 
ENDROOT
BRANCH   8  14
ATOM     14  C   UNL     1      29.108  22.410  25.394  0.00  0.00    +0.000 C 
BRANCH  14  15
ATOM     15  C   UNL     1      30.377  23.186  25.326  0.00  0.00    +0.000 C 
BRANCH  15  16
ATOM     16  C   UNL     1      31.204  23.105  26.547  0.00  0.00    +0.000 A 
ATOM     17  C   UNL     1      30.982  22.093  27.470  0.00  0.00    +0.000 A 
ATOM     18  C   UNL     1      31.740  21.995  28.615  0.00  0.00    +0.000 A 
ATOM     19  C   UNL     1      32.748  22.887  28.904  0.00  0.00    +0.000 A 
ATOM     20  C   UNL     1      32.969  23.894  27.987  0.00  0.00    +0.000 A 
ATOM     21  C   UNL     1      32.214  23.997  26.838  0.00  0.00    +0.000 A 
ENDBRANCH  15  16
ENDBRANCH  14  15
ENDBRANCH   8  14
TORSDOF 3
ENDMDL
MODEL 6
REMARK VINA RESULT:      -5.7      3.952      6.319
REMARK  Name = 
REMARK  3 active torsions:
REMARK  status: ('A' for Active; 'I' for Inactive)
REMARK    1  A    between atoms: N_8  and  C_9
REMARK    2  A    between atoms: C_9  and  C_10
REMARK    3  A    between atoms: C_10  and  C_11
REMARK                            x       y       z     vdW  Elec       q    Type
REMARK                         _______ _______ _______ _____ _____    ______ ____
ROOT
ATOM      1  C   UNL     1      22.590  28.045  29.424  0.00  0.00    +0.000 C 
ATOM      2  C   UNL     1      23.602  26.952  29.672  0.00  0.00    +0.000 A 
ATOM      3  S   UNL     1      24.310  26.438  31.135  0.00  0.00    +0.000 S 
ATOM      4  C   UNL     1      25.311  25.195  30.542  0.00  0.00    +0.000 A 
ATOM      5  N   UNL     1      26.186  24.317  31.111  0.00  0.00    +0.000 NA
ATOM      6  C   UNL     1      26.862  23.412  30.378  0.00  0.00    +0.000 A 
ATOM      7  O   UNL     1      27.664  22.614  30.922  0.00  0.00    +0.000 OA
ATOM      8  N   UNL     1      26.619  23.429  29.059  0.00  0.00    +0.000 N 
ATOM      9  C   UNL     1      25.785  24.251  28.450  0.00  0.00    +0.000 A 
ATOM     10  O   UNL     1      25.662  24.147  27.202  0.00  0.00    +0.000 OA
ATOM     11  C   UNL     1      25.063  25.212  29.194  0.00  0.00    +0.000 A 
ATOM     12  C   UNL     1      24.180  26.119  28.746  0.00  0.00    +0.000 A 
ATOM     13  C   UNL     1      23.784  26.281  27.283  0.00  0.00    +0.000 C 
ENDROOT
BRANCH   8  14
ATOM     14  C   UNL     1      27.352  22.446  28.270  0.00  0.00    +0.000 C 
BRANCH  14  15
ATOM     15  C   UNL     1      28.778  22.812  28.043  0.00  0.00    +0.000 C 
BRANCH  15  16
ATOM     16  C   UNL     1      29.182  22.821  26.622  0.00  0.00    +0.000 A 
ATOM     17  C   UNL     1      28.255  23.132  25.638  0.00  0.00    +0.000 A 
ATOM     18  C   UNL     1      28.608  23.147  24.308  0.00  0.00    +0.000 A 
ATOM     19  C   UNL     1      29.887  22.860  23.886  0.00  0.00    +0.000 A 
ATOM     20  C   UNL     1      30.809  22.551  24.864  0.00  0.00    +0.000 A 
ATOM     21  C   UNL     1      30.463  22.534  26.198  0.00  0.00    +0.000 A 
ENDBRANCH  15  16
ENDBRANCH  14  15
ENDBRANCH   8  14
TORSDOF 3
ENDMDL
MODEL 7
REMARK VINA RESULT:      -5.7     23.092     25.183
REMARK  Name = 
REMARK  3 active torsions:
REMARK  status: ('A' for Active; 'I' for Inactive)
REMARK    1  A    between atoms: N_8  and  C_9
REMARK    2  A    between atoms: C_9  and  C_10
REMARK    3  A    between atoms: C_10  and  C_11
REMARK                            x       y       z     vdW  Elec       q    Type
REMARK                         _______ _______ _______ _____ _____    ______ ____
ROOT
ATOM      1  C   UNL     1      35.439  -6.886  35.501  0.00  0.00    +0.000 C 
ATOM      2  C   UNL     1      34.910  -5.499  35.779  0.00  0.00    +0.000 A 
ATOM      3  S   UNL     1      34.722  -4.686  37.266  0.00  0.00    +0.000 S 
ATOM      4  C   UNL     1      34.081  -3.213  36.701  0.00  0.00    +0.000 A 
ATOM      5  N   UNL     1      33.674  -2.055  37.296  0.00  0.00    +0.000 NA
ATOM      6  C   UNL     1      33.195  -1.019  36.582  0.00  0.00    +0.000 A 
ATOM      7  O   UNL     1      32.824   0.038  37.151  0.00  0.00    +0.000 OA
ATOM      8  N   UNL     1      33.145  -1.199  35.254  0.00  0.00    +0.000 N 
ATOM      9  C   UNL     1      33.523  -2.292  34.619  0.00  0.00    +0.000 A 
ATOM     10  O   UNL     1      33.417  -2.313  33.366  0.00  0.00    +0.000 OA
ATOM     11  C   UNL     1      34.030  -3.395  35.344  0.00  0.00    +0.000 A 
ATOM     12  C   UNL     1      34.459  -4.577  34.869  0.00  0.00    +0.000 A 
ATOM     13  C   UNL     1      34.473  -4.953  33.391  0.00  0.00    +0.000 C 
ENDROOT
BRANCH   8  14
ATOM     14  C   UNL     1      32.626  -0.074  34.484  0.00  0.00    +0.000 C 
BRANCH  14  15
ATOM     15  C   UNL     1      33.691   0.747  33.844  0.00  0.00    +0.000 C 
BRANCH  15  16
ATOM     16  C   UNL     1      33.632   2.185  34.179  0.00  0.00    +0.000 A 
ATOM     17  C   UNL     1      33.955   2.613  35.458  0.00  0.00    +0.000 A 
ATOM     18  C   UNL     1      33.909   3.947  35.794  0.00  0.00    +0.000 A 
ATOM     19  C   UNL     1      33.545   4.919  34.889  0.00  0.00    +0.000 A 
ATOM     20  C   UNL     1      33.224   4.493  33.617  0.00  0.00    +0.000 A 
ATOM     21  C   UNL     1      33.268   3.159  33.273  0.00  0.00    +0.000 A 
ENDBRANCH  15  16
ENDBRANCH  14  15
ENDBRANCH   8  14
TORSDOF 3
ENDMDL
MODEL 8
REMARK VINA RESULT:      -5.6     22.191     24.145
REMARK  Name = 
REMARK  3 active torsions:
REMARK  status: ('A' for Active; 'I' for Inactive)
REMARK    1  A    between atoms: N_8  and  C_9
REMARK    2  A    between atoms: C_9  and  C_10
REMARK    3  A    between atoms: C_10  and  C_11
REMARK                            x       y       z     vdW  Elec       q    Type
REMARK                         _______ _______ _______ _____ _____    ______ ____
ROOT
ATOM      1  C   UNL     1      20.433   3.022  11.068  0.00  0.00    +0.000 C 
ATOM      2  C   UNL     1      20.864   2.916  12.512  0.00  0.00    +0.000 A 
ATOM      3  S   UNL     1      19.989   2.368  13.870  0.00  0.00    +0.000 S 
ATOM      4  C   UNL     1      21.180   2.570  15.070  0.00  0.00    +0.000 A 
ATOM      5  N   UNL     1      21.230   2.347  16.415  0.00  0.00    +0.000 NA
ATOM      6  C   UNL     1      22.337   2.604  17.137  0.00  0.00    +0.000 A 
ATOM      7  O   UNL     1      22.362   2.393  18.374  0.00  0.00    +0.000 OA
ATOM      8  N   UNL     1      23.382   3.090  16.451  0.00  0.00    +0.000 N 
ATOM      9  C   UNL     1      23.396   3.327  15.152  0.00  0.00    +0.000 A 
ATOM     10  O   UNL     1      24.454   3.785  14.648  0.00  0.00    +0.000 OA
ATOM     11  C   UNL     1      22.248   3.067  14.370  0.00  0.00    +0.000 A 
ATOM     12  C   UNL     1      22.083   3.244  13.049  0.00  0.00    +0.000 A 
ATOM     13  C   UNL     1      23.161   3.786  12.116  0.00  0.00    +0.000 C 
ENDROOT
BRANCH   8  14
ATOM     14  C   UNL     1      24.579   3.366  17.237  0.00  0.00    +0.000 C 
BRANCH  14  15
ATOM     15  C   UNL     1      24.535   4.674  17.946  0.00  0.00    +0.000 C 
BRANCH  15  16
ATOM     16  C   UNL     1      25.792   5.446  17.875  0.00  0.00    +0.000 A 
ATOM     17  C   UNL     1      26.000   6.339  16.833  0.00  0.00    +0.000 A 
ATOM     18  C   UNL     1      27.163   7.070  16.745  0.00  0.00    +0.000 A 
ATOM     19  C   UNL     1      28.171   6.958  17.676  0.00  0.00    +0.000 A 
ATOM     20  C   UNL     1      27.965   6.071  18.711  0.00  0.00    +0.000 A 
ATOM     21  C   UNL     1      26.802   5.335  18.806  0.00  0.00    +0.000 A 
ENDBRANCH  15  16
ENDBRANCH  14  15
ENDBRANCH   8  14
TORSDOF 3
ENDMDL
MODEL 9
REMARK VINA RESULT:      -5.6     20.616     22.291
REMARK  Name = 
REMARK  3 active torsions:
REMARK  status: ('A' for Active; 'I' for Inactive)
REMARK    1  A    between atoms: N_8  and  C_9
REMARK    2  A    between atoms: C_9  and  C_10
REMARK    3  A    between atoms: C_10  and  C_11
REMARK                            x       y       z     vdW  Elec       q    Type
REMARK                         _______ _______ _______ _____ _____    ______ ____
ROOT
ATOM      1  C   UNL     1      29.378   5.651  10.857  0.00  0.00    +0.000 C 
ATOM      2  C   UNL     1      29.115   5.947  12.315  0.00  0.00    +0.000 A 
ATOM      3  S   UNL     1      30.141   6.646  13.483  0.00  0.00    +0.000 S 
ATOM      4  C   UNL     1      29.095   6.618  14.827  0.00  0.00    +0.000 A 
ATOM      5  N   UNL     1      29.200   7.010  16.129  0.00  0.00    +0.000 NA
ATOM      6  C   UNL     1      28.182   6.866  16.998  0.00  0.00    +0.000 A 
ATOM      7  O   UNL     1      28.300   7.233  18.193  0.00  0.00    +0.000 OA
ATOM      8  N   UNL     1      27.064   6.315  16.503  0.00  0.00    +0.000 N 
ATOM      9  C   UNL     1      26.901   5.916  15.255  0.00  0.00    +0.000 A 
ATOM     10  O   UNL     1      25.791   5.417  14.936  0.00  0.00    +0.000 OA
ATOM     11  C   UNL     1      27.953   6.056  14.321  0.00  0.00    +0.000 A 
ATOM     12  C   UNL     1      27.964   5.710  13.023  0.00  0.00    +0.000 A 
ATOM     13  C   UNL     1      26.786   5.073  12.294  0.00  0.00    +0.000 C 
ENDROOT
BRANCH   8  14
ATOM     14  C   UNL     1      25.964   6.162  17.447  0.00  0.00    +0.000 C 
BRANCH  14  15
ATOM     15  C   UNL     1      26.114   4.985  18.347  0.00  0.00    +0.000 C 
BRANCH  15  16
ATOM     16  C   UNL     1      25.025   3.994  18.237  0.00  0.00    +0.000 A 
ATOM     17  C   UNL     1      25.318   2.672  17.930  0.00  0.00    +0.000 A 
ATOM     18  C   UNL     1      24.321   1.730  17.822  0.00  0.00    +0.000 A 
ATOM     19  C   UNL     1      22.994   2.043  18.012  0.00  0.00    +0.000 A 
ATOM     20  C   UNL     1      22.702   3.356  18.316  0.00  0.00    +0.000 A 
ATOM     21  C   UNL     1      23.696   4.306  18.426  0.00  0.00    +0.000 A 
ENDBRANCH  15  16
ENDBRANCH  14  15
ENDBRANCH   8  14
TORSDOF 3
ENDMDL
MODEL 10
REMARK VINA RESULT:      -5.6      3.440      5.039
REMARK  Name = 
REMARK  3 active torsions:
REMARK  status: ('A' for Active; 'I' for Inactive)
REMARK    1  A    between atoms: N_8  and  C_9
REMARK    2  A    between atoms: C_9  and  C_10
REMARK    3  A    between atoms: C_10  and  C_11
REMARK                            x       y       z     vdW  Elec       q    Type
REMARK                         _______ _______ _______ _____ _____    ______ ____
ROOT
ATOM      1  C   UNL     1      26.162  28.839  31.533  0.00  0.00    +0.000 C 
ATOM      2  C   UNL     1      26.305  27.370  31.208  0.00  0.00    +0.000 A 
ATOM      3  S   UNL     1      25.363  26.046  31.723  0.00  0.00    +0.000 S 
ATOM      4  C   UNL     1      26.183  24.789  30.918  0.00  0.00    +0.000 A 
ATOM      5  N   UNL     1      26.020  23.437  30.840  0.00  0.00    +0.000 NA
ATOM      6  C   UNL     1      26.841  22.664  30.105  0.00  0.00    +0.000 A 
ATOM      7  O   UNL     1      26.675  21.421  30.047  0.00  0.00    +0.000 OA
ATOM      8  N   UNL     1      27.824  23.307  29.457  0.00  0.00    +0.000 N 
ATOM      9  C   UNL     1      28.034  24.610  29.492  0.00  0.00    +0.000 A 
ATOM     10  O   UNL     1      29.000  25.070  28.830  0.00  0.00    +0.000 OA
ATOM     11  C   UNL     1      27.187  25.445  30.256  0.00  0.00    +0.000 A 
ATOM     12  C   UNL     1      27.249  26.779  30.406  0.00  0.00    +0.000 A 
ATOM     13  C   UNL     1      28.297  27.668  29.746  0.00  0.00    +0.000 C 
ENDROOT
BRANCH   8  14
ATOM     14  C   UNL     1      28.711  22.466  28.661  0.00  0.00    +0.000 C 
BRANCH  14  15
ATOM     15  C   UNL     1      28.141  22.090  27.338  0.00  0.00    +0.000 C 
BRANCH  15  16
ATOM     16  C   UNL     1      28.943  22.538  26.182  0.00  0.00    +0.000 A 
ATOM     17  C   UNL     1      28.318  23.114  25.085  0.00  0.00    +0.000 A 
ATOM     18  C   UNL     1      29.043  23.541  23.996  0.00  0.00    +0.000 A 
ATOM     19  C   UNL     1      30.414  23.422  23.936  0.00  0.00    +0.000 A 
ATOM     20  C   UNL     1      31.036  22.849  25.026  0.00  0.00    +0.000 A 
ATOM     21  C   UNL     1      30.315  22.420  26.121  0.00  0.00    +0.000 A 
ENDBRANCH  15  16
ENDBRANCH  14  15
ENDBRANCH   8  14
TORSDOF 3
ENDMDL
