MODEL 1
REMARK VINA RESULT:      -9.3      0.000      0.000
REMARK  Name = 
REMARK  6 active torsions:
REMARK  status: ('A' for Active; 'I' for Inactive)
REMARK    1  A    between atoms: C_2  and  C_4
REMARK    2  A    between atoms: C_4  and  C_5
REMARK    3  A    between atoms: C_8  and  C_9
REMARK    4  A    between atoms: C_11  and  C_12
REMARK    5  A    between atoms: N_14  and  C_15
REMARK    6  A    between atoms: C_15  and  C_16
REMARK                            x       y       z     vdW  Elec       q    Type
REMARK                         _______ _______ _______ _____ _____    ______ ____
ROOT
ATOM      1  C   UNL     1      38.892   5.613  16.947  0.00  0.00    +0.000 A 
ATOM      2  C   UNL     1      38.505   4.300  16.790  0.00  0.00    +0.000 A 
ATOM      3  C   UNL     1      37.602   3.895  15.837  0.00  0.00    +0.000 A 
ATOM      4  C   UNL     1      37.061   4.850  15.003  0.00  0.00    +0.000 A 
ATOM      5  C   UNL     1      36.154   4.535  14.024  0.00  0.00    +0.000 A 
ATOM      6  C   UNL     1      35.589   5.455  13.170  0.00  0.00    +0.000 A 
ATOM      7  C   UNL     1      35.991   6.779  13.341  0.00  0.00    +0.000 A 
ATOM      8  C   UNL     1      36.900   7.117  14.315  0.00  0.00    +0.000 A 
ATOM      9  C   UNL     1      37.442   6.183  15.146  0.00  0.00    +0.000 A 
ATOM     10  N   UNL     1      38.342   6.509  16.114  0.00  0.00    +0.000 NA
ENDROOT
BRANCH   1  14
ATOM     11  C   UNL     1      41.822   6.841  19.759  0.00  0.00    +0.000 A 
ATOM     12  C   UNL     1      40.536   6.548  20.189  0.00  0.00    +0.000 A 
ATOM     13  C   UNL     1      39.567   6.146  19.283  0.00  0.00    +0.000 A 
ATOM     14  C   UNL     1      39.851   6.028  17.963  0.00  0.00    +0.000 A 
ATOM     15  C   UNL     1      41.143   6.325  17.546  0.00  0.00    +0.000 A 
ATOM     16  C   UNL     1      42.128   6.726  18.418  0.00  0.00    +0.000 A 
BRANCH  11  17
ATOM     17  C   UNL     1      42.892   7.276  20.671  0.00  0.00    +0.000 C 
BRANCH  17  19
ATOM     18  C   UNL     1      45.017   5.987  20.653  0.00  0.00    +0.000 C 
ATOM     19  C   UNL     1      43.620   6.074  21.269  0.00  0.00    +0.000 C 
ATOM     20  C   UNL     1      43.840   6.262  22.760  0.00  0.00    +0.000 C 
ENDBRANCH  17  19
ENDBRANCH  11  17
ENDBRANCH   1  14
BRANCH   3  21
ATOM     21  C   UNL     1      37.191   2.511  15.667  0.00  0.00    +0.000 C 
ATOM     22  O   UNL     1      38.052   1.724  15.137  0.00  0.00    +0.000 OA
ATOM     23  N   UNL     1      35.942   2.007  16.039  0.00  0.00    +0.000 NA
BRANCH  23  24
ATOM     24  C   UNL     1      35.667   0.585  15.803  0.00  0.00    +0.000 C 
BRANCH  24  25
ATOM     25  C   UNL     1      36.077  -0.144  17.028  0.00  0.00    +0.000 A 
ATOM     26  C   UNL     1      35.677   0.170  18.297  0.00  0.00    +0.000 A 
ATOM     27  C   UNL     1      36.128  -0.578  19.372  0.00  0.00    +0.000 A 
ATOM     28  C   UNL     1      36.989  -1.658  19.213  0.00  0.00    +0.000 A 
ATOM     29  C   UNL     1      37.389  -1.968  17.932  0.00  0.00    +0.000 A 
ATOM     30  C   UNL     1      36.940  -1.220  16.844  0.00  0.00    +0.000 A 
ATOM     31  O   UNL     1      38.229  -3.060  18.034  0.00  0.00    +0.000 OA
ATOM     32  C   UNL     1      38.610  -3.196  19.407  0.00  0.00    +0.000 C 
ATOM     33  O   UNL     1      37.570  -2.544  20.117  0.00  0.00    +0.000 OA
ENDBRANCH  24  25
ENDBRANCH  23  24
ENDBRANCH   3  21
TORSDOF 6
ENDMDL
MODEL 2
REMARK VINA RESULT:      -8.7      2.285      2.957
REMARK  Name = 
REMARK  6 active torsions:
REMARK  status: ('A' for Active; 'I' for Inactive)
REMARK    1  A    between atoms: C_2  and  C_4
REMARK    2  A    between atoms: C_4  and  C_5
REMARK    3  A    between atoms: C_8  and  C_9
REMARK    4  A    between atoms: C_11  and  C_12
REMARK    5  A    between atoms: N_14  and  C_15
REMARK    6  A    between atoms: C_15  and  C_16
REMARK                            x       y       z     vdW  Elec       q    Type
REMARK                         _______ _______ _______ _____ _____    ______ ____
ROOT
ATOM      1  C   UNL     1      38.849   5.597  17.107  0.00  0.00    +0.000 A 
ATOM      2  C   UNL     1      38.332   4.321  17.093  0.00  0.00    +0.000 A 
ATOM      3  C   UNL     1      37.404   3.899  16.173  0.00  0.00    +0.000 A 
ATOM      4  C   UNL     1      36.972   4.798  15.222  0.00  0.00    +0.000 A 
ATOM      5  C   UNL     1      36.048   4.463  14.265  0.00  0.00    +0.000 A 
ATOM      6  C   UNL     1      35.590   5.329  13.298  0.00  0.00    +0.000 A 
ATOM      7  C   UNL     1      36.122   6.617  13.325  0.00  0.00    +0.000 A 
ATOM      8  C   UNL     1      37.050   6.974  14.274  0.00  0.00    +0.000 A 
ATOM      9  C   UNL     1      37.485   6.095  15.219  0.00  0.00    +0.000 A 
ATOM     10  N   UNL     1      38.402   6.441  16.163  0.00  0.00    +0.000 NA
ENDROOT
BRANCH   1  14
ATOM     11  C   UNL     1      41.854   6.865  19.822  0.00  0.00    +0.000 A 
ATOM     12  C   UNL     1      40.560   6.651  20.277  0.00  0.00    +0.000 A 
ATOM     13  C   UNL     1      39.567   6.237  19.403  0.00  0.00    +0.000 A 
ATOM     14  C   UNL     1      39.834   6.031  18.090  0.00  0.00    +0.000 A 
ATOM     15  C   UNL     1      41.133   6.248  17.647  0.00  0.00    +0.000 A 
ATOM     16  C   UNL     1      42.141   6.659  18.488  0.00  0.00    +0.000 A 
BRANCH  11  17
ATOM     17  C   UNL     1      42.949   7.307  20.699  0.00  0.00    +0.000 C 
BRANCH  17  19
ATOM     18  C   UNL     1      45.036   5.959  20.725  0.00  0.00    +0.000 C 
ATOM     19  C   UNL     1      43.647   6.112  21.344  0.00  0.00    +0.000 C 
ATOM     20  C   UNL     1      43.882   6.357  22.824  0.00  0.00    +0.000 C 
ENDBRANCH  17  19
ENDBRANCH  11  17
ENDBRANCH   1  14
BRANCH   3  21
ATOM     21  C   UNL     1      36.856   2.552  16.154  0.00  0.00    +0.000 C 
ATOM     22  O   UNL     1      35.731   2.388  16.743  0.00  0.00    +0.000 OA
ATOM     23  N   UNL     1      37.475   1.457  15.544  0.00  0.00    +0.000 NA
BRANCH  23  24
ATOM     24  C   UNL     1      36.803   0.154  15.607  0.00  0.00    +0.000 C 
BRANCH  24  25
ATOM     25  C   UNL     1      37.647  -0.804  14.853  0.00  0.00    +0.000 A 
ATOM     26  C   UNL     1      37.177  -1.881  14.154  0.00  0.00    +0.000 A 
ATOM     27  C   UNL     1      38.060  -2.715  13.488  0.00  0.00    +0.000 A 
ATOM     28  C   UNL     1      39.434  -2.501  13.502  0.00  0.00    +0.000 A 
ATOM     29  C   UNL     1      39.900  -1.415  14.209  0.00  0.00    +0.000 A 
ATOM     30  C   UNL     1      39.019  -0.570  14.882  0.00  0.00    +0.000 A 
ATOM     31  O   UNL     1      41.276  -1.417  14.073  0.00  0.00    +0.000 OA
ATOM     32  C   UNL     1      41.667  -2.699  13.572  0.00  0.00    +0.000 C 
ATOM     33  O   UNL     1      40.502  -3.184  12.924  0.00  0.00    +0.000 OA
ENDBRANCH  24  25
ENDBRANCH  23  24
ENDBRANCH   3  21
TORSDOF 6
ENDMDL
MODEL 3
REMARK VINA RESULT:      -8.6      1.735      2.245
REMARK  Name = 
REMARK  6 active torsions:
REMARK  status: ('A' for Active; 'I' for Inactive)
REMARK    1  A    between atoms: C_2  and  C_4
REMARK    2  A    between atoms: C_4  and  C_5
REMARK    3  A    between atoms: C_8  and  C_9
REMARK    4  A    between atoms: C_11  and  C_12
REMARK    5  A    between atoms: N_14  and  C_15
REMARK    6  A    between atoms: C_15  and  C_16
REMARK                            x       y       z     vdW  Elec       q    Type
REMARK                         _______ _______ _______ _____ _____    ______ ____
ROOT
ATOM      1  C   UNL     1      39.161   4.976  16.746  0.00  0.00    +0.000 A 
ATOM      2  C   UNL     1      38.150   4.135  17.156  0.00  0.00    +0.000 A 
ATOM      3  C   UNL     1      37.373   3.417  16.280  0.00  0.00    +0.000 A 
ATOM      4  C   UNL     1      37.620   3.546  14.930  0.00  0.00    +0.000 A 
ATOM      5  C   UNL     1      36.894   2.867  13.986  0.00  0.00    +0.000 A 
ATOM      6  C   UNL     1      37.107   2.967  12.629  0.00  0.00    +0.000 A 
ATOM      7  C   UNL     1      38.134   3.821  12.230  0.00  0.00    +0.000 A 
ATOM      8  C   UNL     1      38.875   4.511  13.160  0.00  0.00    +0.000 A 
ATOM      9  C   UNL     1      38.641   4.392  14.497  0.00  0.00    +0.000 A 
ATOM     10  N   UNL     1      39.369   5.072  15.423  0.00  0.00    +0.000 NA
ENDROOT
BRANCH   1  14
ATOM     11  C   UNL     1      41.400   7.147  19.623  0.00  0.00    +0.000 A 
ATOM     12  C   UNL     1      41.903   6.983  18.340  0.00  0.00    +0.000 A 
ATOM     13  C   UNL     1      41.184   6.275  17.389  0.00  0.00    +0.000 A 
ATOM     14  C   UNL     1      39.978   5.732  17.686  0.00  0.00    +0.000 A 
ATOM     15  C   UNL     1      39.486   5.904  18.974  0.00  0.00    +0.000 A 
ATOM     16  C   UNL     1      40.174   6.600  19.941  0.00  0.00    +0.000 A 
BRANCH  11  17
ATOM     17  C   UNL     1      42.116   7.884  20.676  0.00  0.00    +0.000 C 
BRANCH  17  19
ATOM     18  C   UNL     1      44.197   8.078  22.021  0.00  0.00    +0.000 C 
ATOM     19  C   UNL     1      43.488   7.266  20.936  0.00  0.00    +0.000 C 
ATOM     20  C   UNL     1      43.351   5.862  21.498  0.00  0.00    +0.000 C 
ENDBRANCH  17  19
ENDBRANCH  11  17
ENDBRANCH   1  14
BRANCH   3  21
ATOM     21  C   UNL     1      36.305   2.528  16.708  0.00  0.00    +0.000 C 
ATOM     22  O   UNL     1      35.112   2.888  16.410  0.00  0.00    +0.000 OA
ATOM     23  N   UNL     1      36.504   1.334  17.407  0.00  0.00    +0.000 NA
BRANCH  23  24
ATOM     24  C   UNL     1      35.327   0.538  17.775  0.00  0.00    +0.000 C 
BRANCH  24  25
ATOM     25  C   UNL     1      35.608  -0.861  17.371  0.00  0.00    +0.000 A 
ATOM     26  C   UNL     1      34.713  -1.693  16.758  0.00  0.00    +0.000 A 
ATOM     27  C   UNL     1      35.083  -2.987  16.427  0.00  0.00    +0.000 A 
ATOM     28  C   UNL     1      36.352  -3.486  16.699  0.00  0.00    +0.000 A 
ATOM     29  C   UNL     1      37.248  -2.642  17.317  0.00  0.00    +0.000 A 
ATOM     30  C   UNL     1      36.884  -1.339  17.653  0.00  0.00    +0.000 A 
ATOM     31  O   UNL     1      38.419  -3.358  17.477  0.00  0.00    +0.000 OA
ATOM     32  C   UNL     1      38.121  -4.742  17.269  0.00  0.00    +0.000 C 
ATOM     33  O   UNL     1      36.949  -4.724  16.470  0.00  0.00    +0.000 OA
ENDBRANCH  24  25
ENDBRANCH  23  24
ENDBRANCH   3  21
TORSDOF 6
ENDMDL
MODEL 4
REMARK VINA RESULT:      -8.5      3.542      7.513
REMARK  Name = 
REMARK  6 active torsions:
REMARK  status: ('A' for Active; 'I' for Inactive)
REMARK    1  A    between atoms: C_2  and  C_4
REMARK    2  A    between atoms: C_4  and  C_5
REMARK    3  A    between atoms: C_8  and  C_9
REMARK    4  A    between atoms: C_11  and  C_12
REMARK    5  A    between atoms: N_14  and  C_15
REMARK    6  A    between atoms: C_15  and  C_16
REMARK                            x       y       z     vdW  Elec       q    Type
REMARK                         _______ _______ _______ _____ _____    ______ ____
ROOT
ATOM      1  C   UNL     1      38.405   4.986  16.980  0.00  0.00    +0.000 A 
ATOM      2  C   UNL     1      37.891   5.620  15.871  0.00  0.00    +0.000 A 
ATOM      3  C   UNL     1      36.896   5.079  15.092  0.00  0.00    +0.000 A 
ATOM      4  C   UNL     1      36.393   3.844  15.441  0.00  0.00    +0.000 A 
ATOM      5  C   UNL     1      35.400   3.230  14.722  0.00  0.00    +0.000 A 
ATOM      6  C   UNL     1      34.870   1.998  15.034  0.00  0.00    +0.000 A 
ATOM      7  C   UNL     1      35.400   1.369  16.159  0.00  0.00    +0.000 A 
ATOM      8  C   UNL     1      36.394   1.967  16.895  0.00  0.00    +0.000 A 
ATOM      9  C   UNL     1      36.901   3.187  16.561  0.00  0.00    +0.000 A 
ATOM     10  N   UNL     1      37.886   3.785  17.284  0.00  0.00    +0.000 NA
ENDROOT
BRANCH   1  14
ATOM     11  C   UNL     1      41.587   6.709  19.194  0.00  0.00    +0.000 A 
ATOM     12  C   UNL     1      40.416   6.344  19.842  0.00  0.00    +0.000 A 
ATOM     13  C   UNL     1      39.367   5.781  19.133  0.00  0.00    +0.000 A 
ATOM     14  C   UNL     1      39.459   5.572  17.797  0.00  0.00    +0.000 A 
ATOM     15  C   UNL     1      40.637   5.941  17.160  0.00  0.00    +0.000 A 
ATOM     16  C   UNL     1      41.697   6.503  17.834  0.00  0.00    +0.000 A 
BRANCH  11  17
ATOM     17  C   UNL     1      42.733   7.314  19.891  0.00  0.00    +0.000 C 
BRANCH  17  19
ATOM     18  C   UNL     1      45.014   6.383  20.212  0.00  0.00    +0.000 C 
ATOM     19  C   UNL     1      43.548   6.252  20.624  0.00  0.00    +0.000 C 
ATOM     20  C   UNL     1      43.520   6.489  22.123  0.00  0.00    +0.000 C 
ENDBRANCH  17  19
ENDBRANCH  11  17
ENDBRANCH   1  14
BRANCH   3  21
ATOM     21  C   UNL     1      36.350   5.746  13.922  0.00  0.00    +0.000 C 
ATOM     22  O   UNL     1      37.108   5.795  12.890  0.00  0.00    +0.000 OA
ATOM     23  N   UNL     1      35.077   6.320  13.862  0.00  0.00    +0.000 NA
BRANCH  23  24
ATOM     24  C   UNL     1      34.660   6.963  12.610  0.00  0.00    +0.000 C 
BRANCH  24  25
ATOM     25  C   UNL     1      34.459   8.401  12.909  0.00  0.00    +0.000 A 
ATOM     26  C   UNL     1      34.531   9.409  11.988  0.00  0.00    +0.000 A 
ATOM     27  C   UNL     1      34.329  10.723  12.380  0.00  0.00    +0.000 A 
ATOM     28  C   UNL     1      34.051  11.066  13.699  0.00  0.00    +0.000 A 
ATOM     29  C   UNL     1      33.980  10.045  14.621  0.00  0.00    +0.000 A 
ATOM     30  C   UNL     1      34.182   8.721  14.234  0.00  0.00    +0.000 A 
ATOM     31  O   UNL     1      33.697  10.633  15.839  0.00  0.00    +0.000 OA
ATOM     32  C   UNL     1      33.938  12.038  15.717  0.00  0.00    +0.000 C 
ATOM     33  O   UNL     1      33.815  12.288  14.327  0.00  0.00    +0.000 OA
ENDBRANCH  24  25
ENDBRANCH  23  24
ENDBRANCH   3  21
TORSDOF 6
ENDMDL
MODEL 5
REMARK VINA RESULT:      -8.5      4.012      9.909
REMARK  Name = 
REMARK  6 active torsions:
REMARK  status: ('A' for Active; 'I' for Inactive)
REMARK    1  A    between atoms: C_2  and  C_4
REMARK    2  A    between atoms: C_4  and  C_5
REMARK    3  A    between atoms: C_8  and  C_9
REMARK    4  A    between atoms: C_11  and  C_12
REMARK    5  A    between atoms: N_14  and  C_15
REMARK    6  A    between atoms: C_15  and  C_16
REMARK                            x       y       z     vdW  Elec       q    Type
REMARK                         _______ _______ _______ _____ _____    ______ ____
ROOT
ATOM      1  C   UNL     1      36.481   2.329  15.821  0.00  0.00    +0.000 A 
ATOM      2  C   UNL     1      36.067   3.152  14.797  0.00  0.00    +0.000 A 
ATOM      3  C   UNL     1      36.455   4.465  14.689  0.00  0.00    +0.000 A 
ATOM      4  C   UNL     1      37.297   4.979  15.653  0.00  0.00    +0.000 A 
ATOM      5  C   UNL     1      37.734   6.278  15.624  0.00  0.00    +0.000 A 
ATOM      6  C   UNL     1      38.574   6.831  16.564  0.00  0.00    +0.000 A 
ATOM      7  C   UNL     1      38.984   5.985  17.594  0.00  0.00    +0.000 A 
ATOM      8  C   UNL     1      38.559   4.679  17.642  0.00  0.00    +0.000 A 
ATOM      9  C   UNL     1      37.727   4.160  16.696  0.00  0.00    +0.000 A 
ATOM     10  N   UNL     1      37.300   2.868  16.737  0.00  0.00    +0.000 NA
ENDROOT
BRANCH   1  14
ATOM     11  C   UNL     1      35.136  -1.671  16.264  0.00  0.00    +0.000 A 
ATOM     12  C   UNL     1      36.086  -1.367  15.300  0.00  0.00    +0.000 A 
ATOM     13  C   UNL     1      36.535  -0.065  15.141  0.00  0.00    +0.000 A 
ATOM     14  C   UNL     1      36.061   0.937  15.923  0.00  0.00    +0.000 A 
ATOM     15  C   UNL     1      35.111   0.619  16.884  0.00  0.00    +0.000 A 
ATOM     16  C   UNL     1      34.644  -0.662  17.067  0.00  0.00    +0.000 A 
BRANCH  11  17
ATOM     17  C   UNL     1      34.618  -3.032  16.477  0.00  0.00    +0.000 C 
BRANCH  17  19
ATOM     18  C   UNL     1      35.709  -5.160  15.804  0.00  0.00    +0.000 C 
ATOM     19  C   UNL     1      34.952  -3.934  15.292  0.00  0.00    +0.000 C 
ATOM     20  C   UNL     1      33.687  -4.472  14.648  0.00  0.00    +0.000 C 
ENDBRANCH  17  19
ENDBRANCH  11  17
ENDBRANCH   1  14
BRANCH   3  21
ATOM     21  C   UNL     1      36.022   5.338  13.610  0.00  0.00    +0.000 C 
ATOM     22  O   UNL     1      36.776   5.379  12.575  0.00  0.00    +0.000 OA
ATOM     23  N   UNL     1      34.860   6.114  13.640  0.00  0.00    +0.000 NA
BRANCH  23  24
ATOM     24  C   UNL     1      34.551   6.951  12.475  0.00  0.00    +0.000 C 
BRANCH  24  25
ATOM     25  C   UNL     1      34.365   8.335  12.974  0.00  0.00    +0.000 A 
ATOM     26  C   UNL     1      34.412   9.460  12.199  0.00  0.00    +0.000 A 
ATOM     27  C   UNL     1      34.228  10.707  12.774  0.00  0.00    +0.000 A 
ATOM     28  C   UNL     1      33.994  10.866  14.135  0.00  0.00    +0.000 A 
ATOM     29  C   UNL     1      33.948   9.728  14.910  0.00  0.00    +0.000 A 
ATOM     30  C   UNL     1      34.132   8.470  14.339  0.00  0.00    +0.000 A 
ATOM     31  O   UNL     1      33.706  10.143  16.206  0.00  0.00    +0.000 OA
ATOM     32  C   UNL     1      33.950  11.552  16.270  0.00  0.00    +0.000 C 
ATOM     33  O   UNL     1      33.783  11.990  14.932  0.00  0.00    +0.000 OA
ENDBRANCH  24  25
ENDBRANCH  23  24
ENDBRANCH   3  21
TORSDOF 6
ENDMDL
MODEL 6
REMARK VINA RESULT:      -8.5      4.579      8.762
REMARK  Name = 
REMARK  6 active torsions:
REMARK  status: ('A' for Active; 'I' for Inactive)
REMARK    1  A    between atoms: C_2  and  C_4
REMARK    2  A    between atoms: C_4  and  C_5
REMARK    3  A    between atoms: C_8  and  C_9
REMARK    4  A    between atoms: C_11  and  C_12
REMARK    5  A    between atoms: N_14  and  C_15
REMARK    6  A    between atoms: C_15  and  C_16
REMARK                            x       y       z     vdW  Elec       q    Type
REMARK                         _______ _______ _______ _____ _____    ______ ____
ROOT
ATOM      1  C   UNL     1      38.738  -1.153  14.630  0.00  0.00    +0.000 A 
ATOM      2  C   UNL     1      38.595   0.215  14.699  0.00  0.00    +0.000 A 
ATOM      3  C   UNL     1      37.535   0.827  15.323  0.00  0.00    +0.000 A 
ATOM      4  C   UNL     1      36.571   0.030  15.904  0.00  0.00    +0.000 A 
ATOM      5  C   UNL     1      35.480   0.555  16.547  0.00  0.00    +0.000 A 
ATOM      6  C   UNL     1      34.496  -0.203  17.141  0.00  0.00    +0.000 A 
ATOM      7  C   UNL     1      34.654  -1.586  17.063  0.00  0.00    +0.000 A 
ATOM      8  C   UNL     1      35.741  -2.133  16.424  0.00  0.00    +0.000 A 
ATOM      9  C   UNL     1      36.700  -1.357  15.845  0.00  0.00    +0.000 A 
ATOM     10  N   UNL     1      37.778  -1.891  15.210  0.00  0.00    +0.000 NA
ENDROOT
BRANCH   1  14
ATOM     11  C   UNL     1      42.151  -2.920  12.832  0.00  0.00    +0.000 A 
ATOM     12  C   UNL     1      40.892  -3.152  12.295  0.00  0.00    +0.000 A 
ATOM     13  C   UNL     1      39.767  -2.582  12.872  0.00  0.00    +0.000 A 
ATOM     14  C   UNL     1      39.869  -1.788  13.966  0.00  0.00    +0.000 A 
ATOM     15  C   UNL     1      41.135  -1.564  14.492  0.00  0.00    +0.000 A 
ATOM     16  C   UNL     1      42.271  -2.114  13.945  0.00  0.00    +0.000 A 
BRANCH  11  17
ATOM     17  C   UNL     1      43.381  -3.498  12.268  0.00  0.00    +0.000 C 
BRANCH  17  19
ATOM     18  C   UNL     1      45.663  -3.867  13.179  0.00  0.00    +0.000 C 
ATOM     19  C   UNL     1      44.618  -2.806  12.834  0.00  0.00    +0.000 C 
ATOM     20  C   UNL     1      45.266  -1.917  11.788  0.00  0.00    +0.000 C 
ENDBRANCH  17  19
ENDBRANCH  11  17
ENDBRANCH   1  14
BRANCH   3  21
ATOM     21  C   UNL     1      37.380   2.270  15.399  0.00  0.00    +0.000 C 
ATOM     22  O   UNL     1      36.781   2.831  14.415  0.00  0.00    +0.000 OA
ATOM     23  N   UNL     1      37.838   3.058  16.459  0.00  0.00    +0.000 NA
BRANCH  23  24
ATOM     24  C   UNL     1      37.612   4.507  16.398  0.00  0.00    +0.000 C 
BRANCH  24  25
ATOM     25  C   UNL     1      38.848   5.159  16.894  0.00  0.00    +0.000 A 
ATOM     26  C   UNL     1      39.870   5.603  16.102  0.00  0.00    +0.000 A 
ATOM     27  C   UNL     1      40.984   6.195  16.675  0.00  0.00    +0.000 A 
ATOM     28  C   UNL     1      41.111   6.358  18.050  0.00  0.00    +0.000 A 
ATOM     29  C   UNL     1      40.077   5.907  18.841  0.00  0.00    +0.000 A 
ATOM     30  C   UNL     1      38.953   5.311  18.273  0.00  0.00    +0.000 A 
ATOM     31  O   UNL     1      40.434   6.179  20.148  0.00  0.00    +0.000 OA
ATOM     32  C   UNL     1      41.833   6.480  20.170  0.00  0.00    +0.000 C 
ATOM     33  O   UNL     1      42.112   6.910  18.848  0.00  0.00    +0.000 OA
ENDBRANCH  24  25
ENDBRANCH  23  24
ENDBRANCH   3  21
TORSDOF 6
ENDMDL
MODEL 7
REMARK VINA RESULT:      -8.3     24.301     28.288
REMARK  Name = 
REMARK  6 active torsions:
REMARK  status: ('A' for Active; 'I' for Inactive)
REMARK    1  A    between atoms: C_2  and  C_4
REMARK    2  A    between atoms: C_4  and  C_5
REMARK    3  A    between atoms: C_8  and  C_9
REMARK    4  A    between atoms: C_11  and  C_12
REMARK    5  A    between atoms: N_14  and  C_15
REMARK    6  A    between atoms: C_15  and  C_16
REMARK                            x       y       z     vdW  Elec       q    Type
REMARK                         _______ _______ _______ _____ _____    ______ ____
ROOT
ATOM      1  C   UNL     1      10.888  -0.717  25.577  0.00  0.00    +0.000 A 
ATOM      2  C   UNL     1      12.139  -0.805  26.147  0.00  0.00    +0.000 A 
ATOM      3  C   UNL     1      12.783   0.269  26.709  0.00  0.00    +0.000 A 
ATOM      4  C   UNL     1      12.144   1.491  26.701  0.00  0.00    +0.000 A 
ATOM      5  C   UNL     1      12.712   2.616  27.241  0.00  0.00    +0.000 A 
ATOM      6  C   UNL     1      12.110   3.854  27.254  0.00  0.00    +0.000 A 
ATOM      7  C   UNL     1      10.844   3.928  26.674  0.00  0.00    +0.000 A 
ATOM      8  C   UNL     1      10.255   2.812  26.129  0.00  0.00    +0.000 A 
ATOM      9  C   UNL     1      10.876   1.599  26.130  0.00  0.00    +0.000 A 
ATOM     10  N   UNL     1      10.301   0.490  25.591  0.00  0.00    +0.000 NA
ENDROOT
BRANCH   1  14
ATOM     11  C   UNL     1       8.836  -3.938  23.728  0.00  0.00    +0.000 A 
ATOM     12  C   UNL     1       9.742  -4.194  24.748  0.00  0.00    +0.000 A 
ATOM     13  C   UNL     1      10.421  -3.153  25.362  0.00  0.00    +0.000 A 
ATOM     14  C   UNL     1      10.216  -1.866  24.984  0.00  0.00    +0.000 A 
ATOM     15  C   UNL     1       9.307  -1.625  23.962  0.00  0.00    +0.000 A 
ATOM     16  C   UNL     1       8.617  -2.634  23.332  0.00  0.00    +0.000 A 
BRANCH  11  17
ATOM     17  C   UNL     1       8.088  -5.000  23.036  0.00  0.00    +0.000 C 
BRANCH  17  19
ATOM     18  C   UNL     1       7.895  -5.187  20.566  0.00  0.00    +0.000 C 
ATOM     19  C   UNL     1       7.378  -4.450  21.802  0.00  0.00    +0.000 C 
ATOM     20  C   UNL     1       5.889  -4.742  21.860  0.00  0.00    +0.000 C 
ENDBRANCH  17  19
ENDBRANCH  11  17
ENDBRANCH   1  14
BRANCH   3  21
ATOM     21  C   UNL     1      14.102   0.181  27.312  0.00  0.00    +0.000 C 
ATOM     22  O   UNL     1      14.138   0.035  28.585  0.00  0.00    +0.000 OA
ATOM     23  N   UNL     1      15.303   0.245  26.599  0.00  0.00    +0.000 NA
BRANCH  23  24
ATOM     24  C   UNL     1      16.563   0.144  27.344  0.00  0.00    +0.000 C 
BRANCH  24  25
ATOM     25  C   UNL     1      17.622  -0.183  26.359  0.00  0.00    +0.000 A 
ATOM     26  C   UNL     1      18.092  -1.440  26.103  0.00  0.00    +0.000 A 
ATOM     27  C   UNL     1      19.091  -1.629  25.162  0.00  0.00    +0.000 A 
ATOM     28  C   UNL     1      19.649  -0.572  24.452  0.00  0.00    +0.000 A 
ATOM     29  C   UNL     1      19.170   0.693  24.716  0.00  0.00    +0.000 A 
ATOM     30  C   UNL     1      18.165   0.892  25.661  0.00  0.00    +0.000 A 
ATOM     31  O   UNL     1      19.871   1.558  23.898  0.00  0.00    +0.000 OA
ATOM     32  C   UNL     1      21.012   0.858  23.391  0.00  0.00    +0.000 C 
ATOM     33  O   UNL     1      20.642  -0.508  23.477  0.00  0.00    +0.000 OA
ENDBRANCH  24  25
ENDBRANCH  23  24
ENDBRANCH   3  21
TORSDOF 6
ENDMDL
MODEL 8
REMARK VINA RESULT:      -8.3      3.514      9.272
REMARK  Name = 
REMARK  6 active torsions:
REMARK  status: ('A' for Active; 'I' for Inactive)
REMARK    1  A    between atoms: C_2  and  C_4
REMARK    2  A    between atoms: C_4  and  C_5
REMARK    3  A    between atoms: C_8  and  C_9
REMARK    4  A    between atoms: C_11  and  C_12
REMARK    5  A    between atoms: N_14  and  C_15
REMARK    6  A    between atoms: C_15  and  C_16
REMARK                            x       y       z     vdW  Elec       q    Type
REMARK                         _______ _______ _______ _____ _____    ______ ____
ROOT
ATOM      1  C   UNL     1      36.412   2.556  15.536  0.00  0.00    +0.000 A 
ATOM      2  C   UNL     1      37.349   3.186  16.325  0.00  0.00    +0.000 A 
ATOM      3  C   UNL     1      37.707   4.502  16.156  0.00  0.00    +0.000 A 
ATOM      4  C   UNL     1      37.098   5.221  15.150  0.00  0.00    +0.000 A 
ATOM      5  C   UNL     1      37.393   6.538  14.911  0.00  0.00    +0.000 A 
ATOM      6  C   UNL     1      36.810   7.292  13.918  0.00  0.00    +0.000 A 
ATOM      7  C   UNL     1      35.864   6.641  13.128  0.00  0.00    +0.000 A 
ATOM      8  C   UNL     1      35.551   5.321  13.351  0.00  0.00    +0.000 A 
ATOM      9  C   UNL     1      36.146   4.600  14.342  0.00  0.00    +0.000 A 
ATOM     10  N   UNL     1      35.843   3.292  14.568  0.00  0.00    +0.000 NA
ENDROOT
BRANCH   1  14
ATOM     11  C   UNL     1      35.216  -1.453  16.239  0.00  0.00    +0.000 A 
ATOM     12  C   UNL     1      36.111  -1.171  15.218  0.00  0.00    +0.000 A 
ATOM     13  C   UNL     1      36.512   0.133  14.974  0.00  0.00    +0.000 A 
ATOM     14  C   UNL     1      36.042   1.160  15.726  0.00  0.00    +0.000 A 
ATOM     15  C   UNL     1      35.147   0.864  16.745  0.00  0.00    +0.000 A 
ATOM     16  C   UNL     1      34.729  -0.419  17.013  0.00  0.00    +0.000 A 
BRANCH  11  17
ATOM     17  C   UNL     1      34.751  -2.816  16.544  0.00  0.00    +0.000 C 
BRANCH  17  19
ATOM     18  C   UNL     1      35.810  -4.890  15.677  0.00  0.00    +0.000 C 
ATOM     19  C   UNL     1      34.887  -3.723  15.324  0.00  0.00    +0.000 C 
ATOM     20  C   UNL     1      33.552  -4.350  14.966  0.00  0.00    +0.000 C 
ENDBRANCH  17  19
ENDBRANCH  11  17
ENDBRANCH   1  14
BRANCH   3  21
ATOM     21  C   UNL     1      38.694   5.171  16.987  0.00  0.00    +0.000 C 
ATOM     22  O   UNL     1      39.830   5.406  16.443  0.00  0.00    +0.000 OA
ATOM     23  N   UNL     1      38.478   5.562  18.312  0.00  0.00    +0.000 NA
BRANCH  23  24
ATOM     24  C   UNL     1      39.571   6.228  19.029  0.00  0.00    +0.000 C 
BRANCH  24  25
ATOM     25  C   UNL     1      39.090   7.585  19.384  0.00  0.00    +0.000 A 
ATOM     26  C   UNL     1      38.887   8.035  20.659  0.00  0.00    +0.000 A 
ATOM     27  C   UNL     1      38.429   9.325  20.876  0.00  0.00    +0.000 A 
ATOM     28  C   UNL     1      38.161  10.200  19.829  0.00  0.00    +0.000 A 
ATOM     29  C   UNL     1      38.368   9.740  18.547  0.00  0.00    +0.000 A 
ATOM     30  C   UNL     1      38.828   8.444  18.321  0.00  0.00    +0.000 A 
ATOM     31  O   UNL     1      38.036  10.778  17.697  0.00  0.00    +0.000 OA
ATOM     32  C   UNL     1      37.301  11.746  18.452  0.00  0.00    +0.000 C 
ATOM     33  O   UNL     1      37.703  11.515  19.792  0.00  0.00    +0.000 OA
ENDBRANCH  24  25
ENDBRANCH  23  24
ENDBRANCH   3  21
TORSDOF 6
ENDMDL
MODEL 9
REMARK VINA RESULT:      -8.2      5.347     10.493
REMARK  Name = 
REMARK  6 active torsions:
REMARK  status: ('A' for Active; 'I' for Inactive)
REMARK    1  A    between atoms: C_2  and  C_4
REMARK    2  A    between atoms: C_4  and  C_5
REMARK    3  A    between atoms: C_8  and  C_9
REMARK    4  A    between atoms: C_11  and  C_12
REMARK    5  A    between atoms: N_14  and  C_15
REMARK    6  A    between atoms: C_15  and  C_16
REMARK                            x       y       z     vdW  Elec       q    Type
REMARK                         _______ _______ _______ _____ _____    ______ ____
ROOT
ATOM      1  C   UNL     1      42.736   6.984  20.432  0.00  0.00    +0.000 A 
ATOM      2  C   UNL     1      43.105   6.208  21.508  0.00  0.00    +0.000 A 
ATOM      3  C   UNL     1      44.162   6.519  22.328  0.00  0.00    +0.000 A 
ATOM      4  C   UNL     1      44.884   7.663  22.058  0.00  0.00    +0.000 A 
ATOM      5  C   UNL     1      45.953   8.050  22.823  0.00  0.00    +0.000 A 
ATOM      6  C   UNL     1      46.700   9.182  22.589  0.00  0.00    +0.000 A 
ATOM      7  C   UNL     1      46.314   9.958  21.497  0.00  0.00    +0.000 A 
ATOM      8  C   UNL     1      45.244   9.589  20.717  0.00  0.00    +0.000 A 
ATOM      9  C   UNL     1      44.523   8.462  20.973  0.00  0.00    +0.000 A 
ATOM     10  N   UNL     1      43.464   8.089  20.205  0.00  0.00    +0.000 NA
ENDROOT
BRANCH   1  14
ATOM     11  C   UNL     1      39.587   5.989  17.768  0.00  0.00    +0.000 A 
ATOM     12  C   UNL     1      39.325   6.121  19.125  0.00  0.00    +0.000 A 
ATOM     13  C   UNL     1      40.343   6.445  20.008  0.00  0.00    +0.000 A 
ATOM     14  C   UNL     1      41.611   6.642  19.571  0.00  0.00    +0.000 A 
ATOM     15  C   UNL     1      41.859   6.507  18.211  0.00  0.00    +0.000 A 
ATOM     16  C   UNL     1      40.872   6.186  17.307  0.00  0.00    +0.000 A 
BRANCH  11  17
ATOM     17  C   UNL     1      38.550   5.644  16.782  0.00  0.00    +0.000 C 
BRANCH  17  19
ATOM     18  C   UNL     1      37.160   3.593  16.593  0.00  0.00    +0.000 C 
ATOM     19  C   UNL     1      38.578   4.152  16.463  0.00  0.00    +0.000 C 
ATOM     20  C   UNL     1      38.980   3.916  15.018  0.00  0.00    +0.000 C 
ENDBRANCH  17  19
ENDBRANCH  11  17
ENDBRANCH   1  14
BRANCH   3  21
ATOM     21  C   UNL     1      44.556   5.704  23.465  0.00  0.00    +0.000 C 
ATOM     22  O   UNL     1      45.414   4.781  23.233  0.00  0.00    +0.000 OA
ATOM     23  N   UNL     1      44.062   5.866  24.762  0.00  0.00    +0.000 NA
BRANCH  23  24
ATOM     24  C   UNL     1      44.550   4.964  25.812  0.00  0.00    +0.000 C 
BRANCH  24  25
ATOM     25  C   UNL     1      43.521   4.946  26.879  0.00  0.00    +0.000 A 
ATOM     26  C   UNL     1      43.226   3.866  27.663  0.00  0.00    +0.000 A 
ATOM     27  C   UNL     1      42.238   3.960  28.631  0.00  0.00    +0.000 A 
ATOM     28  C   UNL     1      41.518   5.130  28.842  0.00  0.00    +0.000 A 
ATOM     29  C   UNL     1      41.821   6.214  28.047  0.00  0.00    +0.000 A 
ATOM     30  C   UNL     1      42.813   6.128  27.072  0.00  0.00    +0.000 A 
ATOM     31  O   UNL     1      40.983   7.240  28.443  0.00  0.00    +0.000 OA
ATOM     32  C   UNL     1      39.939   6.672  29.241  0.00  0.00    +0.000 C 
ATOM     33  O   UNL     1      40.499   5.466  29.731  0.00  0.00    +0.000 OA
ENDBRANCH  24  25
ENDBRANCH  23  24
ENDBRANCH   3  21
TORSDOF 6
ENDMDL
MODEL 10
REMARK VINA RESULT:      -8.1     23.194     27.294
REMARK  Name = 
REMARK  6 active torsions:
REMARK  status: ('A' for Active; 'I' for Inactive)
REMARK    1  A    between atoms: C_2  and  C_4
REMARK    2  A    between atoms: C_4  and  C_5
REMARK    3  A    between atoms: C_8  and  C_9
REMARK    4  A    between atoms: C_11  and  C_12
REMARK    5  A    between atoms: N_14  and  C_15
REMARK    6  A    between atoms: C_15  and  C_16
REMARK                            x       y       z     vdW  Elec       q    Type
REMARK                         _______ _______ _______ _____ _____    ______ ____
ROOT
ATOM      1  C   UNL     1      12.533  -2.041  26.449  0.00  0.00    +0.000 A 
ATOM      2  C   UNL     1      13.815  -1.567  26.614  0.00  0.00    +0.000 A 
ATOM      3  C   UNL     1      14.098  -0.248  26.876  0.00  0.00    +0.000 A 
ATOM      4  C   UNL     1      13.046   0.638  26.977  0.00  0.00    +0.000 A 
ATOM      5  C   UNL     1      13.236   1.970  27.237  0.00  0.00    +0.000 A 
ATOM      6  C   UNL     1      12.216   2.888  27.345  0.00  0.00    +0.000 A 
ATOM      7  C   UNL     1      10.923   2.393  27.176  0.00  0.00    +0.000 A 
ATOM      8  C   UNL     1      10.710   1.061  26.916  0.00  0.00    +0.000 A 
ATOM      9  C   UNL     1      11.741   0.175  26.814  0.00  0.00    +0.000 A 
ATOM     10  N   UNL     1      11.538  -1.146  26.556  0.00  0.00    +0.000 NA
ENDROOT
BRANCH   1  14
ATOM     11  C   UNL     1      11.611  -6.066  25.473  0.00  0.00    +0.000 A 
ATOM     12  C   UNL     1      12.315  -5.783  26.635  0.00  0.00    +0.000 A 
ATOM     13  C   UNL     1      12.624  -4.474  26.968  0.00  0.00    +0.000 A 
ATOM     14  C   UNL     1      12.248  -3.443  26.171  0.00  0.00    +0.000 A 
ATOM     15  C   UNL     1      11.543  -3.740  25.012  0.00  0.00    +0.000 A 
ATOM     16  C   UNL     1      11.220  -5.028  24.652  0.00  0.00    +0.000 A 
BRANCH  11  17
ATOM     17  C   UNL     1      11.256  -7.435  25.065  0.00  0.00    +0.000 C 
BRANCH  17  19
ATOM     18  C   UNL     1       9.554  -8.168  26.720  0.00  0.00    +0.000 C 
ATOM     19  C   UNL     1      11.012  -8.321  26.283  0.00  0.00    +0.000 C 
ATOM     20  C   UNL     1      11.182  -9.787  25.929  0.00  0.00    +0.000 C 
ENDBRANCH  17  19
ENDBRANCH  11  17
ENDBRANCH   1  14
BRANCH   3  21
ATOM     21  C   UNL     1      15.449   0.257  27.052  0.00  0.00    +0.000 C 
ATOM     22  O   UNL     1      15.858   0.379  28.261  0.00  0.00    +0.000 OA
ATOM     23  N   UNL     1      16.305   0.607  26.004  0.00  0.00    +0.000 NA
BRANCH  23  24
ATOM     24  C   UNL     1      17.645   1.106  26.335  0.00  0.00    +0.000 C 
BRANCH  24  25
ATOM     25  C   UNL     1      18.556   0.642  25.261  0.00  0.00    +0.000 A 
ATOM     26  C   UNL     1      19.356   1.455  24.507  0.00  0.00    +0.000 A 
ATOM     27  C   UNL     1      20.167   0.912  23.524  0.00  0.00    +0.000 A 
ATOM     28  C   UNL     1      20.202  -0.454  23.264  0.00  0.00    +0.000 A 
ATOM     29  C   UNL     1      19.392  -1.266  24.027  0.00  0.00    +0.000 A 
ATOM     30  C   UNL     1      18.573  -0.728  25.018  0.00  0.00    +0.000 A 
ATOM     31  O   UNL     1      19.602  -2.559  23.584  0.00  0.00    +0.000 OA
ATOM     32  C   UNL     1      20.279  -2.489  22.325  0.00  0.00    +0.000 C 
ATOM     33  O   UNL     1      20.917  -1.223  22.349  0.00  0.00    +0.000 OA
ENDBRANCH  24  25
ENDBRANCH  23  24
ENDBRANCH   3  21
TORSDOF 6
ENDMDL
