MODEL 1
REMARK VINA RESULT:      -7.0      0.000      0.000
REMARK  Name = 
REMARK  2 active torsions:
REMARK  status: ('A' for Active; 'I' for Inactive)
REMARK    1  A    between atoms: C_2  and  C_3
REMARK    2  A    between atoms: C_3  and  C_4
REMARK                            x       y       z     vdW  Elec       q    Type
REMARK                         _______ _______ _______ _____ _____    ______ ____
ROOT
ATOM      1  C   UNL     1      17.251   9.220  39.902  0.00  0.00    +0.000 A 
ATOM      2  C   UNL     1      16.017   9.825  39.858  0.00  0.00    +0.000 A 
ATOM      3  O   UNL     1      15.138   9.735  40.912  0.00  0.00    +0.000 OA
ATOM      4  C   UNL     1      15.611  10.549  38.741  0.00  0.00    +0.000 A 
ATOM      5  C   UNL     1      16.459  10.658  37.671  0.00  0.00    +0.000 A 
ATOM      6  C   UNL     1      17.703  10.068  37.676  0.00  0.00    +0.000 A 
ATOM      7  C   UNL     1      18.070   9.361  38.795  0.00  0.00    +0.000 A 
ATOM      8  O   UNL     1      19.325   8.742  38.853  0.00  0.00    +0.000 OA
ATOM      9  C   UNL     1      18.755  10.077  36.631  0.00  0.00    +0.000 C 
ATOM     10  C   UNL     1      18.308   9.602  35.296  0.00  0.00    +0.000 C 
ATOM     11  C   UNL     1      17.217  10.381  34.674  0.00  0.00    +0.000 A 
ATOM     12  C   UNL     1      17.296  10.255  33.303  0.00  0.00    +0.000 A 
ATOM     13  C   UNL     1      16.400  10.880  32.445  0.00  0.00    +0.000 A 
ATOM     14  C   UNL     1      15.386  11.661  32.995  0.00  0.00    +0.000 A 
ATOM     15  C   UNL     1      15.325  11.773  34.373  0.00  0.00    +0.000 A 
ATOM     16  C   UNL     1      16.213  11.154  35.216  0.00  0.00    +0.000 A 
ATOM     17  O   UNL     1      15.960  11.410  36.590  0.00  0.00    +0.000 OA
ENDROOT
BRANCH   1  18
ATOM     18  C   UNL     1      17.737   8.457  41.107  0.00  0.00    +0.000 C 
BRANCH  18  20
ATOM     19  C   UNL     1      18.137   6.064  40.782  0.00  0.00    +0.000 C 
ATOM     20  C   UNL     1      17.108   7.114  41.116  0.00  0.00    +0.000 C 
ENDBRANCH  18  20
ENDBRANCH   1  18
TORSDOF 2
ENDMDL
MODEL 2
REMARK VINA RESULT:      -6.8     19.354     22.204
REMARK  Name = 
REMARK  2 active torsions:
REMARK  status: ('A' for Active; 'I' for Inactive)
REMARK    1  A    between atoms: C_2  and  C_3
REMARK    2  A    between atoms: C_3  and  C_4
REMARK                            x       y       z     vdW  Elec       q    Type
REMARK                         _______ _______ _______ _____ _____    ______ ____
ROOT
ATOM      1  C   UNL     1      28.662  23.680  23.217  0.00  0.00    +0.000 A 
ATOM      2  C   UNL     1      27.346  23.545  23.590  0.00  0.00    +0.000 A 
ATOM      3  O   UNL     1      26.322  23.902  22.743  0.00  0.00    +0.000 OA
ATOM      4  C   UNL     1      27.001  23.043  24.841  0.00  0.00    +0.000 A 
ATOM      5  C   UNL     1      27.994  22.679  25.712  0.00  0.00    +0.000 A 
ATOM      6  C   UNL     1      29.324  22.798  25.377  0.00  0.00    +0.000 A 
ATOM      7  C   UNL     1      29.627  23.297  24.132  0.00  0.00    +0.000 A 
ATOM      8  O   UNL     1      30.963  23.438  23.740  0.00  0.00    +0.000 OA
ATOM      9  C   UNL     1      30.530  22.457  26.167  0.00  0.00    +0.000 C 
ATOM     10  C   UNL     1      30.598  23.100  27.505  0.00  0.00    +0.000 C 
ATOM     11  C   UNL     1      29.492  22.770  28.428  0.00  0.00    +0.000 A 
ATOM     12  C   UNL     1      29.932  22.903  29.729  0.00  0.00    +0.000 A 
ATOM     13  C   UNL     1      29.112  22.658  30.822  0.00  0.00    +0.000 A 
ATOM     14  C   UNL     1      27.796  22.262  30.591  0.00  0.00    +0.000 A 
ATOM     15  C   UNL     1      27.375  22.135  29.280  0.00  0.00    +0.000 A 
ATOM     16  C   UNL     1      28.189  22.378  28.203  0.00  0.00    +0.000 A 
ATOM     17  O   UNL     1      27.547  22.183  26.952  0.00  0.00    +0.000 OA
ENDROOT
BRANCH   1  18
ATOM     18  C   UNL     1      29.071  24.187  21.858  0.00  0.00    +0.000 C 
BRANCH  18  20
ATOM     19  C   UNL     1      29.462  26.199  20.520  0.00  0.00    +0.000 C 
ATOM     20  C   UNL     1      29.122  25.669  21.890  0.00  0.00    +0.000 C 
ENDBRANCH  18  20
ENDBRANCH   1  18
TORSDOF 2
ENDMDL
MODEL 3
REMARK VINA RESULT:      -6.6     20.547     22.128
REMARK  Name = 
REMARK  2 active torsions:
REMARK  status: ('A' for Active; 'I' for Inactive)
REMARK    1  A    between atoms: C_2  and  C_3
REMARK    2  A    between atoms: C_3  and  C_4
REMARK                            x       y       z     vdW  Elec       q    Type
REMARK                         _______ _______ _______ _____ _____    ______ ____
ROOT
ATOM      1  C   UNL     1      18.512  -7.457  26.397  0.00  0.00    +0.000 A 
ATOM      2  C   UNL     1      18.944  -6.169  26.184  0.00  0.00    +0.000 A 
ATOM      3  O   UNL     1      18.090  -5.097  26.310  0.00  0.00    +0.000 OA
ATOM      4  C   UNL     1      20.263  -5.902  25.830  0.00  0.00    +0.000 A 
ATOM      5  C   UNL     1      21.142  -6.944  25.692  0.00  0.00    +0.000 A 
ATOM      6  C   UNL     1      20.750  -8.247  25.897  0.00  0.00    +0.000 A 
ATOM      7  C   UNL     1      19.440  -8.473  26.246  0.00  0.00    +0.000 A 
ATOM      8  O   UNL     1      18.988  -9.779  26.468  0.00  0.00    +0.000 OA
ATOM      9  C   UNL     1      21.542  -9.496  25.806  0.00  0.00    +0.000 C 
ATOM     10  C   UNL     1      22.241  -9.694  24.509  0.00  0.00    +0.000 C 
ATOM     11  C   UNL     1      23.224  -8.651  24.149  0.00  0.00    +0.000 A 
ATOM     12  C   UNL     1      24.178  -9.196  23.315  0.00  0.00    +0.000 A 
ATOM     13  C   UNL     1      25.237  -8.454  22.809  0.00  0.00    +0.000 A 
ATOM     14  C   UNL     1      25.334  -7.109  23.159  0.00  0.00    +0.000 A 
ATOM     15  C   UNL     1      24.367  -6.582  23.996  0.00  0.00    +0.000 A 
ATOM     16  C   UNL     1      23.323  -7.320  24.493  0.00  0.00    +0.000 A 
ATOM     17  O   UNL     1      22.452  -6.574  25.333  0.00  0.00    +0.000 OA
ENDROOT
BRANCH   1  18
ATOM     18  C   UNL     1      17.101  -7.779  26.814  0.00  0.00    +0.000 C 
BRANCH  18  20
ATOM     19  C   UNL     1      14.926  -8.546  25.994  0.00  0.00    +0.000 C 
ATOM     20  C   UNL     1      16.277  -8.007  25.602  0.00  0.00    +0.000 C 
ENDBRANCH  18  20
ENDBRANCH   1  18
TORSDOF 2
ENDMDL
MODEL 4
REMARK VINA RESULT:      -6.4      1.627      2.471
REMARK  Name = 
REMARK  2 active torsions:
REMARK  status: ('A' for Active; 'I' for Inactive)
REMARK    1  A    between atoms: C_2  and  C_3
REMARK    2  A    between atoms: C_3  and  C_4
REMARK                            x       y       z     vdW  Elec       q    Type
REMARK                         _______ _______ _______ _____ _____    ______ ____
ROOT
ATOM      1  C   UNL     1      17.461   7.838  41.225  0.00  0.00    +0.000 A 
ATOM      2  C   UNL     1      16.171   8.139  41.591  0.00  0.00    +0.000 A 
ATOM      3  O   UNL     1      15.547   7.478  42.623  0.00  0.00    +0.000 OA
ATOM      4  C   UNL     1      15.446   9.124  40.927  0.00  0.00    +0.000 A 
ATOM      5  C   UNL     1      16.034   9.803  39.891  0.00  0.00    +0.000 A 
ATOM      6  C   UNL     1      17.323   9.531  39.495  0.00  0.00    +0.000 A 
ATOM      7  C   UNL     1      18.009   8.552  40.173  0.00  0.00    +0.000 A 
ATOM      8  O   UNL     1      19.324   8.237  39.811  0.00  0.00    +0.000 OA
ATOM      9  C   UNL     1      18.128  10.152  38.416  0.00  0.00    +0.000 C 
ATOM     10  C   UNL     1      17.491  10.127  37.073  0.00  0.00    +0.000 C 
ATOM     11  C   UNL     1      16.197  10.832  36.969  0.00  0.00    +0.000 A 
ATOM     12  C   UNL     1      16.011  11.248  35.667  0.00  0.00    +0.000 A 
ATOM     13  C   UNL     1      14.880  11.943  35.260  0.00  0.00    +0.000 A 
ATOM     14  C   UNL     1      13.898  12.228  36.207  0.00  0.00    +0.000 A 
ATOM     15  C   UNL     1      14.103  11.801  37.507  0.00  0.00    +0.000 A 
ATOM     16  C   UNL     1      15.223  11.115  37.903  0.00  0.00    +0.000 A 
ATOM     17  O   UNL     1      15.222  10.780  39.283  0.00  0.00    +0.000 OA
ENDROOT
BRANCH   1  18
ATOM     18  C   UNL     1      18.286   6.801  41.942  0.00  0.00    +0.000 C 
BRANCH  18  20
ATOM     19  C   UNL     1      19.184   4.854  40.761  0.00  0.00    +0.000 C 
ATOM     20  C   UNL     1      17.960   5.460  41.398  0.00  0.00    +0.000 C 
ENDBRANCH  18  20
ENDBRANCH   1  18
TORSDOF 2
ENDMDL
MODEL 5
REMARK VINA RESULT:      -6.4     21.017     22.804
REMARK  Name = 
REMARK  2 active torsions:
REMARK  status: ('A' for Active; 'I' for Inactive)
REMARK    1  A    between atoms: C_2  and  C_3
REMARK    2  A    between atoms: C_3  and  C_4
REMARK                            x       y       z     vdW  Elec       q    Type
REMARK                         _______ _______ _______ _____ _____    ______ ____
ROOT
ATOM      1  C   UNL     1      24.372  -8.528  23.561  0.00  0.00    +0.000 A 
ATOM      2  C   UNL     1      24.516  -7.169  23.717  0.00  0.00    +0.000 A 
ATOM      3  O   UNL     1      25.725  -6.548  23.506  0.00  0.00    +0.000 OA
ATOM      4  C   UNL     1      23.442  -6.372  24.099  0.00  0.00    +0.000 A 
ATOM      5  C   UNL     1      22.222  -6.956  24.321  0.00  0.00    +0.000 A 
ATOM      6  C   UNL     1      22.036  -8.311  24.175  0.00  0.00    +0.000 A 
ATOM      7  C   UNL     1      23.120  -9.068  23.797  0.00  0.00    +0.000 A 
ATOM      8  O   UNL     1      22.987 -10.452  23.633  0.00  0.00    +0.000 OA
ATOM      9  C   UNL     1      20.809  -9.121  24.361  0.00  0.00    +0.000 C 
ATOM     10  C   UNL     1      20.158  -8.967  25.688  0.00  0.00    +0.000 C 
ATOM     11  C   UNL     1      19.708  -7.600  26.022  0.00  0.00    +0.000 A 
ATOM     12  C   UNL     1      18.659  -7.674  26.915  0.00  0.00    +0.000 A 
ATOM     13  C   UNL     1      18.023  -6.545  27.413  0.00  0.00    +0.000 A 
ATOM     14  C   UNL     1      18.465  -5.292  26.993  0.00  0.00    +0.000 A 
ATOM     15  C   UNL     1      19.519  -5.240  26.098  0.00  0.00    +0.000 A 
ATOM     16  C   UNL     1      20.143  -6.359  25.609  0.00  0.00    +0.000 A 
ATOM     17  O   UNL     1      21.197  -6.067  24.702  0.00  0.00    +0.000 OA
ENDROOT
BRANCH   1  18
ATOM     18  C   UNL     1      25.505  -9.416  23.117  0.00  0.00    +0.000 C 
BRANCH  18  20
ATOM     19  C   UNL     1      27.776  -9.648  23.999  0.00  0.00    +0.000 C 
ATOM     20  C   UNL     1      26.309  -9.806  24.301  0.00  0.00    +0.000 C 
ENDBRANCH  18  20
ENDBRANCH   1  18
TORSDOF 2
ENDMDL
MODEL 6
REMARK VINA RESULT:      -6.2     19.839     21.840
REMARK  Name = 
REMARK  2 active torsions:
REMARK  status: ('A' for Active; 'I' for Inactive)
REMARK    1  A    between atoms: C_2  and  C_3
REMARK    2  A    between atoms: C_3  and  C_4
REMARK                            x       y       z     vdW  Elec       q    Type
REMARK                         _______ _______ _______ _____ _____    ______ ____
ROOT
ATOM      1  C   UNL     1      29.224  23.076  24.513  0.00  0.00    +0.000 A 
ATOM      2  C   UNL     1      28.753  23.779  23.430  0.00  0.00    +0.000 A 
ATOM      3  O   UNL     1      29.515  23.945  22.297  0.00  0.00    +0.000 OA
ATOM      4  C   UNL     1      27.485  24.353  23.441  0.00  0.00    +0.000 A 
ATOM      5  C   UNL     1      26.698  24.212  24.554  0.00  0.00    +0.000 A 
ATOM      6  C   UNL     1      27.132  23.514  25.658  0.00  0.00    +0.000 A 
ATOM      7  C   UNL     1      28.389  22.961  25.611  0.00  0.00    +0.000 A 
ATOM      8  O   UNL     1      28.881  22.241  26.706  0.00  0.00    +0.000 OA
ATOM      9  C   UNL     1      26.436  23.247  26.939  0.00  0.00    +0.000 C 
ATOM     10  C   UNL     1      25.943  24.459  27.643  0.00  0.00    +0.000 C 
ATOM     11  C   UNL     1      24.964  25.276  26.897  0.00  0.00    +0.000 A 
ATOM     12  C   UNL     1      24.173  25.965  27.793  0.00  0.00    +0.000 A 
ATOM     13  C   UNL     1      23.156  26.819  27.386  0.00  0.00    +0.000 A 
ATOM     14  C   UNL     1      22.930  26.982  26.021  0.00  0.00    +0.000 A 
ATOM     15  C   UNL     1      23.735  26.282  25.139  0.00  0.00    +0.000 A 
ATOM     16  C   UNL     1      24.738  25.439  25.547  0.00  0.00    +0.000 A 
ATOM     17  O   UNL     1      25.433  24.826  24.471  0.00  0.00    +0.000 OA
ENDROOT
BRANCH   1  18
ATOM     18  C   UNL     1      30.577  22.413  24.521  0.00  0.00    +0.000 C 
BRANCH  18  20
ATOM     19  C   UNL     1      31.925  23.812  26.011  0.00  0.00    +0.000 C 
ATOM     20  C   UNL     1      31.629  23.459  24.576  0.00  0.00    +0.000 C 
ENDBRANCH  18  20
ENDBRANCH   1  18
TORSDOF 2
ENDMDL
MODEL 7
REMARK VINA RESULT:      -6.1     19.942     21.803
REMARK  Name = 
REMARK  2 active torsions:
REMARK  status: ('A' for Active; 'I' for Inactive)
REMARK    1  A    between atoms: C_2  and  C_3
REMARK    2  A    between atoms: C_3  and  C_4
REMARK                            x       y       z     vdW  Elec       q    Type
REMARK                         _______ _______ _______ _____ _____    ______ ____
ROOT
ATOM      1  C   UNL     1      32.090  23.470  27.936  0.00  0.00    +0.000 A 
ATOM      2  C   UNL     1      32.481  23.932  26.702  0.00  0.00    +0.000 A 
ATOM      3  O   UNL     1      33.693  24.558  26.523  0.00  0.00    +0.000 OA
ATOM      4  C   UNL     1      31.662  23.787  25.587  0.00  0.00    +0.000 A 
ATOM      5  C   UNL     1      30.446  23.171  25.727  0.00  0.00    +0.000 A 
ATOM      6  C   UNL     1      30.018  22.694  26.945  0.00  0.00    +0.000 A 
ATOM      7  C   UNL     1      30.853  22.855  28.024  0.00  0.00    +0.000 A 
ATOM      8  O   UNL     1      30.467  22.388  29.286  0.00  0.00    +0.000 OA
ATOM      9  C   UNL     1      28.755  22.002  27.296  0.00  0.00    +0.000 C 
ATOM     10  C   UNL     1      27.519  22.734  26.917  0.00  0.00    +0.000 C 
ATOM     11  C   UNL     1      27.357  23.009  25.473  0.00  0.00    +0.000 A 
ATOM     12  C   UNL     1      26.014  23.125  25.182  0.00  0.00    +0.000 A 
ATOM     13  C   UNL     1      25.549  23.382  23.899  0.00  0.00    +0.000 A 
ATOM     14  C   UNL     1      26.478  23.528  22.872  0.00  0.00    +0.000 A 
ATOM     15  C   UNL     1      27.821  23.408  23.185  0.00  0.00    +0.000 A 
ATOM     16  C   UNL     1      28.274  23.153  24.454  0.00  0.00    +0.000 A 
ATOM     17  O   UNL     1      29.689  23.070  24.543  0.00  0.00    +0.000 OA
ENDROOT
BRANCH   1  18
ATOM     18  C   UNL     1      32.965  23.581  29.157  0.00  0.00    +0.000 C 
BRANCH  18  20
ATOM     19  C   UNL     1      33.773  21.762  30.582  0.00  0.00    +0.000 C 
ATOM     20  C   UNL     1      33.861  22.401  29.220  0.00  0.00    +0.000 C 
ENDBRANCH  18  20
ENDBRANCH   1  18
TORSDOF 2
ENDMDL
MODEL 8
REMARK VINA RESULT:      -6.0     19.397     20.912
REMARK  Name = 
REMARK  2 active torsions:
REMARK  status: ('A' for Active; 'I' for Inactive)
REMARK    1  A    between atoms: C_2  and  C_3
REMARK    2  A    between atoms: C_3  and  C_4
REMARK                            x       y       z     vdW  Elec       q    Type
REMARK                         _______ _______ _______ _____ _____    ______ ____
ROOT
ATOM      1  C   UNL     1      24.009  26.026  27.316  0.00  0.00    +0.000 A 
ATOM      2  C   UNL     1      24.632  25.561  28.450  0.00  0.00    +0.000 A 
ATOM      3  O   UNL     1      24.272  26.008  29.700  0.00  0.00    +0.000 OA
ATOM      4  C   UNL     1      25.656  24.622  28.374  0.00  0.00    +0.000 A 
ATOM      5  C   UNL     1      26.045  24.155  27.145  0.00  0.00    +0.000 A 
ATOM      6  C   UNL     1      25.445  24.595  25.987  0.00  0.00    +0.000 A 
ATOM      7  C   UNL     1      24.438  25.522  26.101  0.00  0.00    +0.000 A 
ATOM      8  O   UNL     1      23.793  26.003  24.954  0.00  0.00    +0.000 OA
ATOM      9  C   UNL     1      25.715  24.211  24.581  0.00  0.00    +0.000 C 
ATOM     10  C   UNL     1      27.129  24.372  24.153  0.00  0.00    +0.000 C 
ATOM     11  C   UNL     1      28.119  23.577  24.910  0.00  0.00    +0.000 A 
ATOM     12  C   UNL     1      29.216  23.339  24.109  0.00  0.00    +0.000 A 
ATOM     13  C   UNL     1      30.315  22.612  24.548  0.00  0.00    +0.000 A 
ATOM     14  C   UNL     1      30.304  22.107  25.846  0.00  0.00    +0.000 A 
ATOM     15  C   UNL     1      29.194  22.358  26.633  0.00  0.00    +0.000 A 
ATOM     16  C   UNL     1      28.110  23.076  26.194  0.00  0.00    +0.000 A 
ATOM     17  O   UNL     1      27.086  23.208  27.170  0.00  0.00    +0.000 OA
ENDROOT
BRANCH   1  18
ATOM     18  C   UNL     1      22.875  27.017  27.364  0.00  0.00    +0.000 C 
BRANCH  18  20
ATOM     19  C   UNL     1      20.945  26.476  28.769  0.00  0.00    +0.000 C 
ATOM     20  C   UNL     1      21.589  26.280  27.421  0.00  0.00    +0.000 C 
ENDBRANCH  18  20
ENDBRANCH   1  18
TORSDOF 2
ENDMDL
MODEL 9
REMARK VINA RESULT:      -6.0     20.529     21.820
REMARK  Name = 
REMARK  2 active torsions:
REMARK  status: ('A' for Active; 'I' for Inactive)
REMARK    1  A    between atoms: C_2  and  C_3
REMARK    2  A    between atoms: C_3  and  C_4
REMARK                            x       y       z     vdW  Elec       q    Type
REMARK                         _______ _______ _______ _____ _____    ______ ____
ROOT
ATOM      1  C   UNL     1      18.875  -9.574  28.971  0.00  0.00    +0.000 A 
ATOM      2  C   UNL     1      19.988 -10.381  28.990  0.00  0.00    +0.000 A 
ATOM      3  O   UNL     1      20.205 -11.277  30.011  0.00  0.00    +0.000 OA
ATOM      4  C   UNL     1      20.939 -10.317  27.976  0.00  0.00    +0.000 A 
ATOM      5  C   UNL     1      20.758  -9.434  26.944  0.00  0.00    +0.000 A 
ATOM      6  C   UNL     1      19.657  -8.610  26.888  0.00  0.00    +0.000 A 
ATOM      7  C   UNL     1      18.738  -8.700  27.906  0.00  0.00    +0.000 A 
ATOM      8  O   UNL     1      17.600  -7.886  27.898  0.00  0.00    +0.000 OA
ATOM      9  C   UNL     1      19.282  -7.605  25.865  0.00  0.00    +0.000 C 
ATOM     10  C   UNL     1      20.321  -6.578  25.594  0.00  0.00    +0.000 C 
ATOM     11  C   UNL     1      21.613  -7.094  25.094  0.00  0.00    +0.000 A 
ATOM     12  C   UNL     1      22.235  -6.113  24.350  0.00  0.00    +0.000 A 
ATOM     13  C   UNL     1      23.471  -6.306  23.747  0.00  0.00    +0.000 A 
ATOM     14  C   UNL     1      24.102  -7.539  23.904  0.00  0.00    +0.000 A 
ATOM     15  C   UNL     1      23.461  -8.508  24.655  0.00  0.00    +0.000 A 
ATOM     16  C   UNL     1      22.240  -8.312  25.248  0.00  0.00    +0.000 A 
ATOM     17  O   UNL     1      21.772  -9.444  25.967  0.00  0.00    +0.000 OA
ENDROOT
BRANCH   1  18
ATOM     18  C   UNL     1      17.809  -9.640  30.034  0.00  0.00    +0.000 C 
BRANCH  18  20
ATOM     19  C   UNL     1      15.996 -11.045  30.889  0.00  0.00    +0.000 C 
ATOM     20  C   UNL     1      16.848 -10.717  29.690  0.00  0.00    +0.000 C 
ENDBRANCH  18  20
ENDBRANCH   1  18
TORSDOF 2
ENDMDL
MODEL 10
REMARK VINA RESULT:      -5.9     18.976     20.137
REMARK  Name = 
REMARK  2 active torsions:
REMARK  status: ('A' for Active; 'I' for Inactive)
REMARK    1  A    between atoms: C_2  and  C_3
REMARK    2  A    between atoms: C_3  and  C_4
REMARK                            x       y       z     vdW  Elec       q    Type
REMARK                         _______ _______ _______ _____ _____    ______ ____
ROOT
ATOM      1  C   UNL     1      32.172  21.390  31.307  0.00  0.00    +0.000 A 
ATOM      2  C   UNL     1      31.026  21.645  32.022  0.00  0.00    +0.000 A 
ATOM      3  O   UNL     1      30.917  21.297  33.348  0.00  0.00    +0.000 OA
ATOM      4  C   UNL     1      29.930  22.264  31.427  0.00  0.00    +0.000 A 
ATOM      5  C   UNL     1      30.001  22.623  30.106  0.00  0.00    +0.000 A 
ATOM      6  C   UNL     1      31.131  22.386  29.357  0.00  0.00    +0.000 A 
ATOM      7  C   UNL     1      32.193  21.773  29.978  0.00  0.00    +0.000 A 
ATOM      8  O   UNL     1      33.367  21.509  29.262  0.00  0.00    +0.000 OA
ATOM      9  C   UNL     1      31.402  22.701  27.934  0.00  0.00    +0.000 C 
ATOM     10  C   UNL     1      30.403  22.159  26.977  0.00  0.00    +0.000 C 
ATOM     11  C   UNL     1      29.017  22.635  27.164  0.00  0.00    +0.000 A 
ATOM     12  C   UNL     1      28.349  22.571  25.958  0.00  0.00    +0.000 A 
ATOM     13  C   UNL     1      27.022  22.956  25.819  0.00  0.00    +0.000 A 
ATOM     14  C   UNL     1      26.345  23.423  26.943  0.00  0.00    +0.000 A 
ATOM     15  C   UNL     1      27.032  23.479  28.143  0.00  0.00    +0.000 A 
ATOM     16  C   UNL     1      28.343  23.098  28.274  0.00  0.00    +0.000 A 
ATOM     17  O   UNL     1      28.845  23.242  29.595  0.00  0.00    +0.000 OA
ENDROOT
BRANCH   1  18
ATOM     18  C   UNL     1      33.388  20.753  31.928  0.00  0.00    +0.000 C 
BRANCH  18  20
ATOM     19  C   UNL     1      35.511  21.970  32.020  0.00  0.00    +0.000 C 
ATOM     20  C   UNL     1      34.158  21.789  32.660  0.00  0.00    +0.000 C 
ENDBRANCH  18  20
ENDBRANCH   1  18
TORSDOF 2
ENDMDL
