MODEL 1
REMARK VINA RESULT:      -7.2      0.000      0.000
REMARK  Name = 
REMARK  9 active torsions:
REMARK  status: ('A' for Active; 'I' for Inactive)
REMARK    1  A    between atoms: O_2  and  C_3
REMARK    2  A    between atoms: C_6  and  C_7
REMARK    3  A    between atoms: C_12  and  N_13
REMARK    4  A    between atoms: C_14  and  C_16
REMARK    5  A    between atoms: C_16  and  O_17
REMARK    6  A    between atoms: O_17  and  C_18
REMARK    7  A    between atoms: C_18  and  C_20
REMARK    8  A    between atoms: C_20  and  C_21
REMARK    9  A    between atoms: C_20  and  C_27
REMARK                            x       y       z     vdW  Elec       q    Type
REMARK                         _______ _______ _______ _____ _____    ______ ____
ROOT
ATOM      1  C   UNL     1      35.507   1.670  16.778  0.00  0.00    +0.000 C 
ENDROOT
BRANCH   1   3
ATOM      2  N   UNL     1      36.171   0.121  14.975  0.00  0.00    +0.000 NA
ATOM      3  C   UNL     1      36.384   0.605  16.269  0.00  0.00    +0.000 C 
ATOM      4  O   UNL     1      37.296   0.135  16.960  0.00  0.00    +0.000 OA
BRANCH   2  10
ATOM      5  C   UNL     1      36.568  -2.237  14.540  0.00  0.00    +0.000 A 
ATOM      6  C   UNL     1      37.272  -3.244  13.917  0.00  0.00    +0.000 A 
ATOM      7  C   UNL     1      38.326  -2.991  13.070  0.00  0.00    +0.000 A 
ATOM      8  C   UNL     1      38.675  -1.652  12.852  0.00  0.00    +0.000 A 
ATOM      9  C   UNL     1      37.962  -0.667  13.482  0.00  0.00    +0.000 A 
ATOM     10  C   UNL     1      36.912  -0.894  14.326  0.00  0.00    +0.000 A 
BRANCH   8  11
ATOM     11  C   UNL     1      39.815  -1.427  11.935  0.00  0.00    +0.000 C 
ATOM     12  C   UNL     1      39.580  -0.305  10.951  0.00  0.00    +0.000 C 
ATOM     13  C   UNL     1      41.028  -1.176  12.793  0.00  0.00    +0.000 C 
ATOM     14  C   UNL     1      40.098  -2.723  11.166  0.00  0.00    +0.000 C 
ENDBRANCH   8  11
BRANCH   5  16
ATOM     15  C   UNL     1      35.761  -3.244  16.556  0.00  0.00    +0.000 C 
ATOM     16  O   UNL     1      35.494  -2.469  15.402  0.00  0.00    +0.000 OA
ENDBRANCH   5  16
ENDBRANCH   2  10
ENDBRANCH   1   3
BRANCH   1  17
ATOM     17  O   UNL     1      36.045   2.923  16.926  0.00  0.00    +0.000 OA
BRANCH  17  18
ATOM     18  C   UNL     1      36.896   3.613  16.093  0.00  0.00    +0.000 C 
ATOM     19  O   UNL     1      36.442   4.036  15.029  0.00  0.00    +0.000 OA
BRANCH  18  20
ATOM     20  C   UNL     1      38.295   3.768  16.585  0.00  0.00    +0.000 C 
BRANCH  20  21
ATOM     21  C   UNL     1      38.479   5.033  17.311  0.00  0.00    +0.000 A 
ATOM     22  C   UNL     1      38.025   6.232  16.804  0.00  0.00    +0.000 A 
ATOM     23  C   UNL     1      38.209   7.427  17.486  0.00  0.00    +0.000 A 
ATOM     24  C   UNL     1      38.864   7.430  18.707  0.00  0.00    +0.000 A 
ATOM     25  C   UNL     1      39.327   6.221  19.225  0.00  0.00    +0.000 A 
ATOM     26  C   UNL     1      39.127   5.043  18.519  0.00  0.00    +0.000 A 
ENDBRANCH  20  21
BRANCH  20  27
ATOM     27  C   UNL     1      39.142   3.770  15.345  0.00  0.00    +0.000 A 
ATOM     28  C   UNL     1      39.767   4.875  14.872  0.00  0.00    +0.000 A 
ATOM     29  C   UNL     1      40.528   4.830  13.731  0.00  0.00    +0.000 A 
ATOM     30  C   UNL     1      40.648   3.609  13.058  0.00  0.00    +0.000 A 
ATOM     31  C   UNL     1      40.029   2.474  13.510  0.00  0.00    +0.000 A 
ATOM     32  C   UNL     1      39.280   2.584  14.661  0.00  0.00    +0.000 A 
ENDBRANCH  20  27
ENDBRANCH  18  20
ENDBRANCH  17  18
ENDBRANCH   1  17
TORSDOF 9
ENDMDL
MODEL 2
REMARK VINA RESULT:      -7.1      1.849      2.256
REMARK  Name = 
REMARK  9 active torsions:
REMARK  status: ('A' for Active; 'I' for Inactive)
REMARK    1  A    between atoms: O_2  and  C_3
REMARK    2  A    between atoms: C_6  and  C_7
REMARK    3  A    between atoms: C_12  and  N_13
REMARK    4  A    between atoms: C_14  and  C_16
REMARK    5  A    between atoms: C_16  and  O_17
REMARK    6  A    between atoms: O_17  and  C_18
REMARK    7  A    between atoms: C_18  and  C_20
REMARK    8  A    between atoms: C_20  and  C_21
REMARK    9  A    between atoms: C_20  and  C_27
REMARK                            x       y       z     vdW  Elec       q    Type
REMARK                         _______ _______ _______ _____ _____    ______ ____
ROOT
ATOM      1  C   UNL     1      35.185   1.263  16.930  0.00  0.00    +0.000 C 
ENDROOT
BRANCH   1   3
ATOM      2  N   UNL     1      37.225  -0.126  16.923  0.00  0.00    +0.000 NA
ATOM      3  C   UNL     1      36.018   0.222  16.310  0.00  0.00    +0.000 C 
ATOM      4  O   UNL     1      35.673  -0.342  15.264  0.00  0.00    +0.000 OA
BRANCH   2  10
ATOM      5  C   UNL     1      38.218  -2.335  17.132  0.00  0.00    +0.000 A 
ATOM      6  C   UNL     1      39.105  -3.300  16.708  0.00  0.00    +0.000 A 
ATOM      7  C   UNL     1      39.948  -3.108  15.638  0.00  0.00    +0.000 A 
ATOM      8  C   UNL     1      39.880  -1.876  14.974  0.00  0.00    +0.000 A 
ATOM      9  C   UNL     1      38.992  -0.931  15.411  0.00  0.00    +0.000 A 
ATOM     10  C   UNL     1      38.146  -1.099  16.471  0.00  0.00    +0.000 A 
BRANCH   8  11
ATOM     11  C   UNL     1      40.806  -1.714  13.830  0.00  0.00    +0.000 C 
ATOM     12  C   UNL     1      41.865  -0.661  14.060  0.00  0.00    +0.000 C 
ATOM     13  C   UNL     1      41.410  -3.067  13.556  0.00  0.00    +0.000 C 
ATOM     14  C   UNL     1      39.995  -1.350  12.581  0.00  0.00    +0.000 C 
ENDBRANCH   8  11
BRANCH   5  16
ATOM     15  C   UNL     1      37.944  -2.561  19.499  0.00  0.00    +0.000 C 
ATOM     16  O   UNL     1      37.353  -2.507  18.214  0.00  0.00    +0.000 OA
ENDBRANCH   5  16
ENDBRANCH   2  10
ENDBRANCH   1   3
BRANCH   1  17
ATOM     17  O   UNL     1      34.941   2.401  16.206  0.00  0.00    +0.000 OA
BRANCH  17  18
ATOM     18  C   UNL     1      35.831   3.287  15.642  0.00  0.00    +0.000 C 
ATOM     19  O   UNL     1      35.384   4.146  14.882  0.00  0.00    +0.000 OA
BRANCH  18  20
ATOM     20  C   UNL     1      37.261   3.097  16.023  0.00  0.00    +0.000 C 
BRANCH  20  21
ATOM     21  C   UNL     1      37.838   4.320  16.598  0.00  0.00    +0.000 A 
ATOM     22  C   UNL     1      37.892   5.499  15.885  0.00  0.00    +0.000 A 
ATOM     23  C   UNL     1      38.447   6.652  16.425  0.00  0.00    +0.000 A 
ATOM     24  C   UNL     1      38.963   6.631  17.711  0.00  0.00    +0.000 A 
ATOM     25  C   UNL     1      38.912   5.442  18.437  0.00  0.00    +0.000 A 
ATOM     26  C   UNL     1      38.351   4.306  17.869  0.00  0.00    +0.000 A 
ENDBRANCH  20  21
BRANCH  20  27
ATOM     27  C   UNL     1      37.962   2.763  14.739  0.00  0.00    +0.000 A 
ATOM     28  C   UNL     1      37.309   2.426  13.600  0.00  0.00    +0.000 A 
ATOM     29  C   UNL     1      37.992   2.125  12.450  0.00  0.00    +0.000 A 
ATOM     30  C   UNL     1      39.391   2.171  12.474  0.00  0.00    +0.000 A 
ATOM     31  C   UNL     1      40.080   2.507  13.607  0.00  0.00    +0.000 A 
ATOM     32  C   UNL     1      39.337   2.800  14.730  0.00  0.00    +0.000 A 
ENDBRANCH  20  27
ENDBRANCH  18  20
ENDBRANCH  17  18
ENDBRANCH   1  17
TORSDOF 9
ENDMDL
MODEL 3
REMARK VINA RESULT:      -7.0      2.135      3.653
REMARK  Name = 
REMARK  9 active torsions:
REMARK  status: ('A' for Active; 'I' for Inactive)
REMARK    1  A    between atoms: O_2  and  C_3
REMARK    2  A    between atoms: C_6  and  C_7
REMARK    3  A    between atoms: C_12  and  N_13
REMARK    4  A    between atoms: C_14  and  C_16
REMARK    5  A    between atoms: C_16  and  O_17
REMARK    6  A    between atoms: O_17  and  C_18
REMARK    7  A    between atoms: C_18  and  C_20
REMARK    8  A    between atoms: C_20  and  C_21
REMARK    9  A    between atoms: C_20  and  C_27
REMARK                            x       y       z     vdW  Elec       q    Type
REMARK                         _______ _______ _______ _____ _____    ______ ____
ROOT
ATOM      1  C   UNL     1      37.302   3.943  16.642  0.00  0.00    +0.000 C 
ENDROOT
BRANCH   1   3
ATOM      2  N   UNL     1      37.269   1.497  16.314  0.00  0.00    +0.000 NA
ATOM      3  C   UNL     1      37.502   2.768  15.781  0.00  0.00    +0.000 C 
ATOM      4  O   UNL     1      37.870   2.885  14.605  0.00  0.00    +0.000 OA
BRANCH   2  10
ATOM      5  C   UNL     1      36.299  -0.587  15.524  0.00  0.00    +0.000 A 
ATOM      6  C   UNL     1      36.409  -1.793  14.865  0.00  0.00    +0.000 A 
ATOM      7  C   UNL     1      37.587  -2.216  14.295  0.00  0.00    +0.000 A 
ATOM      8  C   UNL     1      38.700  -1.371  14.404  0.00  0.00    +0.000 A 
ATOM      9  C   UNL     1      38.569  -0.177  15.062  0.00  0.00    +0.000 A 
ATOM     10  C   UNL     1      37.410   0.263  15.636  0.00  0.00    +0.000 A 
BRANCH   8  11
ATOM     11  C   UNL     1      39.945  -1.867  13.776  0.00  0.00    +0.000 C 
ATOM     12  C   UNL     1      39.700  -2.747  12.572  0.00  0.00    +0.000 C 
ATOM     13  C   UNL     1      40.776  -0.660  13.429  0.00  0.00    +0.000 C 
ATOM     14  C   UNL     1      40.749  -2.653  14.819  0.00  0.00    +0.000 C 
ENDBRANCH   8  11
BRANCH   5  16
ATOM     15  C   UNL     1      34.610  -0.897  17.191  0.00  0.00    +0.000 C 
ATOM     16  O   UNL     1      35.115  -0.136  16.109  0.00  0.00    +0.000 OA
ENDBRANCH   5  16
ENDBRANCH   2  10
ENDBRANCH   1   3
BRANCH   1  17
ATOM     17  O   UNL     1      38.266   4.222  17.575  0.00  0.00    +0.000 OA
BRANCH  17  18
ATOM     18  C   UNL     1      39.195   5.236  17.596  0.00  0.00    +0.000 C 
ATOM     19  O   UNL     1      39.838   5.449  16.567  0.00  0.00    +0.000 OA
BRANCH  18  20
ATOM     20  C   UNL     1      39.321   5.972  18.887  0.00  0.00    +0.000 C 
BRANCH  20  21
ATOM     21  C   UNL     1      38.561   7.230  18.873  0.00  0.00    +0.000 A 
ATOM     22  C   UNL     1      37.927   7.679  17.734  0.00  0.00    +0.000 A 
ATOM     23  C   UNL     1      37.218   8.873  17.718  0.00  0.00    +0.000 A 
ATOM     24  C   UNL     1      37.138   9.642  18.868  0.00  0.00    +0.000 A 
ATOM     25  C   UNL     1      37.778   9.194  20.024  0.00  0.00    +0.000 A 
ATOM     26  C   UNL     1      38.479   7.996  20.007  0.00  0.00    +0.000 A 
ENDBRANCH  20  21
BRANCH  20  27
ATOM     27  C   UNL     1      40.786   6.268  19.022  0.00  0.00    +0.000 A 
ATOM     28  C   UNL     1      41.566   6.656  17.985  0.00  0.00    +0.000 A 
ATOM     29  C   UNL     1      42.903   6.912  18.155  0.00  0.00    +0.000 A 
ATOM     30  C   UNL     1      43.452   6.764  19.433  0.00  0.00    +0.000 A 
ATOM     31  C   UNL     1      42.692   6.374  20.503  0.00  0.00    +0.000 A 
ATOM     32  C   UNL     1      41.356   6.133  20.268  0.00  0.00    +0.000 A 
ENDBRANCH  20  27
ENDBRANCH  18  20
ENDBRANCH  17  18
ENDBRANCH   1  17
TORSDOF 9
ENDMDL
MODEL 4
REMARK VINA RESULT:      -7.0      2.314      5.333
REMARK  Name = 
REMARK  9 active torsions:
REMARK  status: ('A' for Active; 'I' for Inactive)
REMARK    1  A    between atoms: O_2  and  C_3
REMARK    2  A    between atoms: C_6  and  C_7
REMARK    3  A    between atoms: C_12  and  N_13
REMARK    4  A    between atoms: C_14  and  C_16
REMARK    5  A    between atoms: C_16  and  O_17
REMARK    6  A    between atoms: O_17  and  C_18
REMARK    7  A    between atoms: C_18  and  C_20
REMARK    8  A    between atoms: C_20  and  C_21
REMARK    9  A    between atoms: C_20  and  C_27
REMARK                            x       y       z     vdW  Elec       q    Type
REMARK                         _______ _______ _______ _____ _____    ______ ____
ROOT
ATOM      1  C   UNL     1      37.977   4.757  15.748  0.00  0.00    +0.000 C 
ENDROOT
BRANCH   1   3
ATOM      2  N   UNL     1      37.962   2.302  15.484  0.00  0.00    +0.000 NA
ATOM      3  C   UNL     1      37.241   3.498  15.555  0.00  0.00    +0.000 C 
ATOM      4  O   UNL     1      36.008   3.481  15.453  0.00  0.00    +0.000 OA
BRANCH   2  10
ATOM      5  C   UNL     1      37.506   0.401  14.040  0.00  0.00    +0.000 A 
ATOM      6  C   UNL     1      36.992  -0.862  13.839  0.00  0.00    +0.000 A 
ATOM      7  C   UNL     1      36.384  -1.578  14.843  0.00  0.00    +0.000 A 
ATOM      8  C   UNL     1      36.298  -0.978  16.106  0.00  0.00    +0.000 A 
ATOM      9  C   UNL     1      36.815   0.277  16.285  0.00  0.00    +0.000 A 
ATOM     10  C   UNL     1      37.423   1.007  15.303  0.00  0.00    +0.000 A 
BRANCH   8  11
ATOM     11  C   UNL     1      35.636  -1.786  17.155  0.00  0.00    +0.000 C 
ATOM     12  C   UNL     1      34.195  -1.396  17.391  0.00  0.00    +0.000 C 
ATOM     13  C   UNL     1      35.766  -3.231  16.748  0.00  0.00    +0.000 C 
ATOM     14  C   UNL     1      36.418  -1.640  18.466  0.00  0.00    +0.000 C 
ENDBRANCH   8  11
BRANCH   5  16
ATOM     15  C   UNL     1      38.101   0.603  11.731  0.00  0.00    +0.000 C 
ATOM     16  O   UNL     1      38.128   1.147  13.037  0.00  0.00    +0.000 OA
ENDBRANCH   5  16
ENDBRANCH   2  10
ENDBRANCH   1   3
BRANCH   1  17
ATOM     17  O   UNL     1      39.092   4.728  16.544  0.00  0.00    +0.000 OA
BRANCH  17  18
ATOM     18  C   UNL     1      39.274   5.229  17.812  0.00  0.00    +0.000 C 
ATOM     19  O   UNL     1      38.907   4.537  18.763  0.00  0.00    +0.000 OA
BRANCH  18  20
ATOM     20  C   UNL     1      39.905   6.578  17.890  0.00  0.00    +0.000 C 
BRANCH  20  21
ATOM     21  C   UNL     1      41.184   6.540  18.613  0.00  0.00    +0.000 A 
ATOM     22  C   UNL     1      41.248   6.232  19.956  0.00  0.00    +0.000 A 
ATOM     23  C   UNL     1      42.455   6.207  20.640  0.00  0.00    +0.000 A 
ATOM     24  C   UNL     1      43.633   6.497  19.971  0.00  0.00    +0.000 A 
ATOM     25  C   UNL     1      43.576   6.811  18.613  0.00  0.00    +0.000 A 
ATOM     26  C   UNL     1      42.353   6.827  17.957  0.00  0.00    +0.000 A 
ENDBRANCH  20  21
BRANCH  20  27
ATOM     27  C   UNL     1      38.921   7.421  18.648  0.00  0.00    +0.000 A 
ATOM     28  C   UNL     1      39.052   7.718  19.964  0.00  0.00    +0.000 A 
ATOM     29  C   UNL     1      38.125   8.489  20.616  0.00  0.00    +0.000 A 
ATOM     30  C   UNL     1      37.028   8.969  19.892  0.00  0.00    +0.000 A 
ATOM     31  C   UNL     1      36.866   8.687  18.562  0.00  0.00    +0.000 A 
ATOM     32  C   UNL     1      37.831   7.908  17.963  0.00  0.00    +0.000 A 
ENDBRANCH  20  27
ENDBRANCH  18  20
ENDBRANCH  17  18
ENDBRANCH   1  17
TORSDOF 9
ENDMDL
MODEL 5
REMARK VINA RESULT:      -7.0      2.356      8.265
REMARK  Name = 
REMARK  9 active torsions:
REMARK  status: ('A' for Active; 'I' for Inactive)
REMARK    1  A    between atoms: O_2  and  C_3
REMARK    2  A    between atoms: C_6  and  C_7
REMARK    3  A    between atoms: C_12  and  N_13
REMARK    4  A    between atoms: C_14  and  C_16
REMARK    5  A    between atoms: C_16  and  O_17
REMARK    6  A    between atoms: O_17  and  C_18
REMARK    7  A    between atoms: C_18  and  C_20
REMARK    8  A    between atoms: C_20  and  C_21
REMARK    9  A    between atoms: C_20  and  C_27
REMARK                            x       y       z     vdW  Elec       q    Type
REMARK                         _______ _______ _______ _____ _____    ______ ____
ROOT
ATOM      1  C   UNL     1      39.303   2.662  14.659  0.00  0.00    +0.000 C 
ENDROOT
BRANCH   1   3
ATOM      2  N   UNL     1      39.388   4.970  15.531  0.00  0.00    +0.000 NA
ATOM      3  C   UNL     1      38.853   3.682  15.619  0.00  0.00    +0.000 C 
ATOM      4  O   UNL     1      38.019   3.419  16.494  0.00  0.00    +0.000 OA
BRANCH   2  10
ATOM      5  C   UNL     1      38.069   6.965  15.966  0.00  0.00    +0.000 A 
ATOM      6  C   UNL     1      37.741   8.041  16.761  0.00  0.00    +0.000 A 
ATOM      7  C   UNL     1      38.366   8.288  17.962  0.00  0.00    +0.000 A 
ATOM      8  C   UNL     1      39.369   7.396  18.365  0.00  0.00    +0.000 A 
ATOM      9  C   UNL     1      39.679   6.333  17.560  0.00  0.00    +0.000 A 
ATOM     10  C   UNL     1      39.073   6.069  16.364  0.00  0.00    +0.000 A 
BRANCH   8  11
ATOM     11  C   UNL     1      40.014   7.701  19.662  0.00  0.00    +0.000 C 
ATOM     12  C   UNL     1      40.997   8.847  19.587  0.00  0.00    +0.000 C 
ATOM     13  C   UNL     1      38.910   7.973  20.651  0.00  0.00    +0.000 C 
ATOM     14  C   UNL     1      40.738   6.447  20.166  0.00  0.00    +0.000 C 
ENDBRANCH   8  11
BRANCH   5  16
ATOM     15  C   UNL     1      36.678   7.737  14.178  0.00  0.00    +0.000 C 
ATOM     16  O   UNL     1      37.449   6.694  14.745  0.00  0.00    +0.000 OA
ENDBRANCH   5  16
ENDBRANCH   2  10
ENDBRANCH   1   3
BRANCH   1  17
ATOM     17  O   UNL     1      39.084   1.347  14.976  0.00  0.00    +0.000 OA
BRANCH  17  18
ATOM     18  C   UNL     1      38.852   0.274  14.146  0.00  0.00    +0.000 C 
ATOM     19  O   UNL     1      39.738  -0.040  13.350  0.00  0.00    +0.000 OA
BRANCH  18  20
ATOM     20  C   UNL     1      37.529  -0.394  14.308  0.00  0.00    +0.000 C 
BRANCH  20  21
ATOM     21  C   UNL     1      36.568   0.465  15.013  0.00  0.00    +0.000 A 
ATOM     22  C   UNL     1      36.270   0.277  16.346  0.00  0.00    +0.000 A 
ATOM     23  C   UNL     1      35.354   1.083  17.008  0.00  0.00    +0.000 A 
ATOM     24  C   UNL     1      34.714   2.105  16.325  0.00  0.00    +0.000 A 
ATOM     25  C   UNL     1      35.010   2.300  14.976  0.00  0.00    +0.000 A 
ATOM     26  C   UNL     1      35.931   1.478  14.342  0.00  0.00    +0.000 A 
ENDBRANCH  20  21
BRANCH  20  27
ATOM     27  C   UNL     1      37.812  -1.616  15.133  0.00  0.00    +0.000 A 
ATOM     28  C   UNL     1      38.753  -1.656  16.108  0.00  0.00    +0.000 A 
ATOM     29  C   UNL     1      38.980  -2.797  16.833  0.00  0.00    +0.000 A 
ATOM     30  C   UNL     1      38.215  -3.934  16.545  0.00  0.00    +0.000 A 
ATOM     31  C   UNL     1      37.257  -3.927  15.567  0.00  0.00    +0.000 A 
ATOM     32  C   UNL     1      37.076  -2.750  14.874  0.00  0.00    +0.000 A 
ENDBRANCH  20  27
ENDBRANCH  18  20
ENDBRANCH  17  18
ENDBRANCH   1  17
TORSDOF 9
ENDMDL
MODEL 6
REMARK VINA RESULT:      -6.9      1.867      3.777
REMARK  Name = 
REMARK  9 active torsions:
REMARK  status: ('A' for Active; 'I' for Inactive)
REMARK    1  A    between atoms: O_2  and  C_3
REMARK    2  A    between atoms: C_6  and  C_7
REMARK    3  A    between atoms: C_12  and  N_13
REMARK    4  A    between atoms: C_14  and  C_16
REMARK    5  A    between atoms: C_16  and  O_17
REMARK    6  A    between atoms: O_17  and  C_18
REMARK    7  A    between atoms: C_18  and  C_20
REMARK    8  A    between atoms: C_20  and  C_21
REMARK    9  A    between atoms: C_20  and  C_27
REMARK                            x       y       z     vdW  Elec       q    Type
REMARK                         _______ _______ _______ _____ _____    ______ ____
ROOT
ATOM      1  C   UNL     1      35.653   1.480  16.069  0.00  0.00    +0.000 C 
ENDROOT
BRANCH   1   3
ATOM      2  N   UNL     1      37.612  -0.001  16.315  0.00  0.00    +0.000 NA
ATOM      3  C   UNL     1      36.508   0.399  15.557  0.00  0.00    +0.000 C 
ATOM      4  O   UNL     1      36.269  -0.155  14.476  0.00  0.00    +0.000 OA
BRANCH   2  10
ATOM      5  C   UNL     1      38.509  -2.229  16.687  0.00  0.00    +0.000 A 
ATOM      6  C   UNL     1      39.397  -3.236  16.377  0.00  0.00    +0.000 A 
ATOM      7  C   UNL     1      40.336  -3.110  15.379  0.00  0.00    +0.000 A 
ATOM      8  C   UNL     1      40.368  -1.902  14.669  0.00  0.00    +0.000 A 
ATOM      9  C   UNL     1      39.477  -0.915  14.993  0.00  0.00    +0.000 A 
ATOM     10  C   UNL     1      38.536  -1.018  15.979  0.00  0.00    +0.000 A 
BRANCH   8  11
ATOM     11  C   UNL     1      41.394  -1.811  13.606  0.00  0.00    +0.000 C 
ATOM     12  C   UNL     1      42.652  -1.098  14.048  0.00  0.00    +0.000 C 
ATOM     13  C   UNL     1      41.679  -3.217  13.146  0.00  0.00    +0.000 C 
ATOM     14  C   UNL     1      40.797  -1.079  12.398  0.00  0.00    +0.000 C 
ENDBRANCH   8  11
BRANCH   5  16
ATOM     15  C   UNL     1      38.020  -2.329  19.027  0.00  0.00    +0.000 C 
ATOM     16  O   UNL     1      37.547  -2.335  17.693  0.00  0.00    +0.000 OA
ENDBRANCH   5  16
ENDBRANCH   2  10
ENDBRANCH   1   3
BRANCH   1  17
ATOM     17  O   UNL     1      36.094   2.769  15.918  0.00  0.00    +0.000 OA
BRANCH  17  18
ATOM     18  C   UNL     1      37.143   3.412  16.534  0.00  0.00    +0.000 C 
ATOM     19  O   UNL     1      37.433   3.072  17.682  0.00  0.00    +0.000 OA
BRANCH  18  20
ATOM     20  C   UNL     1      37.818   4.469  15.726  0.00  0.00    +0.000 C 
BRANCH  20  21
ATOM     21  C   UNL     1      38.522   3.901  14.568  0.00  0.00    +0.000 A 
ATOM     22  C   UNL     1      39.364   2.816  14.693  0.00  0.00    +0.000 A 
ATOM     23  C   UNL     1      40.037   2.287  13.600  0.00  0.00    +0.000 A 
ATOM     24  C   UNL     1      39.870   2.854  12.347  0.00  0.00    +0.000 A 
ATOM     25  C   UNL     1      39.021   3.952  12.213  0.00  0.00    +0.000 A 
ATOM     26  C   UNL     1      38.361   4.457  13.325  0.00  0.00    +0.000 A 
ENDBRANCH  20  21
BRANCH  20  27
ATOM     27  C   UNL     1      38.809   5.097  16.662  0.00  0.00    +0.000 A 
ATOM     28  C   UNL     1      40.021   5.555  16.266  0.00  0.00    +0.000 A 
ATOM     29  C   UNL     1      40.897   6.118  17.158  0.00  0.00    +0.000 A 
ATOM     30  C   UNL     1      40.512   6.212  18.501  0.00  0.00    +0.000 A 
ATOM     31  C   UNL     1      39.295   5.758  18.934  0.00  0.00    +0.000 A 
ATOM     32  C   UNL     1      38.460   5.204  17.989  0.00  0.00    +0.000 A 
ENDBRANCH  20  27
ENDBRANCH  18  20
ENDBRANCH  17  18
ENDBRANCH   1  17
TORSDOF 9
ENDMDL
MODEL 7
REMARK VINA RESULT:      -6.9      2.512      4.114
REMARK  Name = 
REMARK  9 active torsions:
REMARK  status: ('A' for Active; 'I' for Inactive)
REMARK    1  A    between atoms: O_2  and  C_3
REMARK    2  A    between atoms: C_6  and  C_7
REMARK    3  A    between atoms: C_12  and  N_13
REMARK    4  A    between atoms: C_14  and  C_16
REMARK    5  A    between atoms: C_16  and  O_17
REMARK    6  A    between atoms: O_17  and  C_18
REMARK    7  A    between atoms: C_18  and  C_20
REMARK    8  A    between atoms: C_20  and  C_21
REMARK    9  A    between atoms: C_20  and  C_27
REMARK                            x       y       z     vdW  Elec       q    Type
REMARK                         _______ _______ _______ _____ _____    ______ ____
ROOT
ATOM      1  C   UNL     1      35.024   0.834  17.004  0.00  0.00    +0.000 C 
ENDROOT
BRANCH   1   3
ATOM      2  N   UNL     1      37.181  -0.364  16.937  0.00  0.00    +0.000 NA
ATOM      3  C   UNL     1      35.917  -0.153  16.379  0.00  0.00    +0.000 C 
ATOM      4  O   UNL     1      35.572  -0.791  15.376  0.00  0.00    +0.000 OA
BRANCH   2  10
ATOM      5  C   UNL     1      38.329  -2.497  17.125  0.00  0.00    +0.000 A 
ATOM      6  C   UNL     1      39.278  -3.397  16.689  0.00  0.00    +0.000 A 
ATOM      7  C   UNL     1      40.095  -3.141  15.612  0.00  0.00    +0.000 A 
ATOM      8  C   UNL     1      39.935  -1.914  14.955  0.00  0.00    +0.000 A 
ATOM      9  C   UNL     1      38.987  -1.035  15.405  0.00  0.00    +0.000 A 
ATOM     10  C   UNL     1      38.165  -1.267  16.471  0.00  0.00    +0.000 A 
BRANCH   8  11
ATOM     11  C   UNL     1      40.836  -1.682  13.804  0.00  0.00    +0.000 C 
ATOM     12  C   UNL     1      41.925  -0.673  14.089  0.00  0.00    +0.000 C 
ATOM     13  C   UNL     1      41.402  -3.021  13.409  0.00  0.00    +0.000 C 
ATOM     14  C   UNL     1      40.005  -1.202  12.609  0.00  0.00    +0.000 C 
ENDBRANCH   8  11
BRANCH   5  16
ATOM     15  C   UNL     1      38.083  -2.698  19.498  0.00  0.00    +0.000 C 
ATOM     16  O   UNL     1      37.488  -2.736  18.214  0.00  0.00    +0.000 OA
ENDBRANCH   5  16
ENDBRANCH   2  10
ENDBRANCH   1   3
BRANCH   1  17
ATOM     17  O   UNL     1      34.918   2.065  16.412  0.00  0.00    +0.000 OA
BRANCH  17  18
ATOM     18  C   UNL     1      35.910   2.938  16.027  0.00  0.00    +0.000 C 
ATOM     19  O   UNL     1      36.624   3.422  16.906  0.00  0.00    +0.000 OA
BRANCH  18  20
ATOM     20  C   UNL     1      36.004   3.205  14.562  0.00  0.00    +0.000 C 
BRANCH  20  21
ATOM     21  C   UNL     1      37.344   2.901  14.040  0.00  0.00    +0.000 A 
ATOM     22  C   UNL     1      38.396   2.595  14.877  0.00  0.00    +0.000 A 
ATOM     23  C   UNL     1      39.663   2.319  14.383  0.00  0.00    +0.000 A 
ATOM     24  C   UNL     1      39.892   2.348  13.016  0.00  0.00    +0.000 A 
ATOM     25  C   UNL     1      38.832   2.657  12.163  0.00  0.00    +0.000 A 
ATOM     26  C   UNL     1      37.577   2.928  12.689  0.00  0.00    +0.000 A 
ENDBRANCH  20  21
BRANCH  20  27
ATOM     27  C   UNL     1      35.727   4.673  14.418  0.00  0.00    +0.000 A 
ATOM     28  C   UNL     1      34.487   5.180  14.218  0.00  0.00    +0.000 A 
ATOM     29  C   UNL     1      34.281   6.530  14.087  0.00  0.00    +0.000 A 
ATOM     30  C   UNL     1      35.388   7.383  14.165  0.00  0.00    +0.000 A 
ATOM     31  C   UNL     1      36.654   6.903  14.367  0.00  0.00    +0.000 A 
ATOM     32  C   UNL     1      36.795   5.538  14.491  0.00  0.00    +0.000 A 
ENDBRANCH  20  27
ENDBRANCH  18  20
ENDBRANCH  17  18
ENDBRANCH   1  17
TORSDOF 9
ENDMDL
MODEL 8
REMARK VINA RESULT:      -6.8      3.264      7.345
REMARK  Name = 
REMARK  9 active torsions:
REMARK  status: ('A' for Active; 'I' for Inactive)
REMARK    1  A    between atoms: O_2  and  C_3
REMARK    2  A    between atoms: C_6  and  C_7
REMARK    3  A    between atoms: C_12  and  N_13
REMARK    4  A    between atoms: C_14  and  C_16
REMARK    5  A    between atoms: C_16  and  O_17
REMARK    6  A    between atoms: O_17  and  C_18
REMARK    7  A    between atoms: C_18  and  C_20
REMARK    8  A    between atoms: C_20  and  C_21
REMARK    9  A    between atoms: C_20  and  C_27
REMARK                            x       y       z     vdW  Elec       q    Type
REMARK                         _______ _______ _______ _____ _____    ______ ____
ROOT
ATOM      1  C   UNL     1      38.789   1.659  11.315  0.00  0.00    +0.000 C 
ENDROOT
BRANCH   1   3
ATOM      2  N   UNL     1      37.808   1.545  13.577  0.00  0.00    +0.000 NA
ATOM      3  C   UNL     1      37.671   1.313  12.206  0.00  0.00    +0.000 C 
ATOM      4  O   UNL     1      36.623   0.825  11.765  0.00  0.00    +0.000 OA
BRANCH   2  10
ATOM      5  C   UNL     1      36.059   2.329  15.072  0.00  0.00    +0.000 A 
ATOM      6  C   UNL     1      35.108   2.092  16.041  0.00  0.00    +0.000 A 
ATOM      7  C   UNL     1      34.882   0.838  16.561  0.00  0.00    +0.000 A 
ATOM      8  C   UNL     1      35.660  -0.217  16.068  0.00  0.00    +0.000 A 
ATOM      9  C   UNL     1      36.599   0.040  15.105  0.00  0.00    +0.000 A 
ATOM     10  C   UNL     1      36.841   1.276  14.575  0.00  0.00    +0.000 A 
BRANCH   8  11
ATOM     11  C   UNL     1      35.383  -1.547  16.656  0.00  0.00    +0.000 C 
ATOM     12  C   UNL     1      34.092  -1.597  17.441  0.00  0.00    +0.000 C 
ATOM     13  C   UNL     1      35.389  -2.540  15.524  0.00  0.00    +0.000 C 
ATOM     14  C   UNL     1      36.547  -1.939  17.573  0.00  0.00    +0.000 C 
ENDBRANCH   8  11
BRANCH   5  16
ATOM     15  C   UNL     1      35.195   4.462  14.415  0.00  0.00    +0.000 C 
ATOM     16  O   UNL     1      36.305   3.591  14.529  0.00  0.00    +0.000 OA
ENDBRANCH   5  16
ENDBRANCH   2  10
ENDBRANCH   1   3
BRANCH   1  17
ATOM     17  O   UNL     1      39.305   0.666  10.525  0.00  0.00    +0.000 OA
BRANCH  17  18
ATOM     18  C   UNL     1      40.245  -0.293  10.827  0.00  0.00    +0.000 C 
ATOM     19  O   UNL     1      41.433   0.016  10.733  0.00  0.00    +0.000 OA
BRANCH  18  20
ATOM     20  C   UNL     1      39.705  -1.621  11.239  0.00  0.00    +0.000 C 
BRANCH  20  21
ATOM     21  C   UNL     1      39.689  -1.772  12.701  0.00  0.00    +0.000 A 
ATOM     22  C   UNL     1      38.903  -2.718  13.323  0.00  0.00    +0.000 A 
ATOM     23  C   UNL     1      38.881  -2.853  14.705  0.00  0.00    +0.000 A 
ATOM     24  C   UNL     1      39.664  -2.023  15.491  0.00  0.00    +0.000 A 
ATOM     25  C   UNL     1      40.462  -1.063  14.868  0.00  0.00    +0.000 A 
ATOM     26  C   UNL     1      40.461  -0.953  13.484  0.00  0.00    +0.000 A 
ENDBRANCH  20  21
BRANCH  20  27
ATOM     27  C   UNL     1      40.645  -2.624  10.637  0.00  0.00    +0.000 A 
ATOM     28  C   UNL     1      41.566  -3.308  11.358  0.00  0.00    +0.000 A 
ATOM     29  C   UNL     1      42.408  -4.213  10.764  0.00  0.00    +0.000 A 
ATOM     30  C   UNL     1      42.297  -4.420   9.384  0.00  0.00    +0.000 A 
ATOM     31  C   UNL     1      41.377  -3.746   8.627  0.00  0.00    +0.000 A 
ATOM     32  C   UNL     1      40.560  -2.851   9.282  0.00  0.00    +0.000 A 
ENDBRANCH  20  27
ENDBRANCH  18  20
ENDBRANCH  17  18
ENDBRANCH   1  17
TORSDOF 9
ENDMDL
MODEL 9
REMARK VINA RESULT:      -6.8      3.076      6.264
REMARK  Name = 
REMARK  9 active torsions:
REMARK  status: ('A' for Active; 'I' for Inactive)
REMARK    1  A    between atoms: O_2  and  C_3
REMARK    2  A    between atoms: C_6  and  C_7
REMARK    3  A    between atoms: C_12  and  N_13
REMARK    4  A    between atoms: C_14  and  C_16
REMARK    5  A    between atoms: C_16  and  O_17
REMARK    6  A    between atoms: O_17  and  C_18
REMARK    7  A    between atoms: C_18  and  C_20
REMARK    8  A    between atoms: C_20  and  C_21
REMARK    9  A    between atoms: C_20  and  C_27
REMARK                            x       y       z     vdW  Elec       q    Type
REMARK                         _______ _______ _______ _____ _____    ______ ____
ROOT
ATOM      1  C   UNL     1      40.121  -3.038  15.535  0.00  0.00    +0.000 C 
ENDROOT
BRANCH   1   3
ATOM      2  N   UNL     1      38.589  -1.327  16.441  0.00  0.00    +0.000 NA
ATOM      3  C   UNL     1      38.809  -2.373  15.539  0.00  0.00    +0.000 C 
ATOM      4  O   UNL     1      37.907  -2.721  14.767  0.00  0.00    +0.000 OA
BRANCH   2  10
ATOM      5  C   UNL     1      36.431  -0.999  17.509  0.00  0.00    +0.000 A 
ATOM      6  C   UNL     1      35.263  -0.286  17.669  0.00  0.00    +0.000 A 
ATOM      7  C   UNL     1      34.989   0.852  16.945  0.00  0.00    +0.000 A 
ATOM      8  C   UNL     1      35.951   1.276  16.019  0.00  0.00    +0.000 A 
ATOM      9  C   UNL     1      37.104   0.553  15.876  0.00  0.00    +0.000 A 
ATOM     10  C   UNL     1      37.397  -0.579  16.583  0.00  0.00    +0.000 A 
BRANCH   8  11
ATOM     11  C   UNL     1      35.614   2.504  15.262  0.00  0.00    +0.000 C 
ATOM     12  C   UNL     1      34.228   3.029  15.560  0.00  0.00    +0.000 C 
ATOM     13  C   UNL     1      36.678   3.522  15.576  0.00  0.00    +0.000 C 
ATOM     14  C   UNL     1      35.731   2.212  13.762  0.00  0.00    +0.000 C 
ENDBRANCH   8  11
BRANCH   5  16
ATOM     15  C   UNL     1      37.222  -1.972  19.548  0.00  0.00    +0.000 C 
ATOM     16  O   UNL     1      36.731  -2.155  18.233  0.00  0.00    +0.000 OA
ENDBRANCH   5  16
ENDBRANCH   2  10
ENDBRANCH   1   3
BRANCH   1  17
ATOM     17  O   UNL     1      40.806  -3.091  14.349  0.00  0.00    +0.000 OA
BRANCH  17  18
ATOM     18  C   UNL     1      41.800  -2.266  13.876  0.00  0.00    +0.000 C 
ATOM     19  O   UNL     1      42.604  -2.737  13.071  0.00  0.00    +0.000 OA
BRANCH  18  20
ATOM     20  C   UNL     1      41.790  -0.871  14.405  0.00  0.00    +0.000 C 
BRANCH  20  21
ATOM     21  C   UNL     1      40.826  -0.024  13.688  0.00  0.00    +0.000 A 
ATOM     22  C   UNL     1      40.316  -0.389  12.460  0.00  0.00    +0.000 A 
ATOM     23  C   UNL     1      39.414   0.417  11.778  0.00  0.00    +0.000 A 
ATOM     24  C   UNL     1      39.009   1.620  12.332  0.00  0.00    +0.000 A 
ATOM     25  C   UNL     1      39.522   1.996  13.574  0.00  0.00    +0.000 A 
ATOM     26  C   UNL     1      40.422   1.168  14.230  0.00  0.00    +0.000 A 
ENDBRANCH  20  21
BRANCH  20  27
ATOM     27  C   UNL     1      43.182  -0.360  14.174  0.00  0.00    +0.000 A 
ATOM     28  C   UNL     1      43.548   0.331  13.067  0.00  0.00    +0.000 A 
ATOM     29  C   UNL     1      44.834   0.775  12.897  0.00  0.00    +0.000 A 
ATOM     30  C   UNL     1      45.773   0.498  13.898  0.00  0.00    +0.000 A 
ATOM     31  C   UNL     1      45.436  -0.197  15.028  0.00  0.00    +0.000 A 
ATOM     32  C   UNL     1      44.128  -0.615  15.140  0.00  0.00    +0.000 A 
ENDBRANCH  20  27
ENDBRANCH  18  20
ENDBRANCH  17  18
ENDBRANCH   1  17
TORSDOF 9
ENDMDL
MODEL 10
REMARK VINA RESULT:      -6.8      1.870      7.841
REMARK  Name = 
REMARK  9 active torsions:
REMARK  status: ('A' for Active; 'I' for Inactive)
REMARK    1  A    between atoms: O_2  and  C_3
REMARK    2  A    between atoms: C_6  and  C_7
REMARK    3  A    between atoms: C_12  and  N_13
REMARK    4  A    between atoms: C_14  and  C_16
REMARK    5  A    between atoms: C_16  and  O_17
REMARK    6  A    between atoms: O_17  and  C_18
REMARK    7  A    between atoms: C_18  and  C_20
REMARK    8  A    between atoms: C_20  and  C_21
REMARK    9  A    between atoms: C_20  and  C_27
REMARK                            x       y       z     vdW  Elec       q    Type
REMARK                         _______ _______ _______ _____ _____    ______ ____
ROOT
ATOM      1  C   UNL     1      35.823   1.419  15.371  0.00  0.00    +0.000 C 
ENDROOT
BRANCH   1   3
ATOM      2  N   UNL     1      37.926   2.691  15.600  0.00  0.00    +0.000 NA
ATOM      3  C   UNL     1      36.548   2.698  15.364  0.00  0.00    +0.000 C 
ATOM      4  O   UNL     1      35.964   3.769  15.158  0.00  0.00    +0.000 OA
BRANCH   2  10
ATOM      5  C   UNL     1      39.439   4.210  14.455  0.00  0.00    +0.000 A 
ATOM      6  C   UNL     1      40.272   5.308  14.457  0.00  0.00    +0.000 A 
ATOM      7  C   UNL     1      40.495   6.061  15.586  0.00  0.00    +0.000 A 
ATOM      8  C   UNL     1      39.838   5.675  16.762  0.00  0.00    +0.000 A 
ATOM      9  C   UNL     1      39.015   4.582  16.738  0.00  0.00    +0.000 A 
ATOM     10  C   UNL     1      38.779   3.819  15.630  0.00  0.00    +0.000 A 
BRANCH   8  11
ATOM     11  C   UNL     1      40.109   6.515  17.952  0.00  0.00    +0.000 C 
ATOM     12  C   UNL     1      39.353   6.070  19.183  0.00  0.00    +0.000 C 
ATOM     13  C   UNL     1      41.599   6.499  18.173  0.00  0.00    +0.000 C 
ATOM     14  C   UNL     1      39.740   7.968  17.631  0.00  0.00    +0.000 C 
ENDBRANCH   8  11
BRANCH   5  16
ATOM     15  C   UNL     1      40.232   2.556  12.919  0.00  0.00    +0.000 C 
ATOM     16  O   UNL     1      39.196   3.432  13.322  0.00  0.00    +0.000 OA
ENDBRANCH   5  16
ENDBRANCH   2  10
ENDBRANCH   1   3
BRANCH   1  17
ATOM     17  O   UNL     1      36.530   0.286  15.680  0.00  0.00    +0.000 OA
BRANCH  17  18
ATOM     18  C   UNL     1      36.818  -0.256  16.912  0.00  0.00    +0.000 C 
ATOM     19  O   UNL     1      36.638   0.446  17.907  0.00  0.00    +0.000 OA
BRANCH  18  20
ATOM     20  C   UNL     1      37.326  -1.659  16.897  0.00  0.00    +0.000 C 
BRANCH  20  21
ATOM     21  C   UNL     1      38.569  -1.779  16.121  0.00  0.00    +0.000 A 
ATOM     22  C   UNL     1      39.356  -2.910  16.186  0.00  0.00    +0.000 A 
ATOM     23  C   UNL     1      40.535  -3.018  15.461  0.00  0.00    +0.000 A 
ATOM     24  C   UNL     1      40.943  -1.972  14.648  0.00  0.00    +0.000 A 
ATOM     25  C   UNL     1      40.152  -0.826  14.579  0.00  0.00    +0.000 A 
ATOM     26  C   UNL     1      38.979  -0.748  15.316  0.00  0.00    +0.000 A 
ENDBRANCH  20  21
BRANCH  20  27
ATOM     27  C   UNL     1      36.239  -2.457  16.238  0.00  0.00    +0.000 A 
ATOM     28  C   UNL     1      34.963  -2.496  16.692  0.00  0.00    +0.000 A 
ATOM     29  C   UNL     1      34.004  -3.243  16.059  0.00  0.00    +0.000 A 
ATOM     30  C   UNL     1      34.370  -3.973  14.922  0.00  0.00    +0.000 A 
ATOM     31  C   UNL     1      35.650  -3.955  14.437  0.00  0.00    +0.000 A 
ATOM     32  C   UNL     1      36.568  -3.185  15.117  0.00  0.00    +0.000 A 
ENDBRANCH  20  27
ENDBRANCH  18  20
ENDBRANCH  17  18
ENDBRANCH   1  17
TORSDOF 9
ENDMDL
