MODEL 1
REMARK VINA RESULT:      -8.5      0.000      0.000
REMARK  Name = 
REMARK  8 active torsions:
REMARK  status: ('A' for Active; 'I' for Inactive)
REMARK    1  A    between atoms: C_2  and  C_3
REMARK    2  A    between atoms: C_3  and  C_5
REMARK    3  A    between atoms: C_8  and  N_9
REMARK    4  A    between atoms: C_10  and  C_12
REMARK    5  A    between atoms: C_12  and  O_13
REMARK    6  A    between atoms: O_13  and  C_14
REMARK    7  A    between atoms: C_14  and  C_16
REMARK    8  A    between atoms: C_21  and  C_22
REMARK                            x       y       z     vdW  Elec       q    Type
REMARK                         _______ _______ _______ _____ _____    ______ ____
ROOT
ATOM      1  O   UNL     1      37.346   2.280  15.829  0.00  0.00    +0.000 OA
ENDROOT
BRANCH   1   2
ATOM      2  C   UNL     1      36.403   1.231  15.903  0.00  0.00    +0.000 C 
ATOM      3  O   UNL     1      35.587   1.210  14.962  0.00  0.00    +0.000 OA
BRANCH   2   4
ATOM      4  C   UNL     1      36.439   0.289  17.012  0.00  0.00    +0.000 A 
ATOM      5  C   UNL     1      35.743   0.614  18.199  0.00  0.00    +0.000 A 
ATOM      6  C   UNL     1      35.791  -0.235  19.279  0.00  0.00    +0.000 A 
ATOM      7  C   UNL     1      36.518  -1.395  19.193  0.00  0.00    +0.000 A 
ATOM      8  C   UNL     1      37.182  -1.701  18.049  0.00  0.00    +0.000 A 
ATOM      9  C   UNL     1      37.157  -0.856  16.918  0.00  0.00    +0.000 A 
BRANCH   9  10
ATOM     10  C   UNL     1      37.860  -1.279  15.718  0.00  0.00    +0.000 A 
ATOM     11  C   UNL     1      37.176  -2.047  14.763  0.00  0.00    +0.000 A 
ATOM     12  C   UNL     1      37.768  -2.451  13.587  0.00  0.00    +0.000 A 
ATOM     13  C   UNL     1      39.072  -2.114  13.289  0.00  0.00    +0.000 A 
ATOM     14  C   UNL     1      39.704  -2.557  12.012  0.00  0.00    +0.000 C 
ATOM     15  C   UNL     1      39.762  -1.358  14.217  0.00  0.00    +0.000 A 
ATOM     16  C   UNL     1      39.159  -0.961  15.391  0.00  0.00    +0.000 A 
ENDBRANCH   9  10
ENDBRANCH   2   4
ENDBRANCH   1   2
BRANCH   1  17
ATOM     17  C   UNL     1      36.966   3.618  16.077  0.00  0.00    +0.000 C 
BRANCH  17  19
ATOM     18  N   UNL     1      38.685   5.400  16.733  0.00  0.00    +0.000 NA
ATOM     19  C   UNL     1      37.925   4.210  16.992  0.00  0.00    +0.000 C 
ATOM     20  O   UNL     1      38.156   3.687  18.123  0.00  0.00    +0.000 OA
BRANCH  18  24
ATOM     21  C   UNL     1      41.391   6.902  19.630  0.00  0.00    +0.000 A 
ATOM     22  C   UNL     1      41.836   6.608  18.359  0.00  0.00    +0.000 A 
ATOM     23  C   UNL     1      40.938   6.109  17.399  0.00  0.00    +0.000 A 
ATOM     24  C   UNL     1      39.612   5.908  17.706  0.00  0.00    +0.000 A 
ATOM     25  C   UNL     1      39.227   6.219  18.986  0.00  0.00    +0.000 A 
ATOM     26  C   UNL     1      40.124   6.717  19.948  0.00  0.00    +0.000 A 
BRANCH  21  27
ATOM     27  C   UNL     1      42.517   7.455  20.602  0.00  0.00    +0.000 C 
ATOM     28  C   UNL     1      43.787   7.502  19.539  0.00  0.00    +0.000 C 
BRANCH  27  30
ATOM     29  C   UNL     1      43.733   6.325  22.401  0.00  0.00    +0.000 C 
ATOM     30  C   UNL     1      42.956   5.932  21.137  0.00  0.00    +0.000 C 
ENDBRANCH  27  30
ENDBRANCH  21  27
ENDBRANCH  18  24
ENDBRANCH  17  19
ENDBRANCH   1  17
TORSDOF 8
ENDMDL
MODEL 2
REMARK VINA RESULT:      -8.3      2.202      2.785
REMARK  Name = 
REMARK  8 active torsions:
REMARK  status: ('A' for Active; 'I' for Inactive)
REMARK    1  A    between atoms: C_2  and  C_3
REMARK    2  A    between atoms: C_3  and  C_5
REMARK    3  A    between atoms: C_8  and  N_9
REMARK    4  A    between atoms: C_10  and  C_12
REMARK    5  A    between atoms: C_12  and  O_13
REMARK    6  A    between atoms: O_13  and  C_14
REMARK    7  A    between atoms: C_14  and  C_16
REMARK    8  A    between atoms: C_21  and  C_22
REMARK                            x       y       z     vdW  Elec       q    Type
REMARK                         _______ _______ _______ _____ _____    ______ ____
ROOT
ATOM      1  O   UNL     1      37.549   0.765  15.788  0.00  0.00    +0.000 OA
ENDROOT
BRANCH   1   2
ATOM      2  C   UNL     1      36.806  -0.351  16.232  0.00  0.00    +0.000 C 
ATOM      3  O   UNL     1      35.660  -0.426  15.751  0.00  0.00    +0.000 OA
BRANCH   2   4
ATOM      4  C   UNL     1      37.391  -1.295  17.173  0.00  0.00    +0.000 A 
ATOM      5  C   UNL     1      36.956  -1.267  18.518  0.00  0.00    +0.000 A 
ATOM      6  C   UNL     1      37.518  -2.118  19.440  0.00  0.00    +0.000 A 
ATOM      7  C   UNL     1      38.502  -2.988  19.044  0.00  0.00    +0.000 A 
ATOM      8  C   UNL     1      38.914  -3.008  17.750  0.00  0.00    +0.000 A 
ATOM      9  C   UNL     1      38.361  -2.153  16.772  0.00  0.00    +0.000 A 
BRANCH   9  10
ATOM     10  C   UNL     1      38.827  -2.269  15.401  0.00  0.00    +0.000 A 
ATOM     11  C   UNL     1      38.053  -2.987  14.477  0.00  0.00    +0.000 A 
ATOM     12  C   UNL     1      38.415  -3.107  13.154  0.00  0.00    +0.000 A 
ATOM     13  C   UNL     1      39.566  -2.520  12.670  0.00  0.00    +0.000 A 
ATOM     14  C   UNL     1      39.949  -2.656  11.235  0.00  0.00    +0.000 C 
ATOM     15  C   UNL     1      40.342  -1.809  13.565  0.00  0.00    +0.000 A 
ATOM     16  C   UNL     1      39.969  -1.697  14.888  0.00  0.00    +0.000 A 
ENDBRANCH   9  10
ENDBRANCH   2   4
ENDBRANCH   1   2
BRANCH   1  17
ATOM     17  C   UNL     1      36.913   1.854  15.149  0.00  0.00    +0.000 C 
BRANCH  17  19
ATOM     18  N   UNL     1      38.540   3.558  16.152  0.00  0.00    +0.000 NA
ATOM     19  C   UNL     1      37.219   3.066  15.887  0.00  0.00    +0.000 C 
ATOM     20  O   UNL     1      36.294   3.792  16.360  0.00  0.00    +0.000 OA
BRANCH  18  24
ATOM     21  C   UNL     1      39.132   7.119  18.375  0.00  0.00    +0.000 A 
ATOM     22  C   UNL     1      38.967   7.180  17.007  0.00  0.00    +0.000 A 
ATOM     23  C   UNL     1      38.771   5.999  16.271  0.00  0.00    +0.000 A 
ATOM     24  C   UNL     1      38.740   4.773  16.894  0.00  0.00    +0.000 A 
ATOM     25  C   UNL     1      38.909   4.774  18.256  0.00  0.00    +0.000 A 
ATOM     26  C   UNL     1      39.105   5.954  18.994  0.00  0.00    +0.000 A 
BRANCH  21  27
ATOM     27  C   UNL     1      39.342   8.530  19.068  0.00  0.00    +0.000 C 
ATOM     28  C   UNL     1      38.863   8.146  20.607  0.00  0.00    +0.000 C 
BRANCH  27  30
ATOM     29  C   UNL     1      37.101   8.819  20.009  0.00  0.00    +0.000 C 
ATOM     30  C   UNL     1      37.811   9.075  18.673  0.00  0.00    +0.000 C 
ENDBRANCH  27  30
ENDBRANCH  21  27
ENDBRANCH  18  24
ENDBRANCH  17  19
ENDBRANCH   1  17
TORSDOF 8
ENDMDL
MODEL 3
REMARK VINA RESULT:      -8.2      1.998      2.666
REMARK  Name = 
REMARK  8 active torsions:
REMARK  status: ('A' for Active; 'I' for Inactive)
REMARK    1  A    between atoms: C_2  and  C_3
REMARK    2  A    between atoms: C_3  and  C_5
REMARK    3  A    between atoms: C_8  and  N_9
REMARK    4  A    between atoms: C_10  and  C_12
REMARK    5  A    between atoms: C_12  and  O_13
REMARK    6  A    between atoms: O_13  and  C_14
REMARK    7  A    between atoms: C_14  and  C_16
REMARK    8  A    between atoms: C_21  and  C_22
REMARK                            x       y       z     vdW  Elec       q    Type
REMARK                         _______ _______ _______ _____ _____    ______ ____
ROOT
ATOM      1  O   UNL     1      38.051   1.546  15.398  0.00  0.00    +0.000 OA
ENDROOT
BRANCH   1   2
ATOM      2  C   UNL     1      36.952   0.834  14.870  0.00  0.00    +0.000 C 
ATOM      3  O   UNL     1      36.621   1.183  13.721  0.00  0.00    +0.000 OA
BRANCH   2   4
ATOM      4  C   UNL     1      36.306  -0.208  15.655  0.00  0.00    +0.000 A 
ATOM      5  C   UNL     1      35.163   0.127  16.415  0.00  0.00    +0.000 A 
ATOM      6  C   UNL     1      34.554  -0.824  17.199  0.00  0.00    +0.000 A 
ATOM      7  C   UNL     1      35.067  -2.096  17.237  0.00  0.00    +0.000 A 
ATOM      8  C   UNL     1      36.166  -2.410  16.503  0.00  0.00    +0.000 A 
ATOM      9  C   UNL     1      36.818  -1.463  15.685  0.00  0.00    +0.000 A 
BRANCH   9  10
ATOM     10  C   UNL     1      37.962  -1.893  14.898  0.00  0.00    +0.000 A 
ATOM     11  C   UNL     1      39.230  -1.917  15.496  0.00  0.00    +0.000 A 
ATOM     12  C   UNL     1      40.351  -2.348  14.822  0.00  0.00    +0.000 A 
ATOM     13  C   UNL     1      40.278  -2.782  13.515  0.00  0.00    +0.000 A 
ATOM     14  C   UNL     1      41.498  -3.247  12.793  0.00  0.00    +0.000 C 
ATOM     15  C   UNL     1      39.037  -2.765  12.908  0.00  0.00    +0.000 A 
ATOM     16  C   UNL     1      37.922  -2.331  13.593  0.00  0.00    +0.000 A 
ENDBRANCH   9  10
ENDBRANCH   2   4
ENDBRANCH   1   2
BRANCH   1  17
ATOM     17  C   UNL     1      38.383   2.833  14.918  0.00  0.00    +0.000 C 
BRANCH  17  19
ATOM     18  N   UNL     1      39.150   4.950  16.137  0.00  0.00    +0.000 NA
ATOM     19  C   UNL     1      38.348   3.765  16.030  0.00  0.00    +0.000 C 
ATOM     20  O   UNL     1      37.571   3.579  17.014  0.00  0.00    +0.000 OA
BRANCH  18  24
ATOM     21  C   UNL     1      38.806   7.519  19.492  0.00  0.00    +0.000 A 
ATOM     22  C   UNL     1      39.622   6.409  19.555  0.00  0.00    +0.000 A 
ATOM     23  C   UNL     1      39.735   5.558  18.442  0.00  0.00    +0.000 A 
ATOM     24  C   UNL     1      39.042   5.813  17.281  0.00  0.00    +0.000 A 
ATOM     25  C   UNL     1      38.246   6.931  17.278  0.00  0.00    +0.000 A 
ATOM     26  C   UNL     1      38.131   7.783  18.389  0.00  0.00    +0.000 A 
BRANCH  21  27
ATOM     27  C   UNL     1      38.780   8.383  20.822  0.00  0.00    +0.000 C 
ATOM     28  C   UNL     1      37.775   9.603  20.328  0.00  0.00    +0.000 C 
BRANCH  27  30
ATOM     29  C   UNL     1      39.545  10.679  20.456  0.00  0.00    +0.000 C 
ATOM     30  C   UNL     1      40.139   9.265  20.406  0.00  0.00    +0.000 C 
ENDBRANCH  27  30
ENDBRANCH  21  27
ENDBRANCH  18  24
ENDBRANCH  17  19
ENDBRANCH   1  17
TORSDOF 8
ENDMDL
MODEL 4
REMARK VINA RESULT:      -8.2      2.014      4.051
REMARK  Name = 
REMARK  8 active torsions:
REMARK  status: ('A' for Active; 'I' for Inactive)
REMARK    1  A    between atoms: C_2  and  C_3
REMARK    2  A    between atoms: C_3  and  C_5
REMARK    3  A    between atoms: C_8  and  N_9
REMARK    4  A    between atoms: C_10  and  C_12
REMARK    5  A    between atoms: C_12  and  O_13
REMARK    6  A    between atoms: O_13  and  C_14
REMARK    7  A    between atoms: C_14  and  C_16
REMARK    8  A    between atoms: C_21  and  C_22
REMARK                            x       y       z     vdW  Elec       q    Type
REMARK                         _______ _______ _______ _____ _____    ______ ____
ROOT
ATOM      1  O   UNL     1      38.371   1.532  15.353  0.00  0.00    +0.000 OA
ENDROOT
BRANCH   1   2
ATOM      2  C   UNL     1      38.606   0.537  14.379  0.00  0.00    +0.000 C 
ATOM      3  O   UNL     1      38.039   0.743  13.290  0.00  0.00    +0.000 OA
BRANCH   2   4
ATOM      4  C   UNL     1      39.451  -0.607  14.689  0.00  0.00    +0.000 A 
ATOM      5  C   UNL     1      40.801  -0.583  14.270  0.00  0.00    +0.000 A 
ATOM      6  C   UNL     1      41.615  -1.665  14.511  0.00  0.00    +0.000 A 
ATOM      7  C   UNL     1      41.106  -2.763  15.157  0.00  0.00    +0.000 A 
ATOM      8  C   UNL     1      39.807  -2.777  15.556  0.00  0.00    +0.000 A 
ATOM      9  C   UNL     1      38.940  -1.687  15.329  0.00  0.00    +0.000 A 
BRANCH   9  10
ATOM     10  C   UNL     1      37.577  -1.766  15.828  0.00  0.00    +0.000 A 
ATOM     11  C   UNL     1      37.285  -1.248  17.098  0.00  0.00    +0.000 A 
ATOM     12  C   UNL     1      36.010  -1.256  17.618  0.00  0.00    +0.000 A 
ATOM     13  C   UNL     1      34.950  -1.777  16.906  0.00  0.00    +0.000 A 
ATOM     14  C   UNL     1      33.572  -1.781  17.478  0.00  0.00    +0.000 C 
ATOM     15  C   UNL     1      35.218  -2.293  15.653  0.00  0.00    +0.000 A 
ATOM     16  C   UNL     1      36.499  -2.279  15.143  0.00  0.00    +0.000 A 
ENDBRANCH   9  10
ENDBRANCH   2   4
ENDBRANCH   1   2
BRANCH   1  17
ATOM     17  C   UNL     1      37.733   2.746  15.012  0.00  0.00    +0.000 C 
BRANCH  17  19
ATOM     18  N   UNL     1      38.728   4.839  16.102  0.00  0.00    +0.000 NA
ATOM     19  C   UNL     1      37.887   3.676  16.116  0.00  0.00    +0.000 C 
ATOM     20  O   UNL     1      37.260   3.508  17.204  0.00  0.00    +0.000 OA
BRANCH  18  24
ATOM     21  C   UNL     1      39.006   7.357  19.501  0.00  0.00    +0.000 A 
ATOM     22  C   UNL     1      38.195   7.714  18.444  0.00  0.00    +0.000 A 
ATOM     23  C   UNL     1      38.104   6.878  17.317  0.00  0.00    +0.000 A 
ATOM     24  C   UNL     1      38.813   5.702  17.248  0.00  0.00    +0.000 A 
ATOM     25  C   UNL     1      39.602   5.399  18.329  0.00  0.00    +0.000 A 
ATOM     26  C   UNL     1      39.696   6.233  19.457  0.00  0.00    +0.000 A 
BRANCH  21  27
ATOM     27  C   UNL     1      39.007   8.396  20.700  0.00  0.00    +0.000 C 
ATOM     28  C   UNL     1      37.527   9.097  20.447  0.00  0.00    +0.000 C 
BRANCH  27  30
ATOM     29  C   UNL     1      41.151   9.558  20.495  0.00  0.00    +0.000 C 
ATOM     30  C   UNL     1      39.778   9.586  19.812  0.00  0.00    +0.000 C 
ENDBRANCH  27  30
ENDBRANCH  21  27
ENDBRANCH  18  24
ENDBRANCH  17  19
ENDBRANCH   1  17
TORSDOF 8
ENDMDL
MODEL 5
REMARK VINA RESULT:      -8.2      2.273      3.408
REMARK  Name = 
REMARK  8 active torsions:
REMARK  status: ('A' for Active; 'I' for Inactive)
REMARK    1  A    between atoms: C_2  and  C_3
REMARK    2  A    between atoms: C_3  and  C_5
REMARK    3  A    between atoms: C_8  and  N_9
REMARK    4  A    between atoms: C_10  and  C_12
REMARK    5  A    between atoms: C_12  and  O_13
REMARK    6  A    between atoms: O_13  and  C_14
REMARK    7  A    between atoms: C_14  and  C_16
REMARK    8  A    between atoms: C_21  and  C_22
REMARK                            x       y       z     vdW  Elec       q    Type
REMARK                         _______ _______ _______ _____ _____    ______ ____
ROOT
ATOM      1  O   UNL     1      37.356   0.323  15.712  0.00  0.00    +0.000 OA
ENDROOT
BRANCH   1   2
ATOM      2  C   UNL     1      37.066  -0.813  16.500  0.00  0.00    +0.000 C 
ATOM      3  O   UNL     1      37.418  -0.713  17.689  0.00  0.00    +0.000 OA
BRANCH   2   4
ATOM      4  C   UNL     1      36.409  -1.968  15.907  0.00  0.00    +0.000 A 
ATOM      5  C   UNL     1      35.045  -2.195  16.200  0.00  0.00    +0.000 A 
ATOM      6  C   UNL     1      34.405  -3.299  15.689  0.00  0.00    +0.000 A 
ATOM      7  C   UNL     1      35.102  -4.176  14.897  0.00  0.00    +0.000 A 
ATOM      8  C   UNL     1      36.413  -3.951  14.620  0.00  0.00    +0.000 A 
ATOM      9  C   UNL     1      37.104  -2.829  15.123  0.00  0.00    +0.000 A 
BRANCH   9  10
ATOM     10  C   UNL     1      38.494  -2.639  14.742  0.00  0.00    +0.000 A 
ATOM     11  C   UNL     1      38.787  -2.102  13.480  0.00  0.00    +0.000 A 
ATOM     12  C   UNL     1      40.079  -1.861  13.068  0.00  0.00    +0.000 A 
ATOM     13  C   UNL     1      41.155  -2.137  13.885  0.00  0.00    +0.000 A 
ATOM     14  C   UNL     1      42.550  -1.872  13.429  0.00  0.00    +0.000 C 
ATOM     15  C   UNL     1      40.886  -2.667  15.133  0.00  0.00    +0.000 A 
ATOM     16  C   UNL     1      39.589  -2.904  15.534  0.00  0.00    +0.000 A 
ENDBRANCH   9  10
ENDBRANCH   2   4
ENDBRANCH   1   2
BRANCH   1  17
ATOM     17  C   UNL     1      36.359   1.283  15.427  0.00  0.00    +0.000 C 
BRANCH  17  19
ATOM     18  N   UNL     1      38.030   3.124  16.042  0.00  0.00    +0.000 NA
ATOM     19  C   UNL     1      36.723   2.533  16.071  0.00  0.00    +0.000 C 
ATOM     20  O   UNL     1      35.869   3.204  16.723  0.00  0.00    +0.000 OA
BRANCH  18  24
ATOM     21  C   UNL     1      38.809   6.774  18.051  0.00  0.00    +0.000 A 
ATOM     22  C   UNL     1      38.485   6.782  16.711  0.00  0.00    +0.000 A 
ATOM     23  C   UNL     1      38.227   5.571  16.045  0.00  0.00    +0.000 A 
ATOM     24  C   UNL     1      38.292   4.368  16.711  0.00  0.00    +0.000 A 
ATOM     25  C   UNL     1      38.619   4.424  18.043  0.00  0.00    +0.000 A 
ATOM     26  C   UNL     1      38.877   5.633  18.710  0.00  0.00    +0.000 A 
BRANCH  21  27
ATOM     27  C   UNL     1      39.072   8.214  18.664  0.00  0.00    +0.000 C 
ATOM     28  C   UNL     1      39.526   7.773  20.195  0.00  0.00    +0.000 C 
BRANCH  27  30
ATOM     29  C   UNL     1      37.715   8.978  20.552  0.00  0.00    +0.000 C 
ATOM     30  C   UNL     1      37.483   8.422  19.142  0.00  0.00    +0.000 C 
ENDBRANCH  27  30
ENDBRANCH  21  27
ENDBRANCH  18  24
ENDBRANCH  17  19
ENDBRANCH   1  17
TORSDOF 8
ENDMDL
MODEL 6
REMARK VINA RESULT:      -8.1      1.597      2.525
REMARK  Name = 
REMARK  8 active torsions:
REMARK  status: ('A' for Active; 'I' for Inactive)
REMARK    1  A    between atoms: C_2  and  C_3
REMARK    2  A    between atoms: C_3  and  C_5
REMARK    3  A    between atoms: C_8  and  N_9
REMARK    4  A    between atoms: C_10  and  C_12
REMARK    5  A    between atoms: C_12  and  O_13
REMARK    6  A    between atoms: O_13  and  C_14
REMARK    7  A    between atoms: C_14  and  C_16
REMARK    8  A    between atoms: C_21  and  C_22
REMARK                            x       y       z     vdW  Elec       q    Type
REMARK                         _______ _______ _______ _____ _____    ______ ____
ROOT
ATOM      1  O   UNL     1      37.584   2.462  13.224  0.00  0.00    +0.000 OA
ENDROOT
BRANCH   1   2
ATOM      2  C   UNL     1      36.700   1.378  13.421  0.00  0.00    +0.000 C 
ATOM      3  O   UNL     1      36.316   0.833  12.370  0.00  0.00    +0.000 OA
BRANCH   2   4
ATOM      4  C   UNL     1      36.312   0.984  14.768  0.00  0.00    +0.000 A 
ATOM      5  C   UNL     1      35.268   1.693  15.406  0.00  0.00    +0.000 A 
ATOM      6  C   UNL     1      34.905   1.373  16.693  0.00  0.00    +0.000 A 
ATOM      7  C   UNL     1      35.564   0.364  17.349  0.00  0.00    +0.000 A 
ATOM      8  C   UNL     1      36.565  -0.312  16.728  0.00  0.00    +0.000 A 
ATOM      9  C   UNL     1      36.967  -0.015  15.408  0.00  0.00    +0.000 A 
BRANCH   9  10
ATOM     10  C   UNL     1      38.017  -0.817  14.802  0.00  0.00    +0.000 A 
ATOM     11  C   UNL     1      39.357  -0.468  15.030  0.00  0.00    +0.000 A 
ATOM     12  C   UNL     1      40.403  -1.204  14.519  0.00  0.00    +0.000 A 
ATOM     13  C   UNL     1      40.180  -2.329  13.753  0.00  0.00    +0.000 A 
ATOM     14  C   UNL     1      41.320  -3.119  13.203  0.00  0.00    +0.000 C 
ATOM     15  C   UNL     1      38.867  -2.688  13.517  0.00  0.00    +0.000 A 
ATOM     16  C   UNL     1      37.828  -1.943  14.034  0.00  0.00    +0.000 A 
ENDBRANCH   9  10
ENDBRANCH   2   4
ENDBRANCH   1   2
BRANCH   1  17
ATOM     17  C   UNL     1      37.116   3.795  13.246  0.00  0.00    +0.000 C 
BRANCH  17  19
ATOM     18  N   UNL     1      38.779   4.036  15.178  0.00  0.00    +0.000 NA
ATOM     19  C   UNL     1      37.610   4.439  14.450  0.00  0.00    +0.000 C 
ATOM     20  O   UNL     1      37.011   5.438  14.948  0.00  0.00    +0.000 OA
BRANCH  18  24
ATOM     21  C   UNL     1      40.014   6.132  18.650  0.00  0.00    +0.000 A 
ATOM     22  C   UNL     1      38.980   5.224  18.725  0.00  0.00    +0.000 A 
ATOM     23  C   UNL     1      38.571   4.529  17.574  0.00  0.00    +0.000 A 
ATOM     24  C   UNL     1      39.188   4.741  16.363  0.00  0.00    +0.000 A 
ATOM     25  C   UNL     1      40.210   5.656  16.349  0.00  0.00    +0.000 A 
ATOM     26  C   UNL     1      40.621   6.351  17.499  0.00  0.00    +0.000 A 
BRANCH  21  27
ATOM     27  C   UNL     1      40.363   6.837  20.028  0.00  0.00    +0.000 C 
ATOM     28  C   UNL     1      40.160   8.418  19.578  0.00  0.00    +0.000 C 
BRANCH  27  30
ATOM     29  C   UNL     1      42.528   6.108  20.908  0.00  0.00    +0.000 C 
ATOM     30  C   UNL     1      42.003   6.903  19.705  0.00  0.00    +0.000 C 
ENDBRANCH  27  30
ENDBRANCH  21  27
ENDBRANCH  18  24
ENDBRANCH  17  19
ENDBRANCH   1  17
TORSDOF 8
ENDMDL
MODEL 7
REMARK VINA RESULT:      -8.0      1.861      2.354
REMARK  Name = 
REMARK  8 active torsions:
REMARK  status: ('A' for Active; 'I' for Inactive)
REMARK    1  A    between atoms: C_2  and  C_3
REMARK    2  A    between atoms: C_3  and  C_5
REMARK    3  A    between atoms: C_8  and  N_9
REMARK    4  A    between atoms: C_10  and  C_12
REMARK    5  A    between atoms: C_12  and  O_13
REMARK    6  A    between atoms: O_13  and  C_14
REMARK    7  A    between atoms: C_14  and  C_16
REMARK    8  A    between atoms: C_21  and  C_22
REMARK                            x       y       z     vdW  Elec       q    Type
REMARK                         _______ _______ _______ _____ _____    ______ ____
ROOT
ATOM      1  O   UNL     1      36.662   2.720  16.857  0.00  0.00    +0.000 OA
ENDROOT
BRANCH   1   2
ATOM      2  C   UNL     1      35.535   2.088  16.288  0.00  0.00    +0.000 C 
ATOM      3  O   UNL     1      34.690   2.873  15.820  0.00  0.00    +0.000 OA
BRANCH   2   4
ATOM      4  C   UNL     1      35.434   0.636  16.282  0.00  0.00    +0.000 A 
ATOM      5  C   UNL     1      34.596   0.012  17.234  0.00  0.00    +0.000 A 
ATOM      6  C   UNL     1      34.510  -1.360  17.282  0.00  0.00    +0.000 A 
ATOM      7  C   UNL     1      35.244  -2.113  16.401  0.00  0.00    +0.000 A 
ATOM      8  C   UNL     1      36.046  -1.505  15.488  0.00  0.00    +0.000 A 
ATOM      9  C   UNL     1      36.160  -0.101  15.406  0.00  0.00    +0.000 A 
BRANCH   9  10
ATOM     10  C   UNL     1      37.007   0.469  14.371  0.00  0.00    +0.000 A 
ATOM     11  C   UNL     1      38.373   0.653  14.634  0.00  0.00    +0.000 A 
ATOM     12  C   UNL     1      39.240   1.153  13.688  0.00  0.00    +0.000 A 
ATOM     13  C   UNL     1      38.803   1.499  12.427  0.00  0.00    +0.000 A 
ATOM     14  C   UNL     1      39.750   2.040  11.410  0.00  0.00    +0.000 C 
ATOM     15  C   UNL     1      37.460   1.325  12.150  0.00  0.00    +0.000 A 
ATOM     16  C   UNL     1      36.602   0.824  13.105  0.00  0.00    +0.000 A 
ENDBRANCH   9  10
ENDBRANCH   2   4
ENDBRANCH   1   2
BRANCH   1  17
ATOM     17  C   UNL     1      37.174   3.920  16.313  0.00  0.00    +0.000 C 
BRANCH  17  19
ATOM     18  N   UNL     1      38.912   5.664  17.016  0.00  0.00    +0.000 NA
ATOM     19  C   UNL     1      38.167   4.456  17.226  0.00  0.00    +0.000 C 
ATOM     20  O   UNL     1      38.444   3.862  18.311  0.00  0.00    +0.000 OA
BRANCH  18  24
ATOM     21  C   UNL     1      41.785   6.984  19.840  0.00  0.00    +0.000 A 
ATOM     22  C   UNL     1      40.454   6.912  20.194  0.00  0.00    +0.000 A 
ATOM     23  C   UNL     1      39.502   6.474  19.257  0.00  0.00    +0.000 A 
ATOM     24  C   UNL     1      39.876   6.113  17.983  0.00  0.00    +0.000 A 
ATOM     25  C   UNL     1      41.214   6.205  17.689  0.00  0.00    +0.000 A 
ATOM     26  C   UNL     1      42.167   6.643  18.624  0.00  0.00    +0.000 A 
BRANCH  21  27
ATOM     27  C   UNL     1      42.739   7.494  21.001  0.00  0.00    +0.000 C 
ATOM     28  C   UNL     1      43.412   8.802  20.237  0.00  0.00    +0.000 C 
BRANCH  27  30
ATOM     29  C   UNL     1      44.047   5.566  21.750  0.00  0.00    +0.000 C 
ATOM     30  C   UNL     1      44.009   6.508  20.540  0.00  0.00    +0.000 C 
ENDBRANCH  27  30
ENDBRANCH  21  27
ENDBRANCH  18  24
ENDBRANCH  17  19
ENDBRANCH   1  17
TORSDOF 8
ENDMDL
MODEL 8
REMARK VINA RESULT:      -8.0      1.807      3.001
REMARK  Name = 
REMARK  8 active torsions:
REMARK  status: ('A' for Active; 'I' for Inactive)
REMARK    1  A    between atoms: C_2  and  C_3
REMARK    2  A    between atoms: C_3  and  C_5
REMARK    3  A    between atoms: C_8  and  N_9
REMARK    4  A    between atoms: C_10  and  C_12
REMARK    5  A    between atoms: C_12  and  O_13
REMARK    6  A    between atoms: O_13  and  C_14
REMARK    7  A    between atoms: C_14  and  C_16
REMARK    8  A    between atoms: C_21  and  C_22
REMARK                            x       y       z     vdW  Elec       q    Type
REMARK                         _______ _______ _______ _____ _____    ______ ____
ROOT
ATOM      1  O   UNL     1      36.199   0.470  17.045  0.00  0.00    +0.000 OA
ENDROOT
BRANCH   1   2
ATOM      2  C   UNL     1      36.694  -0.850  17.138  0.00  0.00    +0.000 C 
ATOM      3  O   UNL     1      37.585  -1.002  17.994  0.00  0.00    +0.000 OA
BRANCH   2   4
ATOM      4  C   UNL     1      36.161  -1.895  16.277  0.00  0.00    +0.000 A 
ATOM      5  C   UNL     1      34.820  -2.304  16.460  0.00  0.00    +0.000 A 
ATOM      6  C   UNL     1      34.298  -3.317  15.691  0.00  0.00    +0.000 A 
ATOM      7  C   UNL     1      35.090  -3.926  14.749  0.00  0.00    +0.000 A 
ATOM      8  C   UNL     1      36.377  -3.526  14.580  0.00  0.00    +0.000 A 
ATOM      9  C   UNL     1      36.949  -2.490  15.348  0.00  0.00    +0.000 A 
BRANCH   9  10
ATOM     10  C   UNL     1      38.320  -2.094  15.073  0.00  0.00    +0.000 A 
ATOM     11  C   UNL     1      39.369  -2.886  15.565  0.00  0.00    +0.000 A 
ATOM     12  C   UNL     1      40.690  -2.592  15.312  0.00  0.00    +0.000 A 
ATOM     13  C   UNL     1      41.048  -1.496  14.554  0.00  0.00    +0.000 A 
ATOM     14  C   UNL     1      42.482  -1.186  14.286  0.00  0.00    +0.000 C 
ATOM     15  C   UNL     1      40.028  -0.704  14.062  0.00  0.00    +0.000 A 
ATOM     16  C   UNL     1      38.710  -1.009  14.322  0.00  0.00    +0.000 A 
ENDBRANCH   9  10
ENDBRANCH   2   4
ENDBRANCH   1   2
BRANCH   1  17
ATOM     17  C   UNL     1      36.344   1.218  15.855  0.00  0.00    +0.000 C 
BRANCH  17  19
ATOM     18  N   UNL     1      37.213   3.342  16.991  0.00  0.00    +0.000 NA
ATOM     19  C   UNL     1      37.345   2.247  16.074  0.00  0.00    +0.000 C 
ATOM     20  O   UNL     1      38.443   2.234  15.441  0.00  0.00    +0.000 OA
BRANCH  18  24
ATOM     21  C   UNL     1      40.306   6.202  17.463  0.00  0.00    +0.000 A 
ATOM     22  C   UNL     1      39.968   5.755  16.203  0.00  0.00    +0.000 A 
ATOM     23  C   UNL     1      38.942   4.807  16.048  0.00  0.00    +0.000 A 
ATOM     24  C   UNL     1      38.264   4.312  17.137  0.00  0.00    +0.000 A 
ATOM     25  C   UNL     1      38.644   4.793  18.365  0.00  0.00    +0.000 A 
ATOM     26  C   UNL     1      39.670   5.741  18.523  0.00  0.00    +0.000 A 
BRANCH  21  27
ATOM     27  C   UNL     1      41.480   7.269  17.481  0.00  0.00    +0.000 C 
ATOM     28  C   UNL     1      42.453   6.616  16.310  0.00  0.00    +0.000 C 
BRANCH  27  30
ATOM     29  C   UNL     1      43.702   7.129  18.498  0.00  0.00    +0.000 C 
ATOM     30  C   UNL     1      42.324   6.483  18.692  0.00  0.00    +0.000 C 
ENDBRANCH  27  30
ENDBRANCH  21  27
ENDBRANCH  18  24
ENDBRANCH  17  19
ENDBRANCH   1  17
TORSDOF 8
ENDMDL
MODEL 9
REMARK VINA RESULT:      -8.0      4.807      6.158
REMARK  Name = 
REMARK  8 active torsions:
REMARK  status: ('A' for Active; 'I' for Inactive)
REMARK    1  A    between atoms: C_2  and  C_3
REMARK    2  A    between atoms: C_3  and  C_5
REMARK    3  A    between atoms: C_8  and  N_9
REMARK    4  A    between atoms: C_10  and  C_12
REMARK    5  A    between atoms: C_12  and  O_13
REMARK    6  A    between atoms: O_13  and  C_14
REMARK    7  A    between atoms: C_14  and  C_16
REMARK    8  A    between atoms: C_21  and  C_22
REMARK                            x       y       z     vdW  Elec       q    Type
REMARK                         _______ _______ _______ _____ _____    ______ ____
ROOT
ATOM      1  O   UNL     1      37.613  -0.940  18.101  0.00  0.00    +0.000 OA
ENDROOT
BRANCH   1   2
ATOM      2  C   UNL     1      37.880  -2.254  17.655  0.00  0.00    +0.000 C 
ATOM      3  O   UNL     1      38.766  -2.843  18.300  0.00  0.00    +0.000 OA
BRANCH   2   4
ATOM      4  C   UNL     1      37.142  -2.810  16.530  0.00  0.00    +0.000 A 
ATOM      5  C   UNL     1      35.900  -3.438  16.780  0.00  0.00    +0.000 A 
ATOM      6  C   UNL     1      35.198  -4.010  15.745  0.00  0.00    +0.000 A 
ATOM      7  C   UNL     1      35.713  -3.966  14.474  0.00  0.00    +0.000 A 
ATOM      8  C   UNL     1      36.906  -3.359  14.243  0.00  0.00    +0.000 A 
ATOM      9  C   UNL     1      37.657  -2.760  15.277  0.00  0.00    +0.000 A 
BRANCH   9  10
ATOM     10  C   UNL     1      38.903  -2.093  14.937  0.00  0.00    +0.000 A 
ATOM     11  C   UNL     1      38.901  -0.704  14.743  0.00  0.00    +0.000 A 
ATOM     12  C   UNL     1      40.051  -0.003  14.455  0.00  0.00    +0.000 A 
ATOM     13  C   UNL     1      41.270  -0.639  14.344  0.00  0.00    +0.000 A 
ATOM     14  C   UNL     1      42.509   0.129  14.032  0.00  0.00    +0.000 C 
ATOM     15  C   UNL     1      41.291  -2.008  14.531  0.00  0.00    +0.000 A 
ATOM     16  C   UNL     1      40.133  -2.699  14.819  0.00  0.00    +0.000 A 
ENDBRANCH   9  10
ENDBRANCH   2   4
ENDBRANCH   1   2
BRANCH   1  17
ATOM     17  C   UNL     1      36.291  -0.443  18.147  0.00  0.00    +0.000 C 
BRANCH  17  19
ATOM     18  N   UNL     1      35.572   0.842  16.052  0.00  0.00    +0.000 NA
ATOM     19  C   UNL     1      36.219   0.755  17.329  0.00  0.00    +0.000 C 
ATOM     20  O   UNL     1      36.745   1.841  17.715  0.00  0.00    +0.000 OA
BRANCH  18  24
ATOM     21  C   UNL     1      35.552   4.473  13.865  0.00  0.00    +0.000 A 
ATOM     22  C   UNL     1      34.560   4.220  14.788  0.00  0.00    +0.000 A 
ATOM     23  C   UNL     1      34.567   3.015  15.513  0.00  0.00    +0.000 A 
ATOM     24  C   UNL     1      35.554   2.077  15.317  0.00  0.00    +0.000 A 
ATOM     25  C   UNL     1      36.513   2.384  14.385  0.00  0.00    +0.000 A 
ATOM     26  C   UNL     1      36.508   3.587  13.659  0.00  0.00    +0.000 A 
BRANCH  21  27
ATOM     27  C   UNL     1      35.411   5.871  13.126  0.00  0.00    +0.000 C 
ATOM     28  C   UNL     1      36.477   6.759  14.031  0.00  0.00    +0.000 C 
BRANCH  27  30
ATOM     29  C   UNL     1      34.142   7.866  13.760  0.00  0.00    +0.000 C 
ATOM     30  C   UNL     1      34.121   6.363  14.070  0.00  0.00    +0.000 C 
ENDBRANCH  27  30
ENDBRANCH  21  27
ENDBRANCH  18  24
ENDBRANCH  17  19
ENDBRANCH   1  17
TORSDOF 8
ENDMDL
MODEL 10
REMARK VINA RESULT:      -7.9     23.161     26.658
REMARK  Name = 
REMARK  8 active torsions:
REMARK  status: ('A' for Active; 'I' for Inactive)
REMARK    1  A    between atoms: C_2  and  C_3
REMARK    2  A    between atoms: C_3  and  C_5
REMARK    3  A    between atoms: C_8  and  N_9
REMARK    4  A    between atoms: C_10  and  C_12
REMARK    5  A    between atoms: C_12  and  O_13
REMARK    6  A    between atoms: O_13  and  C_14
REMARK    7  A    between atoms: C_14  and  C_16
REMARK    8  A    between atoms: C_21  and  C_22
REMARK                            x       y       z     vdW  Elec       q    Type
REMARK                         _______ _______ _______ _____ _____    ______ ____
ROOT
ATOM      1  O   UNL     1      13.240  -0.444  27.232  0.00  0.00    +0.000 OA
ENDROOT
BRANCH   1   2
ATOM      2  C   UNL     1      11.941  -0.073  27.644  0.00  0.00    +0.000 C 
ATOM      3  O   UNL     1      11.695  -0.317  28.840  0.00  0.00    +0.000 OA
BRANCH   2   4
ATOM      4  C   UNL     1      11.019   0.540  26.699  0.00  0.00    +0.000 A 
ATOM      5  C   UNL     1      10.854   1.944  26.729  0.00  0.00    +0.000 A 
ATOM      6  C   UNL     1       9.960   2.550  25.878  0.00  0.00    +0.000 A 
ATOM      7  C   UNL     1       9.233   1.782  25.005  0.00  0.00    +0.000 A 
ATOM      8  C   UNL     1       9.398   0.434  24.982  0.00  0.00    +0.000 A 
ATOM      9  C   UNL     1      10.306  -0.226  25.838  0.00  0.00    +0.000 A 
BRANCH   9  10
ATOM     10  C   UNL     1      10.454  -1.667  25.719  0.00  0.00    +0.000 A 
ATOM     11  C   UNL     1      11.273  -2.186  24.704  0.00  0.00    +0.000 A 
ATOM     12  C   UNL     1      11.488  -3.538  24.556  0.00  0.00    +0.000 A 
ATOM     13  C   UNL     1      10.904  -4.454  25.406  0.00  0.00    +0.000 A 
ATOM     14  C   UNL     1      11.143  -5.916  25.236  0.00  0.00    +0.000 C 
ATOM     15  C   UNL     1      10.094  -3.961  26.411  0.00  0.00    +0.000 A 
ATOM     16  C   UNL     1       9.886  -2.606  26.549  0.00  0.00    +0.000 A 
ENDBRANCH   9  10
ENDBRANCH   2   4
ENDBRANCH   1   2
BRANCH   1  17
ATOM     17  C   UNL     1      14.383   0.168  27.794  0.00  0.00    +0.000 C 
BRANCH  17  19
ATOM     18  N   UNL     1      16.867   0.267  27.176  0.00  0.00    +0.000 NA
ATOM     19  C   UNL     1      15.487   0.031  26.860  0.00  0.00    +0.000 C 
ATOM     20  O   UNL     1      15.286  -0.322  25.660  0.00  0.00    +0.000 OA
BRANCH  18  24
ATOM     21  C   UNL     1      19.885  -0.255  24.245  0.00  0.00    +0.000 A 
ATOM     22  C   UNL     1      19.342   0.995  24.460  0.00  0.00    +0.000 A 
ATOM     23  C   UNL     1      18.341   1.167  25.432  0.00  0.00    +0.000 A 
ATOM     24  C   UNL     1      17.890   0.104  26.179  0.00  0.00    +0.000 A 
ATOM     25  C   UNL     1      18.467  -1.114  25.922  0.00  0.00    +0.000 A 
ATOM     26  C   UNL     1      19.468  -1.289  24.950  0.00  0.00    +0.000 A 
BRANCH  21  27
ATOM     27  C   UNL     1      21.003  -0.293  23.119  0.00  0.00    +0.000 C 
ATOM     28  C   UNL     1      20.231   0.588  21.948  0.00  0.00    +0.000 C 
BRANCH  27  30
ATOM     29  C   UNL     1      20.391  -1.333  20.989  0.00  0.00    +0.000 C 
ATOM     30  C   UNL     1      20.452  -1.733  22.469  0.00  0.00    +0.000 C 
ENDBRANCH  27  30
ENDBRANCH  21  27
ENDBRANCH  18  24
ENDBRANCH  17  19
ENDBRANCH   1  17
TORSDOF 8
ENDMDL
