MODEL 1
REMARK VINA RESULT:      -5.4      0.000      0.000
REMARK  Name = 
REMARK  4 active torsions:
REMARK  status: ('A' for Active; 'I' for Inactive)
REMARK    1  A    between atoms: O_2  and  C_3
REMARK    2  A    between atoms: C_3  and  C_5
REMARK    3  A    between atoms: C_11  and  C_12
REMARK    4  A    between atoms: C_15  and  C_16
REMARK                            x       y       z     vdW  Elec       q    Type
REMARK                         _______ _______ _______ _____ _____    ______ ____
ROOT
ATOM      1  C   UNL     1      27.117  24.328  23.407  0.00  0.00    +0.000 C 
ATOM      2  C   UNL     1      26.004  23.672  23.546  0.00  0.00    +0.000 C 
ATOM      3  N   UNL     1      25.478  22.848  22.503  0.00  0.00    +0.000 NA
ATOM      4  O   UNL     1      25.268  23.732  24.716  0.00  0.00    +0.000 OA
ATOM      5  C   UNL     1      25.767  24.516  25.727  0.00  0.00    +0.000 C 
ATOM      6  C   UNL     1      24.983  24.604  27.032  0.00  0.00    +0.000 C 
ATOM      7  C   UNL     1      26.852  25.193  25.670  0.00  0.00    +0.000 C 
ATOM      8  C   UNL     1      27.745  25.240  24.423  0.00  0.00    +0.000 C 
ENDROOT
BRANCH   8   9
ATOM      9  C   UNL     1      28.991  24.383  24.844  0.00  0.00    +0.000 A 
ATOM     10  S   UNL     1      28.880  22.771  25.465  0.00  0.00    +0.000 S 
ATOM     11  C   UNL     1      30.570  22.510  25.689  0.00  0.00    +0.000 A 
ATOM     12  C   UNL     1      31.095  23.665  25.276  0.00  0.00    +0.000 A 
ATOM     13  C   UNL     1      30.286  24.640  24.838  0.00  0.00    +0.000 A 
ATOM     14  C   UNL     1      30.857  25.939  24.369  0.00  0.00    +0.000 C 
ENDBRANCH   8   9
BRANCH   7  15
ATOM     15  C   UNL     1      27.295  26.006  26.834  0.00  0.00    +0.000 C 
ATOM     16  C   UNL     1      27.094  27.457  26.774  0.00  0.00    +0.000 C 
ATOM     17  O   UNL     1      27.826  25.522  27.853  0.00  0.00    +0.000 OA
ENDBRANCH   7  15
BRANCH   1  18
ATOM     18  C   UNL     1      27.821  24.190  22.128  0.00  0.00    +0.000 C 
ATOM     19  O   UNL     1      28.286  23.091  21.811  0.00  0.00    +0.000 OA
BRANCH  18  21
ATOM     20  C   UNL     1      29.263  25.766  20.897  0.00  0.00    +0.000 C 
ATOM     21  O   UNL     1      27.991  25.247  21.246  0.00  0.00    +0.000 OA
ENDBRANCH  18  21
ENDBRANCH   1  18
TORSDOF 4
ENDMDL
MODEL 2
REMARK VINA RESULT:      -5.4      3.381      5.594
REMARK  Name = 
REMARK  4 active torsions:
REMARK  status: ('A' for Active; 'I' for Inactive)
REMARK    1  A    between atoms: O_2  and  C_3
REMARK    2  A    between atoms: C_3  and  C_5
REMARK    3  A    between atoms: C_11  and  C_12
REMARK    4  A    between atoms: C_15  and  C_16
REMARK                            x       y       z     vdW  Elec       q    Type
REMARK                         _______ _______ _______ _____ _____    ______ ____
ROOT
ATOM      1  C   UNL     1      26.802  23.467  29.291  0.00  0.00    +0.000 C 
ATOM      2  C   UNL     1      25.920  24.302  29.753  0.00  0.00    +0.000 C 
ATOM      3  N   UNL     1      25.765  24.539  31.154  0.00  0.00    +0.000 NA
ATOM      4  O   UNL     1      25.084  25.012  28.910  0.00  0.00    +0.000 OA
ATOM      5  C   UNL     1      25.227  24.796  27.560  0.00  0.00    +0.000 C 
ATOM      6  C   UNL     1      24.323  25.563  26.602  0.00  0.00    +0.000 C 
ATOM      7  C   UNL     1      26.069  23.992  27.027  0.00  0.00    +0.000 C 
ATOM      8  C   UNL     1      27.031  23.122  27.847  0.00  0.00    +0.000 C 
ENDROOT
BRANCH   8   9
ATOM      9  C   UNL     1      28.423  23.807  27.607  0.00  0.00    +0.000 A 
ATOM     10  S   UNL     1      28.734  25.481  27.919  0.00  0.00    +0.000 S 
ATOM     11  C   UNL     1      30.389  25.486  27.436  0.00  0.00    +0.000 A 
ATOM     12  C   UNL     1      30.585  24.218  27.072  0.00  0.00    +0.000 A 
ATOM     13  C   UNL     1      29.574  23.342  27.158  0.00  0.00    +0.000 A 
ATOM     14  C   UNL     1      29.777  21.917  26.758  0.00  0.00    +0.000 C 
ENDBRANCH   8   9
BRANCH   7  15
ATOM     15  C   UNL     1      26.135  23.843  25.549  0.00  0.00    +0.000 C 
ATOM     16  C   UNL     1      26.860  24.865  24.788  0.00  0.00    +0.000 C 
ATOM     17  O   UNL     1      25.610  22.899  24.927  0.00  0.00    +0.000 OA
ENDBRANCH   7  15
BRANCH   1  18
ATOM     18  C   UNL     1      27.642  22.771  30.271  0.00  0.00    +0.000 C 
ATOM     19  O   UNL     1      27.341  21.625  30.619  0.00  0.00    +0.000 OA
BRANCH  18  21
ATOM     20  C   UNL     1      30.049  22.731  30.806  0.00  0.00    +0.000 C 
ATOM     21  O   UNL     1      28.772  23.346  30.835  0.00  0.00    +0.000 OA
ENDBRANCH  18  21
ENDBRANCH   1  18
TORSDOF 4
ENDMDL
MODEL 3
REMARK VINA RESULT:      -5.2      2.054      4.065
REMARK  Name = 
REMARK  4 active torsions:
REMARK  status: ('A' for Active; 'I' for Inactive)
REMARK    1  A    between atoms: O_2  and  C_3
REMARK    2  A    between atoms: C_3  and  C_5
REMARK    3  A    between atoms: C_11  and  C_12
REMARK    4  A    between atoms: C_15  and  C_16
REMARK                            x       y       z     vdW  Elec       q    Type
REMARK                         _______ _______ _______ _____ _____    ______ ____
ROOT
ATOM      1  C   UNL     1      28.214  24.081  22.964  0.00  0.00    +0.000 C 
ATOM      2  C   UNL     1      29.425  24.060  22.495  0.00  0.00    +0.000 C 
ATOM      3  N   UNL     1      29.703  24.273  21.109  0.00  0.00    +0.000 NA
ATOM      4  O   UNL     1      30.517  23.832  23.315  0.00  0.00    +0.000 OA
ATOM      5  C   UNL     1      30.263  23.631  24.650  0.00  0.00    +0.000 C 
ATOM      6  C   UNL     1      31.441  23.379  25.584  0.00  0.00    +0.000 C 
ATOM      7  C   UNL     1      29.102  23.636  25.190  0.00  0.00    +0.000 C 
ATOM      8  C   UNL     1      27.808  23.844  24.391  0.00  0.00    +0.000 C 
ENDROOT
BRANCH   8   9
ATOM      9  C   UNL     1      27.362  25.291  24.806  0.00  0.00    +0.000 A 
ATOM     10  S   UNL     1      28.458  26.621  24.971  0.00  0.00    +0.000 S 
ATOM     11  C   UNL     1      27.291  27.805  25.429  0.00  0.00    +0.000 A 
ATOM     12  C   UNL     1      26.155  27.105  25.423  0.00  0.00    +0.000 A 
ATOM     13  C   UNL     1      26.183  25.804  25.102  0.00  0.00    +0.000 A 
ATOM     14  C   UNL     1      24.920  25.005  25.087  0.00  0.00    +0.000 C 
ENDBRANCH   8   9
BRANCH   7  15
ATOM     15  C   UNL     1      28.949  23.409  26.652  0.00  0.00    +0.000 C 
ATOM     16  C   UNL     1      28.384  22.130  27.092  0.00  0.00    +0.000 C 
ATOM     17  O   UNL     1      29.275  24.244  27.518  0.00  0.00    +0.000 OA
ENDBRANCH   7  15
BRANCH   1  18
ATOM     18  C   UNL     1      27.131  24.337  22.009  0.00  0.00    +0.000 C 
ATOM     19  O   UNL     1      26.188  23.545  21.940  0.00  0.00    +0.000 OA
BRANCH  18  21
ATOM     20  C   UNL     1      27.172  26.775  21.643  0.00  0.00    +0.000 C 
ATOM     21  O   UNL     1      27.116  25.441  21.168  0.00  0.00    +0.000 OA
ENDBRANCH  18  21
ENDBRANCH   1  18
TORSDOF 4
ENDMDL
MODEL 4
REMARK VINA RESULT:      -4.9     33.097     34.655
REMARK  Name = 
REMARK  4 active torsions:
REMARK  status: ('A' for Active; 'I' for Inactive)
REMARK    1  A    between atoms: O_2  and  C_3
REMARK    2  A    between atoms: C_3  and  C_5
REMARK    3  A    between atoms: C_11  and  C_12
REMARK    4  A    between atoms: C_15  and  C_16
REMARK                            x       y       z     vdW  Elec       q    Type
REMARK                         _______ _______ _______ _____ _____    ______ ____
ROOT
ATOM      1  C   UNL     1      18.323  -7.366  25.909  0.00  0.00    +0.000 C 
ATOM      2  C   UNL     1      19.018  -6.283  26.090  0.00  0.00    +0.000 C 
ATOM      3  N   UNL     1      18.444  -5.101  26.653  0.00  0.00    +0.000 NA
ATOM      4  O   UNL     1      20.358  -6.217  25.751  0.00  0.00    +0.000 OA
ATOM      5  C   UNL     1      20.923  -7.348  25.214  0.00  0.00    +0.000 C 
ATOM      6  C   UNL     1      22.397  -7.312  24.829  0.00  0.00    +0.000 C 
ATOM      7  C   UNL     1      20.308  -8.451  25.003  0.00  0.00    +0.000 C 
ATOM      8  C   UNL     1      18.816  -8.649  25.304  0.00  0.00    +0.000 C 
ENDROOT
BRANCH   8   9
ATOM      9  C   UNL     1      18.828  -9.576  26.570  0.00  0.00    +0.000 A 
ATOM     10  S   UNL     1      19.723  -9.223  28.008  0.00  0.00    +0.000 S 
ATOM     11  C   UNL     1      19.265 -10.626  28.898  0.00  0.00    +0.000 A 
ATOM     12  C   UNL     1      18.466 -11.262  28.039  0.00  0.00    +0.000 A 
ATOM     13  C   UNL     1      18.234 -10.726  26.832  0.00  0.00    +0.000 A 
ATOM     14  C   UNL     1      17.340 -11.422  25.859  0.00  0.00    +0.000 C 
ENDBRANCH   8   9
BRANCH   7  15
ATOM     15  C   UNL     1      21.026  -9.614  24.417  0.00  0.00    +0.000 C 
ATOM     16  C   UNL     1      20.811  -9.910  22.998  0.00  0.00    +0.000 C 
ATOM     17  O   UNL     1      21.798 -10.347  25.066  0.00  0.00    +0.000 OA
ENDBRANCH   7  15
BRANCH   1  18
ATOM     18  C   UNL     1      16.913  -7.330  26.309  0.00  0.00    +0.000 C 
ATOM     19  O   UNL     1      16.618  -6.950  27.446  0.00  0.00    +0.000 OA
BRANCH  18  21
ATOM     20  C   UNL     1      14.856  -8.609  25.844  0.00  0.00    +0.000 C 
ATOM     21  O   UNL     1      15.881  -7.707  25.461  0.00  0.00    +0.000 OA
ENDBRANCH  18  21
ENDBRANCH   1  18
TORSDOF 4
ENDMDL
MODEL 5
REMARK VINA RESULT:      -4.7     15.760     18.168
REMARK  Name = 
REMARK  4 active torsions:
REMARK  status: ('A' for Active; 'I' for Inactive)
REMARK    1  A    between atoms: O_2  and  C_3
REMARK    2  A    between atoms: C_3  and  C_5
REMARK    3  A    between atoms: C_11  and  C_12
REMARK    4  A    between atoms: C_15  and  C_16
REMARK                            x       y       z     vdW  Elec       q    Type
REMARK                         _______ _______ _______ _____ _____    ______ ____
ROOT
ATOM      1  C   UNL     1      11.585  21.915  21.298  0.00  0.00    +0.000 C 
ATOM      2  C   UNL     1      12.729  22.287  20.807  0.00  0.00    +0.000 C 
ATOM      3  N   UNL     1      13.512  21.426  19.978  0.00  0.00    +0.000 NA
ATOM      4  O   UNL     1      13.251  23.544  21.059  0.00  0.00    +0.000 OA
ATOM      5  C   UNL     1      12.504  24.383  21.850  0.00  0.00    +0.000 C 
ATOM      6  C   UNL     1      13.048  25.776  22.147  0.00  0.00    +0.000 C 
ATOM      7  C   UNL     1      11.371  24.092  22.371  0.00  0.00    +0.000 C 
ATOM      8  C   UNL     1      10.696  22.725  22.198  0.00  0.00    +0.000 C 
ENDROOT
BRANCH   8   9
ATOM      9  C   UNL     1       9.507  23.036  21.222  0.00  0.00    +0.000 A 
ATOM     10  S   UNL     1       9.710  23.770  19.668  0.00  0.00    +0.000 S 
ATOM     11  C   UNL     1       8.045  23.789  19.220  0.00  0.00    +0.000 A 
ATOM     12  C   UNL     1       7.457  23.237  20.282  0.00  0.00    +0.000 A 
ATOM     13  C   UNL     1       8.205  22.844  21.322  0.00  0.00    +0.000 A 
ATOM     14  C   UNL     1       7.563  22.220  22.519  0.00  0.00    +0.000 C 
ENDBRANCH   8   9
BRANCH   7  15
ATOM     15  C   UNL     1      10.651  25.086  23.211  0.00  0.00    +0.000 C 
ATOM     16  C   UNL     1      10.654  24.888  24.664  0.00  0.00    +0.000 C 
ATOM     17  O   UNL     1      10.048  26.074  22.747  0.00  0.00    +0.000 OA
ENDBRANCH   7  15
BRANCH   1  18
ATOM     18  C   UNL     1      11.122  20.564  20.964  0.00  0.00    +0.000 C 
ATOM     19  O   UNL     1      11.188  19.675  21.817  0.00  0.00    +0.000 OA
BRANCH  18  21
ATOM     20  C   UNL     1       9.308  19.694  19.537  0.00  0.00    +0.000 C 
ATOM     21  O   UNL     1      10.607  20.233  19.719  0.00  0.00    +0.000 OA
ENDBRANCH  18  21
ENDBRANCH   1  18
TORSDOF 4
ENDMDL
MODEL 6
REMARK VINA RESULT:      -4.7     32.999     34.395
REMARK  Name = 
REMARK  4 active torsions:
REMARK  status: ('A' for Active; 'I' for Inactive)
REMARK    1  A    between atoms: O_2  and  C_3
REMARK    2  A    between atoms: C_3  and  C_5
REMARK    3  A    between atoms: C_11  and  C_12
REMARK    4  A    between atoms: C_15  and  C_16
REMARK                            x       y       z     vdW  Elec       q    Type
REMARK                         _______ _______ _______ _____ _____    ______ ____
ROOT
ATOM      1  C   UNL     1      21.080  -7.586  25.667  0.00  0.00    +0.000 C 
ATOM      2  C   UNL     1      20.104  -6.768  25.925  0.00  0.00    +0.000 C 
ATOM      3  N   UNL     1      20.049  -5.455  25.362  0.00  0.00    +0.000 NA
ATOM      4  O   UNL     1      19.059  -7.126  26.759  0.00  0.00    +0.000 OA
ATOM      5  C   UNL     1      19.099  -8.387  27.302  0.00  0.00    +0.000 C 
ATOM      6  C   UNL     1      17.963  -8.816  28.224  0.00  0.00    +0.000 C 
ATOM      7  C   UNL     1      20.022  -9.250  27.099  0.00  0.00    +0.000 C 
ATOM      8  C   UNL     1      21.251  -8.971  26.223  0.00  0.00    +0.000 C 
ENDROOT
BRANCH   8   9
ATOM      9  C   UNL     1      20.976  -9.830  24.939  0.00  0.00    +0.000 A 
ATOM     10  S   UNL     1      19.475  -9.812  24.076  0.00  0.00    +0.000 S 
ATOM     11  C   UNL     1      19.914 -10.949  22.857  0.00  0.00    +0.000 A 
ATOM     12  C   UNL     1      21.166 -11.260  23.193  0.00  0.00    +0.000 A 
ATOM     13  C   UNL     1      21.724 -10.686  24.268  0.00  0.00    +0.000 A 
ATOM     14  C   UNL     1      23.128 -11.021  24.657  0.00  0.00    +0.000 C 
ENDBRANCH   8   9
BRANCH   7  15
ATOM     15  C   UNL     1      19.956 -10.590  27.741  0.00  0.00    +0.000 C 
ATOM     16  C   UNL     1      20.812 -10.837  28.905  0.00  0.00    +0.000 C 
ATOM     17  O   UNL     1      19.214 -11.510  27.343  0.00  0.00    +0.000 OA
ENDBRANCH   7  15
BRANCH   1  18
ATOM     18  C   UNL     1      22.133  -7.108  24.766  0.00  0.00    +0.000 C 
ATOM     19  O   UNL     1      23.137  -6.570  25.241  0.00  0.00    +0.000 OA
BRANCH  18  21
ATOM     20  C   UNL     1      23.156  -7.614  22.579  0.00  0.00    +0.000 C 
ATOM     21  O   UNL     1      22.054  -7.231  23.386  0.00  0.00    +0.000 OA
ENDBRANCH  18  21
ENDBRANCH   1  18
TORSDOF 4
ENDMDL
MODEL 7
REMARK VINA RESULT:      -4.6     31.107     33.245
REMARK  Name = 
REMARK  4 active torsions:
REMARK  status: ('A' for Active; 'I' for Inactive)
REMARK    1  A    between atoms: O_2  and  C_3
REMARK    2  A    between atoms: C_3  and  C_5
REMARK    3  A    between atoms: C_11  and  C_12
REMARK    4  A    between atoms: C_15  and  C_16
REMARK                            x       y       z     vdW  Elec       q    Type
REMARK                         _______ _______ _______ _____ _____    ______ ____
ROOT
ATOM      1  C   UNL     1      32.984  -7.545  29.923  0.00  0.00    +0.000 C 
ATOM      2  C   UNL     1      33.216  -6.384  29.388  0.00  0.00    +0.000 C 
ATOM      3  N   UNL     1      33.283  -6.205  27.971  0.00  0.00    +0.000 NA
ATOM      4  O   UNL     1      33.408  -5.253  30.162  0.00  0.00    +0.000 OA
ATOM      5  C   UNL     1      33.341  -5.412  31.525  0.00  0.00    +0.000 C 
ATOM      6  C   UNL     1      33.547  -4.188  32.410  0.00  0.00    +0.000 C 
ATOM      7  C   UNL     1      33.118  -6.518  32.130  0.00  0.00    +0.000 C 
ATOM      8  C   UNL     1      32.919  -7.850  31.393  0.00  0.00    +0.000 C 
ENDROOT
BRANCH   8   9
ATOM      9  C   UNL     1      31.383  -8.124  31.561  0.00  0.00    +0.000 A 
ATOM     10  S   UNL     1      30.153  -6.985  31.130  0.00  0.00    +0.000 S 
ATOM     11  C   UNL     1      28.798  -7.950  31.583  0.00  0.00    +0.000 A 
ATOM     12  C   UNL     1      29.377  -9.066  32.029  0.00  0.00    +0.000 A 
ATOM     13  C   UNL     1      30.714  -9.165  32.021  0.00  0.00    +0.000 A 
ATOM     14  C   UNL     1      31.379 -10.409  32.514  0.00  0.00    +0.000 C 
ENDBRANCH   8   9
BRANCH   7  15
ATOM     15  C   UNL     1      33.065  -6.568  33.615  0.00  0.00    +0.000 C 
ATOM     16  C   UNL     1      34.227  -7.108  34.326  0.00  0.00    +0.000 C 
ATOM     17  O   UNL     1      32.088  -6.177  34.284  0.00  0.00    +0.000 OA
ENDBRANCH   7  15
BRANCH   1  18
ATOM     18  C   UNL     1      32.788  -8.675  29.011  0.00  0.00    +0.000 C 
ATOM     19  O   UNL     1      33.749  -9.397  28.730  0.00  0.00    +0.000 OA
BRANCH  18  21
ATOM     20  C   UNL     1      30.981 -10.270  28.488  0.00  0.00    +0.000 C 
ATOM     21  O   UNL     1      31.560  -8.977  28.440  0.00  0.00    +0.000 OA
ENDBRANCH  18  21
ENDBRANCH   1  18
TORSDOF 4
ENDMDL
MODEL 8
REMARK VINA RESULT:      -4.6      2.703      4.521
REMARK  Name = 
REMARK  4 active torsions:
REMARK  status: ('A' for Active; 'I' for Inactive)
REMARK    1  A    between atoms: O_2  and  C_3
REMARK    2  A    between atoms: C_3  and  C_5
REMARK    3  A    between atoms: C_11  and  C_12
REMARK    4  A    between atoms: C_15  and  C_16
REMARK                            x       y       z     vdW  Elec       q    Type
REMARK                         _______ _______ _______ _____ _____    ______ ____
ROOT
ATOM      1  C   UNL     1      28.215  23.097  25.723  0.00  0.00    +0.000 C 
ATOM      2  C   UNL     1      29.457  22.775  25.521  0.00  0.00    +0.000 C 
ATOM      3  N   UNL     1      30.011  22.682  24.207  0.00  0.00    +0.000 NA
ATOM      4  O   UNL     1      30.316  22.505  26.572  0.00  0.00    +0.000 OA
ATOM      5  C   UNL     1      29.797  22.596  27.841  0.00  0.00    +0.000 C 
ATOM      6  C   UNL     1      30.714  22.308  29.024  0.00  0.00    +0.000 C 
ATOM      7  C   UNL     1      28.587  22.906  28.124  0.00  0.00    +0.000 C 
ATOM      8  C   UNL     1      27.525  23.197  27.054  0.00  0.00    +0.000 C 
ENDROOT
BRANCH   8   9
ATOM      9  C   UNL     1      27.330  24.750  27.159  0.00  0.00    +0.000 A 
ATOM     10  S   UNL     1      28.635  25.886  27.111  0.00  0.00    +0.000 S 
ATOM     11  C   UNL     1      27.684  27.315  27.277  0.00  0.00    +0.000 A 
ATOM     12  C   UNL     1      26.445  26.826  27.358  0.00  0.00    +0.000 A 
ATOM     13  C   UNL     1      26.252  25.500  27.298  0.00  0.00    +0.000 A 
ATOM     14  C   UNL     1      24.872  24.936  27.383  0.00  0.00    +0.000 C 
ENDBRANCH   8   9
BRANCH   7  15
ATOM     15  C   UNL     1      28.138  22.975  29.540  0.00  0.00    +0.000 C 
ATOM     16  C   UNL     1      27.220  21.939  30.020  0.00  0.00    +0.000 C 
ATOM     17  O   UNL     1      28.499  23.865  30.335  0.00  0.00    +0.000 OA
ENDBRANCH   7  15
BRANCH   1  18
ATOM     18  C   UNL     1      27.394  23.368  24.538  0.00  0.00    +0.000 C 
ATOM     19  O   UNL     1      26.388  22.683  24.332  0.00  0.00    +0.000 OA
BRANCH  18  21
ATOM     20  C   UNL     1      27.181  24.395  22.307  0.00  0.00    +0.000 C 
ATOM     21  O   UNL     1      27.697  24.369  23.627  0.00  0.00    +0.000 OA
ENDBRANCH  18  21
ENDBRANCH   1  18
TORSDOF 4
ENDMDL
MODEL 9
REMARK VINA RESULT:      -4.6     14.724     16.117
REMARK  Name = 
REMARK  4 active torsions:
REMARK  status: ('A' for Active; 'I' for Inactive)
REMARK    1  A    between atoms: O_2  and  C_3
REMARK    2  A    between atoms: C_3  and  C_5
REMARK    3  A    between atoms: C_11  and  C_12
REMARK    4  A    between atoms: C_15  and  C_16
REMARK                            x       y       z     vdW  Elec       q    Type
REMARK                         _______ _______ _______ _____ _____    ______ ____
ROOT
ATOM      1  C   UNL     1      16.946  22.550  35.153  0.00  0.00    +0.000 C 
ATOM      2  C   UNL     1      17.747  21.636  34.692  0.00  0.00    +0.000 C 
ATOM      3  N   UNL     1      17.848  21.355  33.295  0.00  0.00    +0.000 NA
ATOM      4  O   UNL     1      18.551  20.886  35.533  0.00  0.00    +0.000 OA
ATOM      5  C   UNL     1      18.466  21.151  36.878  0.00  0.00    +0.000 C 
ATOM      6  C   UNL     1      19.338  20.344  37.833  0.00  0.00    +0.000 C 
ATOM      7  C   UNL     1      17.704  22.031  37.411  0.00  0.00    +0.000 C 
ATOM      8  C   UNL     1      16.742  22.908  36.598  0.00  0.00    +0.000 C 
ENDROOT
BRANCH   8   9
ATOM      9  C   UNL     1      17.424  24.320  36.642  0.00  0.00    +0.000 A 
ATOM     10  S   UNL     1      19.091  24.593  36.265  0.00  0.00    +0.000 S 
ATOM     11  C   UNL     1      19.096  26.297  36.527  0.00  0.00    +0.000 A 
ATOM     12  C   UNL     1      17.832  26.536  36.881  0.00  0.00    +0.000 A 
ATOM     13  C   UNL     1      16.960  25.519  36.943  0.00  0.00    +0.000 A 
ATOM     14  C   UNL     1      15.540  25.769  37.335  0.00  0.00    +0.000 C 
ENDBRANCH   8   9
BRANCH   7  15
ATOM     15  C   UNL     1      17.700  22.232  38.885  0.00  0.00    +0.000 C 
ATOM     16  C   UNL     1      16.547  21.736  39.641  0.00  0.00    +0.000 C 
ATOM     17  O   UNL     1      18.621  22.797  39.506  0.00  0.00    +0.000 OA
ENDBRANCH   7  15
BRANCH   1  18
ATOM     18  C   UNL     1      16.143  23.291  34.175  0.00  0.00    +0.000 C 
ATOM     19  O   UNL     1      14.965  22.972  33.997  0.00  0.00    +0.000 OA
BRANCH  18  21
ATOM     20  C   UNL     1      16.046  25.627  33.393  0.00  0.00    +0.000 C 
ATOM     21  O   UNL     1      16.652  24.347  33.432  0.00  0.00    +0.000 OA
ENDBRANCH  18  21
ENDBRANCH   1  18
TORSDOF 4
ENDMDL
MODEL 10
REMARK VINA RESULT:      -4.5     33.604     35.005
REMARK  Name = 
REMARK  4 active torsions:
REMARK  status: ('A' for Active; 'I' for Inactive)
REMARK    1  A    between atoms: O_2  and  C_3
REMARK    2  A    between atoms: C_3  and  C_5
REMARK    3  A    between atoms: C_11  and  C_12
REMARK    4  A    between atoms: C_15  and  C_16
REMARK                            x       y       z     vdW  Elec       q    Type
REMARK                         _______ _______ _______ _____ _____    ______ ____
ROOT
ATOM      1  C   UNL     1      21.243  -8.616  25.787  0.00  0.00    +0.000 C 
ATOM      2  C   UNL     1      21.079  -7.388  25.396  0.00  0.00    +0.000 C 
ATOM      3  N   UNL     1      22.003  -6.745  24.515  0.00  0.00    +0.000 NA
ATOM      4  O   UNL     1      19.995  -6.634  25.810  0.00  0.00    +0.000 OA
ATOM      5  C   UNL     1      19.097  -7.243  26.653  0.00  0.00    +0.000 C 
ATOM      6  C   UNL     1      17.890  -6.443  27.128  0.00  0.00    +0.000 C 
ATOM      7  C   UNL     1      19.187  -8.445  27.084  0.00  0.00    +0.000 C 
ATOM      8  C   UNL     1      20.353  -9.377  26.728  0.00  0.00    +0.000 C 
ENDROOT
BRANCH   8   9
ATOM      9  C   UNL     1      19.699 -10.403  25.737  0.00  0.00    +0.000 A 
ATOM     10  S   UNL     1      18.807  -9.940  24.328  0.00  0.00    +0.000 S 
ATOM     11  C   UNL     1      18.424 -11.530  23.783  0.00  0.00    +0.000 A 
ATOM     12  C   UNL     1      19.000 -12.297  24.710  0.00  0.00    +0.000 A 
ATOM     13  C   UNL     1      19.662 -11.723  25.724  0.00  0.00    +0.000 A 
ATOM     14  C   UNL     1      20.317 -12.566  26.770  0.00  0.00    +0.000 C 
ENDBRANCH   8   9
BRANCH   7  15
ATOM     15  C   UNL     1      18.149  -8.999  27.994  0.00  0.00    +0.000 C 
ATOM     16  C   UNL     1      18.497  -9.173  29.407  0.00  0.00    +0.000 C 
ATOM     17  O   UNL     1      17.004  -9.321  27.620  0.00  0.00    +0.000 OA
ENDBRANCH   7  15
BRANCH   1  18
ATOM     18  C   UNL     1      22.423  -9.326  25.284  0.00  0.00    +0.000 C 
ATOM     19  O   UNL     1      23.311  -9.658  26.074  0.00  0.00    +0.000 OA
BRANCH  18  21
ATOM     20  C   UNL     1      22.480 -10.971  23.447  0.00  0.00    +0.000 C 
ATOM     21  O   UNL     1      22.591  -9.648  23.944  0.00  0.00    +0.000 OA
ENDBRANCH  18  21
ENDBRANCH   1  18
TORSDOF 4
ENDMDL
