MODEL 1
REMARK VINA RESULT:      -6.9      0.000      0.000
REMARK  Name = 
REMARK  5 active torsions:
REMARK  status: ('A' for Active; 'I' for Inactive)
REMARK    1  A    between atoms: C_2  and  C_3
REMARK    2  A    between atoms: C_3  and  S_4
REMARK    3  A    between atoms: S_4  and  C_5
REMARK    4  A    between atoms: C_7  and  C_8
REMARK    5  A    between atoms: C_11  and  C_12
REMARK                            x       y       z     vdW  Elec       q    Type
REMARK                         _______ _______ _______ _____ _____    ______ ____
ROOT
ATOM      1  C   UNL     1      16.256  11.149  34.987  0.00  0.00    +0.000 A 
ATOM      2  C   UNL     1      15.208  12.054  34.929  0.00  0.00    +0.000 A 
ATOM      3  C   UNL     1      14.746  12.582  33.724  0.00  0.00    +0.000 A 
ATOM      4  C   UNL     1      15.313  12.233  32.535  0.00  0.00    +0.000 A 
ATOM      5  C   UNL     1      16.361  11.330  32.585  0.00  0.00    +0.000 A 
ATOM      6  C   UNL     1      16.814  10.808  33.767  0.00  0.00    +0.000 A 
ENDROOT
BRANCH   1   9
ATOM      7  C   UNL     1      17.850   9.735  37.925  0.00  0.00    +0.000 A 
ATOM      8  N   UNL     1      17.822   9.926  36.592  0.00  0.00    +0.000 NA
ATOM      9  C   UNL     1      16.729  10.634  36.265  0.00  0.00    +0.000 A 
ATOM     10  N   UNL     1      16.082  10.868  37.458  0.00  0.00    +0.000 NA
ATOM     11  N   UNL     1      16.760  10.327  38.443  0.00  0.00    +0.000 NA
BRANCH   7  12
ATOM     12  S   UNL     1      19.119   8.938  38.939  0.00  0.00    +0.000 S 
BRANCH  12  13
ATOM     13  C   UNL     1      20.544  10.112  38.925  0.00  0.00    +0.000 C 
BRANCH  13  15
ATOM     14  C   UNL     1      21.765   9.833  36.551  0.00  0.00    +0.000 C 
ATOM     15  C   UNL     1      21.230   9.963  37.600  0.00  0.00    +0.000 C 
ENDBRANCH  13  15
ENDBRANCH  12  13
ENDBRANCH   7  12
ENDBRANCH   1   9
BRANCH   4  16
ATOM     16  C   UNL     1      14.850  12.774  31.210  0.00  0.00    +0.000 C 
ATOM     17  C   UNL     1      14.396  11.575  30.394  0.00  0.00    +0.000 C 
ATOM     18  C   UNL     1      15.943  13.530  30.482  0.00  0.00    +0.000 C 
ATOM     19  C   UNL     1      13.692  13.699  31.443  0.00  0.00    +0.000 C 
ENDBRANCH   4  16
TORSDOF 5
ENDMDL
MODEL 2
REMARK VINA RESULT:      -6.8      1.989      3.185
REMARK  Name = 
REMARK  5 active torsions:
REMARK  status: ('A' for Active; 'I' for Inactive)
REMARK    1  A    between atoms: C_2  and  C_3
REMARK    2  A    between atoms: C_3  and  S_4
REMARK    3  A    between atoms: S_4  and  C_5
REMARK    4  A    between atoms: C_7  and  C_8
REMARK    5  A    between atoms: C_11  and  C_12
REMARK                            x       y       z     vdW  Elec       q    Type
REMARK                         _______ _______ _______ _____ _____    ______ ____
ROOT
ATOM      1  C   UNL     1      16.902  10.808  35.212  0.00  0.00    +0.000 A 
ATOM      2  C   UNL     1      15.859  11.720  35.251  0.00  0.00    +0.000 A 
ATOM      3  C   UNL     1      15.252  12.207  34.096  0.00  0.00    +0.000 A 
ATOM      4  C   UNL     1      15.665  11.810  32.858  0.00  0.00    +0.000 A 
ATOM      5  C   UNL     1      16.706  10.900  32.811  0.00  0.00    +0.000 A 
ATOM      6  C   UNL     1      17.302  10.418  33.945  0.00  0.00    +0.000 A 
ENDROOT
BRANCH   1   9
ATOM      7  C   UNL     1      18.029   9.728  38.488  0.00  0.00    +0.000 A 
ATOM      8  N   UNL     1      17.104  10.324  37.712  0.00  0.00    +0.000 NA
ATOM      9  C   UNL     1      17.530  10.336  36.439  0.00  0.00    +0.000 A 
ATOM     10  N   UNL     1      18.764   9.723  36.467  0.00  0.00    +0.000 NA
ATOM     11  N   UNL     1      19.052   9.363  37.696  0.00  0.00    +0.000 NA
BRANCH   7  12
ATOM     12  S   UNL     1      17.962   9.346  40.256  0.00  0.00    +0.000 S 
BRANCH  12  13
ATOM     13  C   UNL     1      16.173   9.451  40.696  0.00  0.00    +0.000 C 
BRANCH  13  15
ATOM     14  C   UNL     1      15.715   7.620  42.606  0.00  0.00    +0.000 C 
ATOM     15  C   UNL     1      15.915   8.423  41.757  0.00  0.00    +0.000 C 
ENDBRANCH  13  15
ENDBRANCH  12  13
ENDBRANCH   7  12
ENDBRANCH   1   9
BRANCH   4  16
ATOM     16  C   UNL     1      15.041  12.307  31.582  0.00  0.00    +0.000 C 
ATOM     17  C   UNL     1      16.172  12.896  30.755  0.00  0.00    +0.000 C 
ATOM     18  C   UNL     1      13.967  13.346  31.832  0.00  0.00    +0.000 C 
ATOM     19  C   UNL     1      14.432  11.143  30.857  0.00  0.00    +0.000 C 
ENDBRANCH   4  16
TORSDOF 5
ENDMDL
MODEL 3
REMARK VINA RESULT:      -6.8      1.777      2.822
REMARK  Name = 
REMARK  5 active torsions:
REMARK  status: ('A' for Active; 'I' for Inactive)
REMARK    1  A    between atoms: C_2  and  C_3
REMARK    2  A    between atoms: C_3  and  S_4
REMARK    3  A    between atoms: S_4  and  C_5
REMARK    4  A    between atoms: C_7  and  C_8
REMARK    5  A    between atoms: C_11  and  C_12
REMARK                            x       y       z     vdW  Elec       q    Type
REMARK                         _______ _______ _______ _____ _____    ______ ____
ROOT
ATOM      1  C   UNL     1      15.864  11.475  35.114  0.00  0.00    +0.000 A 
ATOM      2  C   UNL     1      16.545  10.999  34.004  0.00  0.00    +0.000 A 
ATOM      3  C   UNL     1      16.247  11.421  32.710  0.00  0.00    +0.000 A 
ATOM      4  C   UNL     1      15.258  12.328  32.472  0.00  0.00    +0.000 A 
ATOM      5  C   UNL     1      14.573  12.807  33.575  0.00  0.00    +0.000 A 
ATOM      6  C   UNL     1      14.866  12.396  34.847  0.00  0.00    +0.000 A 
ENDROOT
BRANCH   1   9
ATOM      7  C   UNL     1      17.127  10.216  38.275  0.00  0.00    +0.000 A 
ATOM      8  N   UNL     1      17.300  10.446  36.960  0.00  0.00    +0.000 NA
ATOM      9  C   UNL     1      16.184  10.994  36.451  0.00  0.00    +0.000 A 
ATOM     10  N   UNL     1      15.313  11.087  37.515  0.00  0.00    +0.000 NA
ATOM     11  N   UNL     1      15.887  10.620  38.599  0.00  0.00    +0.000 NA
BRANCH   7  12
ATOM     12  S   UNL     1      18.311   9.584  39.490  0.00  0.00    +0.000 S 
BRANCH  12  13
ATOM     13  C   UNL     1      17.307   9.263  41.006  0.00  0.00    +0.000 C 
BRANCH  13  15
ATOM     14  C   UNL     1      16.923   6.612  41.176  0.00  0.00    +0.000 C 
ATOM     15  C   UNL     1      17.098   7.781  41.095  0.00  0.00    +0.000 C 
ENDBRANCH  13  15
ENDBRANCH  12  13
ENDBRANCH   7  12
ENDBRANCH   1   9
BRANCH   4  16
ATOM     16  C   UNL     1      14.900  12.816  31.095  0.00  0.00    +0.000 C 
ATOM     17  C   UNL     1      13.823  13.872  31.281  0.00  0.00    +0.000 C 
ATOM     18  C   UNL     1      14.402  11.700  30.199  0.00  0.00    +0.000 C 
ATOM     19  C   UNL     1      16.116  13.434  30.469  0.00  0.00    +0.000 C 
ENDBRANCH   4  16
TORSDOF 5
ENDMDL
MODEL 4
REMARK VINA RESULT:      -6.2      1.301      2.100
REMARK  Name = 
REMARK  5 active torsions:
REMARK  status: ('A' for Active; 'I' for Inactive)
REMARK    1  A    between atoms: C_2  and  C_3
REMARK    2  A    between atoms: C_3  and  S_4
REMARK    3  A    between atoms: S_4  and  C_5
REMARK    4  A    between atoms: C_7  and  C_8
REMARK    5  A    between atoms: C_11  and  C_12
REMARK                            x       y       z     vdW  Elec       q    Type
REMARK                         _______ _______ _______ _____ _____    ______ ____
ROOT
ATOM      1  C   UNL     1      17.145  10.764  35.538  0.00  0.00    +0.000 A 
ATOM      2  C   UNL     1      17.560  10.316  34.294  0.00  0.00    +0.000 A 
ATOM      3  C   UNL     1      16.937  10.716  33.113  0.00  0.00    +0.000 A 
ATOM      4  C   UNL     1      15.876  11.572  33.127  0.00  0.00    +0.000 A 
ATOM      5  C   UNL     1      15.455  12.023  34.366  0.00  0.00    +0.000 A 
ATOM      6  C   UNL     1      16.068  11.633  35.527  0.00  0.00    +0.000 A 
ENDROOT
BRANCH   1   9
ATOM      7  C   UNL     1      19.213   9.715  38.330  0.00  0.00    +0.000 A 
ATOM      8  N   UNL     1      19.094  10.073  37.037  0.00  0.00    +0.000 NA
ATOM      9  C   UNL     1      17.803  10.307  36.755  0.00  0.00    +0.000 A 
ATOM     10  N   UNL     1      17.129  10.072  37.934  0.00  0.00    +0.000 NA
ATOM     11  N   UNL     1      17.981   9.720  38.868  0.00  0.00    +0.000 NA
BRANCH   7  12
ATOM     12  S   UNL     1      20.710   9.372  39.288  0.00  0.00    +0.000 S 
BRANCH  12  13
ATOM     13  C   UNL     1      22.102   9.893  38.194  0.00  0.00    +0.000 C 
BRANCH  13  15
ATOM     14  C   UNL     1      22.420  12.541  38.504  0.00  0.00    +0.000 C 
ATOM     15  C   UNL     1      22.272  11.373  38.366  0.00  0.00    +0.000 C 
ENDBRANCH  13  15
ENDBRANCH  12  13
ENDBRANCH   7  12
ENDBRANCH   1   9
BRANCH   4  16
ATOM     16  C   UNL     1      15.172  12.033  31.880  0.00  0.00    +0.000 C 
ATOM     17  C   UNL     1      14.206  13.124  32.313  0.00  0.00    +0.000 C 
ATOM     18  C   UNL     1      14.428  10.909  31.188  0.00  0.00    +0.000 C 
ATOM     19  C   UNL     1      16.188  12.600  30.932  0.00  0.00    +0.000 C 
ENDBRANCH   4  16
TORSDOF 5
ENDMDL
MODEL 5
REMARK VINA RESULT:      -6.2      2.271      3.034
REMARK  Name = 
REMARK  5 active torsions:
REMARK  status: ('A' for Active; 'I' for Inactive)
REMARK    1  A    between atoms: C_2  and  C_3
REMARK    2  A    between atoms: C_3  and  S_4
REMARK    3  A    between atoms: S_4  and  C_5
REMARK    4  A    between atoms: C_7  and  C_8
REMARK    5  A    between atoms: C_11  and  C_12
REMARK                            x       y       z     vdW  Elec       q    Type
REMARK                         _______ _______ _______ _____ _____    ______ ____
ROOT
ATOM      1  C   UNL     1      17.316  10.874  35.958  0.00  0.00    +0.000 A 
ATOM      2  C   UNL     1      17.638  10.249  34.764  0.00  0.00    +0.000 A 
ATOM      3  C   UNL     1      16.973  10.532  33.572  0.00  0.00    +0.000 A 
ATOM      4  C   UNL     1      15.958  11.442  33.527  0.00  0.00    +0.000 A 
ATOM      5  C   UNL     1      15.630  12.069  34.716  0.00  0.00    +0.000 A 
ATOM      6  C   UNL     1      16.285  11.795  35.886  0.00  0.00    +0.000 A 
ENDROOT
BRANCH   1   9
ATOM      7  C   UNL     1      18.991   9.560  38.897  0.00  0.00    +0.000 A 
ATOM      8  N   UNL     1      18.238   9.362  37.798  0.00  0.00    +0.000 NA
ATOM      9  C   UNL     1      18.015  10.538  37.190  0.00  0.00    +0.000 A 
ATOM     10  N   UNL     1      18.664  11.472  37.969  0.00  0.00    +0.000 NA
ATOM     11  N   UNL     1      19.243  10.877  38.985  0.00  0.00    +0.000 NA
BRANCH   7  12
ATOM     12  S   UNL     1      19.675   8.343  40.048  0.00  0.00    +0.000 S 
BRANCH  12  13
ATOM     13  C   UNL     1      18.385   7.028  40.170  0.00  0.00    +0.000 C 
BRANCH  13  15
ATOM     14  C   UNL     1      19.643   4.657  40.103  0.00  0.00    +0.000 C 
ATOM     15  C   UNL     1      19.091   5.706  40.126  0.00  0.00    +0.000 C 
ENDBRANCH  13  15
ENDBRANCH  12  13
ENDBRANCH   7  12
ENDBRANCH   1   9
BRANCH   4  16
ATOM     16  C   UNL     1      15.211  11.782  32.266  0.00  0.00    +0.000 C 
ATOM     17  C   UNL     1      14.242  12.894  32.630  0.00  0.00    +0.000 C 
ATOM     18  C   UNL     1      14.465  10.591  31.699  0.00  0.00    +0.000 C 
ATOM     19  C   UNL     1      16.190  12.275  31.241  0.00  0.00    +0.000 C 
ENDBRANCH   4  16
TORSDOF 5
ENDMDL
MODEL 6
REMARK VINA RESULT:      -6.0     27.336     29.160
REMARK  Name = 
REMARK  5 active torsions:
REMARK  status: ('A' for Active; 'I' for Inactive)
REMARK    1  A    between atoms: C_2  and  C_3
REMARK    2  A    between atoms: C_3  and  S_4
REMARK    3  A    between atoms: S_4  and  C_5
REMARK    4  A    between atoms: C_7  and  C_8
REMARK    5  A    between atoms: C_11  and  C_12
REMARK                            x       y       z     vdW  Elec       q    Type
REMARK                         _______ _______ _______ _____ _____    ______ ____
ROOT
ATOM      1  C   UNL     1      31.055  21.941  11.699  0.00  0.00    +0.000 A 
ATOM      2  C   UNL     1      30.590  22.667  12.784  0.00  0.00    +0.000 A 
ATOM      3  C   UNL     1      29.251  23.030  12.918  0.00  0.00    +0.000 A 
ATOM      4  C   UNL     1      28.328  22.689  11.974  0.00  0.00    +0.000 A 
ATOM      5  C   UNL     1      28.786  21.965  10.887  0.00  0.00    +0.000 A 
ATOM      6  C   UNL     1      30.100  21.605  10.756  0.00  0.00    +0.000 A 
ENDROOT
BRANCH   1   9
ATOM      7  C   UNL     1      34.449  20.657  11.623  0.00  0.00    +0.000 A 
ATOM      8  N   UNL     1      33.176  20.562  12.052  0.00  0.00    +0.000 NA
ATOM      9  C   UNL     1      32.466  21.598  11.579  0.00  0.00    +0.000 A 
ATOM     10  N   UNL     1      33.362  22.340  10.841  0.00  0.00    +0.000 NA
ATOM     11  N   UNL     1      34.543  21.769  10.874  0.00  0.00    +0.000 NA
BRANCH   7  12
ATOM     12  S   UNL     1      35.826  19.508  11.866  0.00  0.00    +0.000 S 
BRANCH  12  13
ATOM     13  C   UNL     1      36.278  19.679  13.648  0.00  0.00    +0.000 C 
BRANCH  13  15
ATOM     14  C   UNL     1      36.050  17.252  14.770  0.00  0.00    +0.000 C 
ATOM     15  C   UNL     1      36.143  18.323  14.273  0.00  0.00    +0.000 C 
ENDBRANCH  13  15
ENDBRANCH  12  13
ENDBRANCH   7  12
ENDBRANCH   1   9
BRANCH   4  16
ATOM     16  C   UNL     1      26.872  23.057  12.074  0.00  0.00    +0.000 C 
ATOM     17  C   UNL     1      26.122  22.076  11.188  0.00  0.00    +0.000 C 
ATOM     18  C   UNL     1      26.606  24.482  11.633  0.00  0.00    +0.000 C 
ATOM     19  C   UNL     1      26.429  22.898  13.498  0.00  0.00    +0.000 C 
ENDBRANCH   4  16
TORSDOF 5
ENDMDL
MODEL 7
REMARK VINA RESULT:      -5.9     18.414     20.841
REMARK  Name = 
REMARK  5 active torsions:
REMARK  status: ('A' for Active; 'I' for Inactive)
REMARK    1  A    between atoms: C_2  and  C_3
REMARK    2  A    between atoms: C_3  and  S_4
REMARK    3  A    between atoms: S_4  and  C_5
REMARK    4  A    between atoms: C_7  and  C_8
REMARK    5  A    between atoms: C_11  and  C_12
REMARK                            x       y       z     vdW  Elec       q    Type
REMARK                         _______ _______ _______ _____ _____    ______ ____
ROOT
ATOM      1  C   UNL     1      33.374   0.496  34.765  0.00  0.00    +0.000 A 
ATOM      2  C   UNL     1      33.738   0.982  36.011  0.00  0.00    +0.000 A 
ATOM      3  C   UNL     1      33.986   2.334  36.239  0.00  0.00    +0.000 A 
ATOM      4  C   UNL     1      33.889   3.251  35.235  0.00  0.00    +0.000 A 
ATOM      5  C   UNL     1      33.527   2.772  33.988  0.00  0.00    +0.000 A 
ATOM      6  C   UNL     1      33.279   1.445  33.763  0.00  0.00    +0.000 A 
ENDROOT
BRANCH   1   9
ATOM      7  C   UNL     1      33.267  -3.063  34.063  0.00  0.00    +0.000 A 
ATOM      8  N   UNL     1      33.882  -1.871  33.948  0.00  0.00    +0.000 NA
ATOM      9  C   UNL     1      33.145  -0.927  34.556  0.00  0.00    +0.000 A 
ATOM     10  N   UNL     1      32.043  -1.594  35.047  0.00  0.00    +0.000 NA
ATOM     11  N   UNL     1      32.127  -2.869  34.747  0.00  0.00    +0.000 NA
BRANCH   7  12
ATOM     12  S   UNL     1      33.832  -4.697  33.524  0.00  0.00    +0.000 S 
BRANCH  12  13
ATOM     13  C   UNL     1      33.504  -4.736  31.708  0.00  0.00    +0.000 C 
BRANCH  13  15
ATOM     14  C   UNL     1      35.092  -6.618  30.641  0.00  0.00    +0.000 C 
ATOM     15  C   UNL     1      34.396  -5.786  31.117  0.00  0.00    +0.000 C 
ENDBRANCH  13  15
ENDBRANCH  12  13
ENDBRANCH   7  12
ENDBRANCH   1   9
BRANCH   4  16
ATOM     16  C   UNL     1      34.146   4.720  35.431  0.00  0.00    +0.000 C 
ATOM     17  C   UNL     1      33.327   5.442  34.375  0.00  0.00    +0.000 C 
ATOM     18  C   UNL     1      35.614   5.071  35.298  0.00  0.00    +0.000 C 
ATOM     19  C   UNL     1      33.674   5.115  36.800  0.00  0.00    +0.000 C 
ENDBRANCH   4  16
TORSDOF 5
ENDMDL
MODEL 8
REMARK VINA RESULT:      -5.8     18.555     20.682
REMARK  Name = 
REMARK  5 active torsions:
REMARK  status: ('A' for Active; 'I' for Inactive)
REMARK    1  A    between atoms: C_2  and  C_3
REMARK    2  A    between atoms: C_3  and  S_4
REMARK    3  A    between atoms: S_4  and  C_5
REMARK    4  A    between atoms: C_7  and  C_8
REMARK    5  A    between atoms: C_11  and  C_12
REMARK                            x       y       z     vdW  Elec       q    Type
REMARK                         _______ _______ _______ _____ _____    ______ ____
ROOT
ATOM      1  C   UNL     1      33.664   1.022  34.379  0.00  0.00    +0.000 A 
ATOM      2  C   UNL     1      33.480   0.338  35.570  0.00  0.00    +0.000 A 
ATOM      3  C   UNL     1      33.459  -1.054  35.633  0.00  0.00    +0.000 A 
ATOM      4  C   UNL     1      33.615  -1.816  34.513  0.00  0.00    +0.000 A 
ATOM      5  C   UNL     1      33.798  -1.140  33.320  0.00  0.00    +0.000 A 
ATOM      6  C   UNL     1      33.821   0.228  33.256  0.00  0.00    +0.000 A 
ENDROOT
BRANCH   1   9
ATOM      7  C   UNL     1      33.883   4.627  34.730  0.00  0.00    +0.000 A 
ATOM      8  N   UNL     1      34.024   3.395  35.253  0.00  0.00    +0.000 NA
ATOM      9  C   UNL     1      33.656   2.478  34.344  0.00  0.00    +0.000 A 
ATOM     10  N   UNL     1      33.276   3.204  33.236  0.00  0.00    +0.000 NA
ATOM     11  N   UNL     1      33.416   4.487  33.477  0.00  0.00    +0.000 NA
BRANCH   7  12
ATOM     12  S   UNL     1      34.308   6.232  35.452  0.00  0.00    +0.000 S 
BRANCH  12  13
ATOM     13  C   UNL     1      36.100   6.463  35.070  0.00  0.00    +0.000 C 
BRANCH  13  15
ATOM     14  C   UNL     1      37.489   4.898  36.751  0.00  0.00    +0.000 C 
ATOM     15  C   UNL     1      36.871   5.583  36.008  0.00  0.00    +0.000 C 
ENDBRANCH  13  15
ENDBRANCH  12  13
ENDBRANCH   7  12
ENDBRANCH   1   9
BRANCH   4  16
ATOM     16  C   UNL     1      33.601  -3.320  34.531  0.00  0.00    +0.000 C 
ATOM     17  C   UNL     1      32.300  -3.728  35.201  0.00  0.00    +0.000 C 
ATOM     18  C   UNL     1      34.787  -3.899  35.276  0.00  0.00    +0.000 C 
ATOM     19  C   UNL     1      33.625  -3.821  33.117  0.00  0.00    +0.000 C 
ENDBRANCH   4  16
TORSDOF 5
ENDMDL
MODEL 9
REMARK VINA RESULT:      -5.7     21.636     22.797
REMARK  Name = 
REMARK  5 active torsions:
REMARK  status: ('A' for Active; 'I' for Inactive)
REMARK    1  A    between atoms: C_2  and  C_3
REMARK    2  A    between atoms: C_3  and  S_4
REMARK    3  A    between atoms: S_4  and  C_5
REMARK    4  A    between atoms: C_7  and  C_8
REMARK    5  A    between atoms: C_11  and  C_12
REMARK                            x       y       z     vdW  Elec       q    Type
REMARK                         _______ _______ _______ _____ _____    ______ ____
ROOT
ATOM      1  C   UNL     1      22.272  -7.585  25.039  0.00  0.00    +0.000 A 
ATOM      2  C   UNL     1      21.444  -6.475  25.103  0.00  0.00    +0.000 A 
ATOM      3  C   UNL     1      20.170  -6.527  25.665  0.00  0.00    +0.000 A 
ATOM      4  C   UNL     1      19.671  -7.687  26.179  0.00  0.00    +0.000 A 
ATOM      5  C   UNL     1      20.491  -8.800  26.118  0.00  0.00    +0.000 A 
ATOM      6  C   UNL     1      21.744  -8.749  25.569  0.00  0.00    +0.000 A 
ENDROOT
BRANCH   1   9
ATOM      7  C   UNL     1      25.528  -7.872  23.464  0.00  0.00    +0.000 A 
ATOM      8  N   UNL     1      24.458  -8.450  24.041  0.00  0.00    +0.000 NA
ATOM      9  C   UNL     1      23.589  -7.501  24.423  0.00  0.00    +0.000 A 
ATOM     10  N   UNL     1      24.176  -6.309  24.058  0.00  0.00    +0.000 NA
ATOM     11  N   UNL     1      25.334  -6.543  23.485  0.00  0.00    +0.000 NA
BRANCH   7  12
ATOM     12  S   UNL     1      26.964  -8.650  22.681  0.00  0.00    +0.000 S 
BRANCH  12  13
ATOM     13  C   UNL     1      27.929  -7.248  21.965  0.00  0.00    +0.000 C 
BRANCH  13  15
ATOM     14  C   UNL     1      30.524  -7.727  22.460  0.00  0.00    +0.000 C 
ATOM     15  C   UNL     1      29.377  -7.515  22.249  0.00  0.00    +0.000 C 
ENDBRANCH  13  15
ENDBRANCH  12  13
ENDBRANCH   7  12
ENDBRANCH   1   9
BRANCH   4  16
ATOM     16  C   UNL     1      18.303  -7.794  26.797  0.00  0.00    +0.000 C 
ATOM     17  C   UNL     1      18.467  -8.628  28.057  0.00  0.00    +0.000 C 
ATOM     18  C   UNL     1      17.297  -8.435  25.863  0.00  0.00    +0.000 C 
ATOM     19  C   UNL     1      17.825  -6.418  27.156  0.00  0.00    +0.000 C 
ENDBRANCH   4  16
TORSDOF 5
ENDMDL
MODEL 10
REMARK VINA RESULT:      -5.7     19.994     21.440
REMARK  Name = 
REMARK  5 active torsions:
REMARK  status: ('A' for Active; 'I' for Inactive)
REMARK    1  A    between atoms: C_2  and  C_3
REMARK    2  A    between atoms: C_3  and  S_4
REMARK    3  A    between atoms: S_4  and  C_5
REMARK    4  A    between atoms: C_7  and  C_8
REMARK    5  A    between atoms: C_11  and  C_12
REMARK                            x       y       z     vdW  Elec       q    Type
REMARK                         _______ _______ _______ _____ _____    ______ ____
ROOT
ATOM      1  C   UNL     1      24.131   3.609  17.694  0.00  0.00    +0.000 A 
ATOM      2  C   UNL     1      24.533   4.228  16.520  0.00  0.00    +0.000 A 
ATOM      3  C   UNL     1      25.662   5.041  16.457  0.00  0.00    +0.000 A 
ATOM      4  C   UNL     1      26.430   5.275  17.560  0.00  0.00    +0.000 A 
ATOM      5  C   UNL     1      26.034   4.661  18.735  0.00  0.00    +0.000 A 
ATOM      6  C   UNL     1      24.926   3.859  18.799  0.00  0.00    +0.000 A 
ENDROOT
BRANCH   1   9
ATOM      7  C   UNL     1      20.904   1.952  17.606  0.00  0.00    +0.000 A 
ATOM      8  N   UNL     1      21.640   3.074  17.503  0.00  0.00    +0.000 NA
ATOM      9  C   UNL     1      22.931   2.784  17.731  0.00  0.00    +0.000 A 
ATOM     10  N   UNL     1      22.955   1.430  17.984  0.00  0.00    +0.000 NA
ATOM     11  N   UNL     1      21.739   0.943  17.905  0.00  0.00    +0.000 NA
BRANCH   7  12
ATOM     12  S   UNL     1      19.133   1.717  17.313  0.00  0.00    +0.000 S 
BRANCH  12  13
ATOM     13  C   UNL     1      19.040   0.591  15.853  0.00  0.00    +0.000 C 
BRANCH  13  15
ATOM     14  C   UNL     1      16.667  -0.660  15.947  0.00  0.00    +0.000 C 
ATOM     15  C   UNL     1      17.714  -0.107  15.913  0.00  0.00    +0.000 C 
ENDBRANCH  13  15
ENDBRANCH  12  13
ENDBRANCH   7  12
ENDBRANCH   1   9
BRANCH   4  16
ATOM     16  C   UNL     1      27.657   6.144  17.541  0.00  0.00    +0.000 C 
ATOM     17  C   UNL     1      28.847   5.201  17.462  0.00  0.00    +0.000 C 
ATOM     18  C   UNL     1      27.758   7.026  18.769  0.00  0.00    +0.000 C 
ATOM     19  C   UNL     1      27.616   7.015  16.320  0.00  0.00    +0.000 C 
ENDBRANCH   4  16
TORSDOF 5
ENDMDL
