MODEL 1
REMARK VINA RESULT:      -6.3      0.000      0.000
REMARK  Name = 
REMARK  5 active torsions:
REMARK  status: ('A' for Active; 'I' for Inactive)
REMARK    1  A    between atoms: O_2  and  C_3
REMARK    2  A    between atoms: C_5  and  C_6
REMARK    3  A    between atoms: C_6  and  N_7
REMARK    4  A    between atoms: N_7  and  C_8
REMARK    5  A    between atoms: C_13  and  S_14
REMARK                            x       y       z     vdW  Elec       q    Type
REMARK                         _______ _______ _______ _____ _____    ______ ____
ROOT
ATOM      1  C   UNL     1      25.867  22.953  25.057  0.00  0.00    +0.000 C 
ENDROOT
BRANCH   1   4
ATOM      2  C   UNL     1      29.138  23.581  23.259  0.00  0.00    +0.000 A 
ATOM      3  C   UNL     1      28.216  23.246  24.228  0.00  0.00    +0.000 A 
ATOM      4  C   UNL     1      26.846  23.316  23.995  0.00  0.00    +0.000 A 
ATOM      5  C   UNL     1      26.472  23.739  22.737  0.00  0.00    +0.000 A 
ATOM      6  C   UNL     1      27.379  24.078  21.757  0.00  0.00    +0.000 A 
ATOM      7  C   UNL     1      28.735  24.007  21.999  0.00  0.00    +0.000 A 
ATOM      8  O   UNL     1      29.681  24.337  21.043  0.00  0.00    +0.000 OA
BRANCH   2  10
ATOM      9  C   UNL     1      31.064  24.401  24.434  0.00  0.00    +0.000 C 
ATOM     10  O   UNL     1      30.496  23.513  23.490  0.00  0.00    +0.000 OA
ENDBRANCH   2  10
ENDBRANCH   1   4
BRANCH   1  11
ATOM     11  N   UNL     1      26.490  23.196  26.332  0.00  0.00    +0.000 NA
BRANCH  11  12
ATOM     12  C   UNL     1      25.874  24.072  27.247  0.00  0.00    +0.000 A 
ATOM     13  C   UNL     1      24.995  25.021  26.785  0.00  0.00    +0.000 A 
ATOM     14  C   UNL     1      24.388  25.872  27.661  0.00  0.00    +0.000 A 
ATOM     15  C   UNL     1      24.670  25.762  29.010  0.00  0.00    +0.000 A 
ATOM     16  C   UNL     1      25.555  24.810  29.491  0.00  0.00    +0.000 A 
ATOM     17  C   UNL     1      26.170  23.946  28.583  0.00  0.00    +0.000 A 
BRANCH  17  18
ATOM     18  S   UNL     1      27.319  22.688  29.080  0.00  0.00    +0.000 S 
ATOM     19  C   UNL     1      26.681  21.625  30.370  0.00  0.00    +0.000 C 
ENDBRANCH  17  18
ENDBRANCH  11  12
ENDBRANCH   1  11
TORSDOF 5
ENDMDL
MODEL 2
REMARK VINA RESULT:      -5.8     30.967     32.821
REMARK  Name = 
REMARK  5 active torsions:
REMARK  status: ('A' for Active; 'I' for Inactive)
REMARK    1  A    between atoms: O_2  and  C_3
REMARK    2  A    between atoms: C_5  and  C_6
REMARK    3  A    between atoms: C_6  and  N_7
REMARK    4  A    between atoms: N_7  and  C_8
REMARK    5  A    between atoms: C_13  and  S_14
REMARK                            x       y       z     vdW  Elec       q    Type
REMARK                         _______ _______ _______ _____ _____    ______ ____
ROOT
ATOM      1  C   UNL     1      21.781  -6.252  24.954  0.00  0.00    +0.000 C 
ENDROOT
BRANCH   1   4
ATOM      2  C   UNL     1      18.523  -7.629  26.298  0.00  0.00    +0.000 A 
ATOM      3  C   UNL     1      19.776  -7.543  25.730  0.00  0.00    +0.000 A 
ATOM      4  C   UNL     1      20.430  -6.324  25.574  0.00  0.00    +0.000 A 
ATOM      5  C   UNL     1      19.746  -5.214  26.022  0.00  0.00    +0.000 A 
ATOM      6  C   UNL     1      18.492  -5.283  26.592  0.00  0.00    +0.000 A 
ATOM      7  C   UNL     1      17.853  -6.496  26.741  0.00  0.00    +0.000 A 
ATOM      8  O   UNL     1      16.595  -6.610  27.308  0.00  0.00    +0.000 OA
BRANCH   2  10
ATOM      9  C   UNL     1      18.157  -9.611  27.602  0.00  0.00    +0.000 C 
ATOM     10  O   UNL     1      17.874  -8.837  26.452  0.00  0.00    +0.000 OA
ENDBRANCH   2  10
ENDBRANCH   1   4
BRANCH   1  11
ATOM     11  N   UNL     1      22.412  -7.535  25.120  0.00  0.00    +0.000 NA
BRANCH  11  12
ATOM     12  C   UNL     1      23.623  -7.803  24.453  0.00  0.00    +0.000 A 
ATOM     13  C   UNL     1      24.355  -6.760  23.939  0.00  0.00    +0.000 A 
ATOM     14  C   UNL     1      25.531  -7.005  23.295  0.00  0.00    +0.000 A 
ATOM     15  C   UNL     1      25.972  -8.310  23.170  0.00  0.00    +0.000 A 
ATOM     16  C   UNL     1      25.244  -9.372  23.683  0.00  0.00    +0.000 A 
ATOM     17  C   UNL     1      24.040  -9.107  24.340  0.00  0.00    +0.000 A 
BRANCH  17  18
ATOM     18  S   UNL     1      23.025 -10.384  25.036  0.00  0.00    +0.000 S 
ATOM     19  C   UNL     1      22.325 -11.475  23.803  0.00  0.00    +0.000 C 
ENDBRANCH  17  18
ENDBRANCH  11  12
ENDBRANCH   1  11
TORSDOF 5
ENDMDL
MODEL 3
REMARK VINA RESULT:      -5.8     19.946     21.918
REMARK  Name = 
REMARK  5 active torsions:
REMARK  status: ('A' for Active; 'I' for Inactive)
REMARK    1  A    between atoms: O_2  and  C_3
REMARK    2  A    between atoms: C_5  and  C_6
REMARK    3  A    between atoms: C_6  and  N_7
REMARK    4  A    between atoms: N_7  and  C_8
REMARK    5  A    between atoms: C_13  and  S_14
REMARK                            x       y       z     vdW  Elec       q    Type
REMARK                         _______ _______ _______ _____ _____    ______ ____
ROOT
ATOM      1  C   UNL     1      18.696  10.309  38.651  0.00  0.00    +0.000 C 
ENDROOT
BRANCH   1   4
ATOM      2  C   UNL     1      16.449  11.147  35.724  0.00  0.00    +0.000 A 
ATOM      3  C   UNL     1      17.027  11.143  36.975  0.00  0.00    +0.000 A 
ATOM      4  C   UNL     1      18.088  10.300  37.292  0.00  0.00    +0.000 A 
ATOM      5  C   UNL     1      18.519   9.470  36.279  0.00  0.00    +0.000 A 
ATOM      6  C   UNL     1      17.952   9.460  35.023  0.00  0.00    +0.000 A 
ATOM      7  C   UNL     1      16.901  10.300  34.719  0.00  0.00    +0.000 A 
ATOM      8  O   UNL     1      16.302  10.324  33.471  0.00  0.00    +0.000 OA
BRANCH   2  10
ATOM      9  C   UNL     1      14.337  12.110  36.337  0.00  0.00    +0.000 C 
ATOM     10  O   UNL     1      15.398  11.983  35.409  0.00  0.00    +0.000 OA
ENDBRANCH   2  10
ENDBRANCH   1   4
BRANCH   1  11
ATOM     11  N   UNL     1      18.642   8.966  39.168  0.00  0.00    +0.000 NA
BRANCH  11  12
ATOM     12  C   UNL     1      17.622   8.614  40.074  0.00  0.00    +0.000 A 
ATOM     13  C   UNL     1      16.633   9.522  40.362  0.00  0.00    +0.000 A 
ATOM     14  C   UNL     1      15.637   9.192  41.233  0.00  0.00    +0.000 A 
ATOM     15  C   UNL     1      15.642   7.939  41.817  0.00  0.00    +0.000 A 
ATOM     16  C   UNL     1      16.634   7.013  41.537  0.00  0.00    +0.000 A 
ATOM     17  C   UNL     1      17.648   7.364  40.643  0.00  0.00    +0.000 A 
BRANCH  17  18
ATOM     18  S   UNL     1      18.969   6.262  40.208  0.00  0.00    +0.000 S 
ATOM     19  C   UNL     1      20.439   6.504  41.198  0.00  0.00    +0.000 C 
ENDBRANCH  17  18
ENDBRANCH  11  12
ENDBRANCH   1  11
TORSDOF 5
ENDMDL
MODEL 4
REMARK VINA RESULT:      -5.7      3.449      5.292
REMARK  Name = 
REMARK  5 active torsions:
REMARK  status: ('A' for Active; 'I' for Inactive)
REMARK    1  A    between atoms: O_2  and  C_3
REMARK    2  A    between atoms: C_5  and  C_6
REMARK    3  A    between atoms: C_6  and  N_7
REMARK    4  A    between atoms: N_7  and  C_8
REMARK    5  A    between atoms: C_13  and  S_14
REMARK                            x       y       z     vdW  Elec       q    Type
REMARK                         _______ _______ _______ _____ _____    ______ ____
ROOT
ATOM      1  C   UNL     1      30.996  22.110  27.520  0.00  0.00    +0.000 C 
ENDROOT
BRANCH   1   4
ATOM      2  C   UNL     1      27.822  22.746  25.559  0.00  0.00    +0.000 A 
ATOM      3  C   UNL     1      28.695  22.482  26.593  0.00  0.00    +0.000 A 
ATOM      4  C   UNL     1      30.070  22.400  26.390  0.00  0.00    +0.000 A 
ATOM      5  C   UNL     1      30.499  22.599  25.095  0.00  0.00    +0.000 A 
ATOM      6  C   UNL     1      29.639  22.862  24.051  0.00  0.00    +0.000 A 
ATOM      7  C   UNL     1      28.279  22.941  24.262  0.00  0.00    +0.000 A 
ATOM      8  O   UNL     1      27.380  23.204  23.242  0.00  0.00    +0.000 OA
BRANCH   2  10
ATOM      9  C   UNL     1      25.960  23.866  26.579  0.00  0.00    +0.000 C 
ATOM     10  O   UNL     1      26.460  22.826  25.760  0.00  0.00    +0.000 OA
ENDBRANCH   2  10
ENDBRANCH   1   4
BRANCH   1  11
ATOM     11  N   UNL     1      30.529  22.836  28.671  0.00  0.00    +0.000 NA
BRANCH  11  12
ATOM     12  C   UNL     1      30.796  22.336  29.960  0.00  0.00    +0.000 A 
ATOM     13  C   UNL     1      32.029  21.793  30.230  0.00  0.00    +0.000 A 
ATOM     14  C   UNL     1      32.303  21.310  31.475  0.00  0.00    +0.000 A 
ATOM     15  C   UNL     1      31.327  21.376  32.453  0.00  0.00    +0.000 A 
ATOM     16  C   UNL     1      30.079  21.921  32.195  0.00  0.00    +0.000 A 
ATOM     17  C   UNL     1      29.812  22.412  30.915  0.00  0.00    +0.000 A 
BRANCH  17  18
ATOM     18  S   UNL     1      28.253  23.132  30.469  0.00  0.00    +0.000 S 
ATOM     19  C   UNL     1      27.023  21.915  30.015  0.00  0.00    +0.000 C 
ENDBRANCH  17  18
ENDBRANCH  11  12
ENDBRANCH   1  11
TORSDOF 5
ENDMDL
MODEL 5
REMARK VINA RESULT:      -5.6     17.642     19.308
REMARK  Name = 
REMARK  5 active torsions:
REMARK  status: ('A' for Active; 'I' for Inactive)
REMARK    1  A    between atoms: O_2  and  C_3
REMARK    2  A    between atoms: C_5  and  C_6
REMARK    3  A    between atoms: C_6  and  N_7
REMARK    4  A    between atoms: N_7  and  C_8
REMARK    5  A    between atoms: C_13  and  S_14
REMARK                            x       y       z     vdW  Elec       q    Type
REMARK                         _______ _______ _______ _____ _____    ______ ____
ROOT
ATOM      1  C   UNL     1      20.002  10.067  37.913  0.00  0.00    +0.000 C 
ENDROOT
BRANCH   1   4
ATOM      2  C   UNL     1      16.959  11.299  36.029  0.00  0.00    +0.000 A 
ATOM      3  C   UNL     1      17.961  11.178  36.968  0.00  0.00    +0.000 A 
ATOM      4  C   UNL     1      18.930  10.183  36.885  0.00  0.00    +0.000 A 
ATOM      5  C   UNL     1      18.823   9.328  35.808  0.00  0.00    +0.000 A 
ATOM      6  C   UNL     1      17.828   9.435  34.861  0.00  0.00    +0.000 A 
ATOM      7  C   UNL     1      16.872  10.425  34.953  0.00  0.00    +0.000 A 
ATOM      8  O   UNL     1      15.856  10.568  34.023  0.00  0.00    +0.000 OA
BRANCH   2  10
ATOM      9  C   UNL     1      14.968  12.143  37.070  0.00  0.00    +0.000 C 
ATOM     10  O   UNL     1      15.999  12.285  36.111  0.00  0.00    +0.000 OA
ENDBRANCH   2  10
ENDBRANCH   1   4
BRANCH   1  11
ATOM     11  N   UNL     1      20.941  11.135  37.693  0.00  0.00    +0.000 NA
BRANCH  11  12
ATOM     12  C   UNL     1      22.263  10.827  37.314  0.00  0.00    +0.000 A 
ATOM     13  C   UNL     1      22.481   9.927  36.298  0.00  0.00    +0.000 A 
ATOM     14  C   UNL     1      23.754   9.624  35.918  0.00  0.00    +0.000 A 
ATOM     15  C   UNL     1      24.813  10.233  36.566  0.00  0.00    +0.000 A 
ATOM     16  C   UNL     1      24.609  11.142  37.593  0.00  0.00    +0.000 A 
ATOM     17  C   UNL     1      23.299  11.443  37.972  0.00  0.00    +0.000 A 
BRANCH  17  18
ATOM     18  S   UNL     1      22.914  12.590  39.270  0.00  0.00    +0.000 S 
ATOM     19  C   UNL     1      22.939  14.295  38.731  0.00  0.00    +0.000 C 
ENDBRANCH  17  18
ENDBRANCH  11  12
ENDBRANCH   1  11
TORSDOF 5
ENDMDL
MODEL 6
REMARK VINA RESULT:      -5.6      3.672      6.873
REMARK  Name = 
REMARK  5 active torsions:
REMARK  status: ('A' for Active; 'I' for Inactive)
REMARK    1  A    between atoms: O_2  and  C_3
REMARK    2  A    between atoms: C_5  and  C_6
REMARK    3  A    between atoms: C_6  and  N_7
REMARK    4  A    between atoms: N_7  and  C_8
REMARK    5  A    between atoms: C_13  and  S_14
REMARK                            x       y       z     vdW  Elec       q    Type
REMARK                         _______ _______ _______ _____ _____    ______ ____
ROOT
ATOM      1  C   UNL     1      26.213  23.946  25.996  0.00  0.00    +0.000 C 
ENDROOT
BRANCH   1   4
ATOM      2  C   UNL     1      25.921  23.765  29.765  0.00  0.00    +0.000 A 
ATOM      3  C   UNL     1      26.171  23.433  28.451  0.00  0.00    +0.000 A 
ATOM      4  C   UNL     1      25.940  24.327  27.410  0.00  0.00    +0.000 A 
ATOM      5  C   UNL     1      25.447  25.561  27.776  0.00  0.00    +0.000 A 
ATOM      6  C   UNL     1      25.191  25.910  29.085  0.00  0.00    +0.000 A 
ATOM      7  C   UNL     1      25.423  25.016  30.109  0.00  0.00    +0.000 A 
ATOM      8  O   UNL     1      25.181  25.325  31.437  0.00  0.00    +0.000 OA
BRANCH   2  10
ATOM      9  C   UNL     1      26.479  21.541  30.476  0.00  0.00    +0.000 C 
ATOM     10  O   UNL     1      26.150  22.879  30.797  0.00  0.00    +0.000 OA
ENDBRANCH   2  10
ENDBRANCH   1   4
BRANCH   1  11
ATOM     11  N   UNL     1      27.358  24.695  25.551  0.00  0.00    +0.000 NA
BRANCH  11  12
ATOM     12  C   UNL     1      28.557  24.017  25.256  0.00  0.00    +0.000 A 
ATOM     13  C   UNL     1      28.951  22.967  26.050  0.00  0.00    +0.000 A 
ATOM     14  C   UNL     1      30.106  22.299  25.772  0.00  0.00    +0.000 A 
ATOM     15  C   UNL     1      30.867  22.691  24.686  0.00  0.00    +0.000 A 
ATOM     16  C   UNL     1      30.482  23.748  23.877  0.00  0.00    +0.000 A 
ATOM     17  C   UNL     1      29.297  24.425  24.173  0.00  0.00    +0.000 A 
BRANCH  17  18
ATOM     18  S   UNL     1      28.704  25.791  23.208  0.00  0.00    +0.000 S 
ATOM     19  C   UNL     1      27.658  25.288  21.847  0.00  0.00    +0.000 C 
ENDBRANCH  17  18
ENDBRANCH  11  12
ENDBRANCH   1  11
TORSDOF 5
ENDMDL
MODEL 7
REMARK VINA RESULT:      -5.6      3.198      4.773
REMARK  Name = 
REMARK  5 active torsions:
REMARK  status: ('A' for Active; 'I' for Inactive)
REMARK    1  A    between atoms: O_2  and  C_3
REMARK    2  A    between atoms: C_5  and  C_6
REMARK    3  A    between atoms: C_6  and  N_7
REMARK    4  A    between atoms: N_7  and  C_8
REMARK    5  A    between atoms: C_13  and  S_14
REMARK                            x       y       z     vdW  Elec       q    Type
REMARK                         _______ _______ _______ _____ _____    ______ ____
ROOT
ATOM      1  C   UNL     1      30.268  22.893  26.437  0.00  0.00    +0.000 C 
ENDROOT
BRANCH   1   4
ATOM      2  C   UNL     1      28.146  23.186  23.317  0.00  0.00    +0.000 A 
ATOM      3  C   UNL     1      29.231  23.127  24.165  0.00  0.00    +0.000 A 
ATOM      4  C   UNL     1      29.083  22.950  25.538  0.00  0.00    +0.000 A 
ATOM      5  C   UNL     1      27.785  22.839  25.992  0.00  0.00    +0.000 A 
ATOM      6  C   UNL     1      26.690  22.897  25.158  0.00  0.00    +0.000 A 
ATOM      7  C   UNL     1      26.849  23.073  23.800  0.00  0.00    +0.000 A 
ATOM      8  O   UNL     1      25.776  23.136  22.926  0.00  0.00    +0.000 OA
BRANCH   2  10
ATOM      9  C   UNL     1      28.935  24.535  21.495  0.00  0.00    +0.000 C 
ATOM     10  O   UNL     1      28.293  23.362  21.957  0.00  0.00    +0.000 OA
ENDBRANCH   2  10
ENDBRANCH   1   4
BRANCH   1  11
ATOM     11  N   UNL     1      29.801  23.036  27.792  0.00  0.00    +0.000 NA
BRANCH  11  12
ATOM     12  C   UNL     1      30.580  22.527  28.849  0.00  0.00    +0.000 A 
ATOM     13  C   UNL     1      31.831  22.024  28.584  0.00  0.00    +0.000 A 
ATOM     14  C   UNL     1      32.597  21.534  29.599  0.00  0.00    +0.000 A 
ATOM     15  C   UNL     1      32.098  21.551  30.889  0.00  0.00    +0.000 A 
ATOM     16  C   UNL     1      30.838  22.054  31.171  0.00  0.00    +0.000 A 
ATOM     17  C   UNL     1      30.063  22.554  30.122  0.00  0.00    +0.000 A 
BRANCH  17  18
ATOM     18  S   UNL     1      28.437  23.223  30.361  0.00  0.00    +0.000 S 
ATOM     19  C   UNL     1      27.143  22.001  30.186  0.00  0.00    +0.000 C 
ENDBRANCH  17  18
ENDBRANCH  11  12
ENDBRANCH   1  11
TORSDOF 5
ENDMDL
MODEL 8
REMARK VINA RESULT:      -5.6     18.749     20.242
REMARK  Name = 
REMARK  5 active torsions:
REMARK  status: ('A' for Active; 'I' for Inactive)
REMARK    1  A    between atoms: O_2  and  C_3
REMARK    2  A    between atoms: C_5  and  C_6
REMARK    3  A    between atoms: C_6  and  N_7
REMARK    4  A    between atoms: N_7  and  C_8
REMARK    5  A    between atoms: C_13  and  S_14
REMARK                            x       y       z     vdW  Elec       q    Type
REMARK                         _______ _______ _______ _____ _____    ______ ____
ROOT
ATOM      1  C   UNL     1      16.504  10.501  37.181  0.00  0.00    +0.000 C 
ENDROOT
BRANCH   1   4
ATOM      2  C   UNL     1      20.172  10.358  38.103  0.00  0.00    +0.000 A 
ATOM      3  C   UNL     1      19.000  10.581  37.411  0.00  0.00    +0.000 A 
ATOM      4  C   UNL     1      17.757  10.256  37.947  0.00  0.00    +0.000 A 
ATOM      5  C   UNL     1      17.774   9.700  39.208  0.00  0.00    +0.000 A 
ATOM      6  C   UNL     1      18.936   9.471  39.913  0.00  0.00    +0.000 A 
ATOM      7  C   UNL     1      20.162   9.795  39.373  0.00  0.00    +0.000 A 
ATOM      8  O   UNL     1      21.353   9.583  40.046  0.00  0.00    +0.000 OA
BRANCH   2  10
ATOM      9  C   UNL     1      21.933   9.854  36.552  0.00  0.00    +0.000 C 
ATOM     10  O   UNL     1      21.403  10.680  37.572  0.00  0.00    +0.000 OA
ENDBRANCH   2  10
ENDBRANCH   1   4
BRANCH   1  11
ATOM     11  N   UNL     1      16.765  11.550  36.231  0.00  0.00    +0.000 NA
BRANCH  11  12
ATOM     12  C   UNL     1      16.465  11.342  34.870  0.00  0.00    +0.000 A 
ATOM     13  C   UNL     1      17.256  10.499  34.127  0.00  0.00    +0.000 A 
ATOM     14  C   UNL     1      16.974  10.285  32.811  0.00  0.00    +0.000 A 
ATOM     15  C   UNL     1      15.888  10.924  32.242  0.00  0.00    +0.000 A 
ATOM     16  C   UNL     1      15.082  11.777  32.979  0.00  0.00    +0.000 A 
ATOM     17  C   UNL     1      15.382  11.988  34.327  0.00  0.00    +0.000 A 
BRANCH  17  18
ATOM     18  S   UNL     1      14.422  13.056  35.369  0.00  0.00    +0.000 S 
ATOM     19  C   UNL     1      13.323  12.166  36.464  0.00  0.00    +0.000 C 
ENDBRANCH  17  18
ENDBRANCH  11  12
ENDBRANCH   1  11
TORSDOF 5
ENDMDL
MODEL 9
REMARK VINA RESULT:      -5.4      3.172      6.293
REMARK  Name = 
REMARK  5 active torsions:
REMARK  status: ('A' for Active; 'I' for Inactive)
REMARK    1  A    between atoms: O_2  and  C_3
REMARK    2  A    between atoms: C_5  and  C_6
REMARK    3  A    between atoms: C_6  and  N_7
REMARK    4  A    between atoms: N_7  and  C_8
REMARK    5  A    between atoms: C_13  and  S_14
REMARK                            x       y       z     vdW  Elec       q    Type
REMARK                         _______ _______ _______ _____ _____    ______ ____
ROOT
ATOM      1  C   UNL     1      25.674  23.984  25.905  0.00  0.00    +0.000 C 
ENDROOT
BRANCH   1   4
ATOM      2  C   UNL     1      26.300  23.590  29.617  0.00  0.00    +0.000 A 
ATOM      3  C   UNL     1      26.300  23.372  28.256  0.00  0.00    +0.000 A 
ATOM      4  C   UNL     1      25.667  24.241  27.372  0.00  0.00    +0.000 A 
ATOM      5  C   UNL     1      25.043  25.330  27.944  0.00  0.00    +0.000 A 
ATOM      6  C   UNL     1      25.034  25.562  29.302  0.00  0.00    +0.000 A 
ATOM      7  C   UNL     1      25.663  24.694  30.169  0.00  0.00    +0.000 A 
ATOM      8  O   UNL     1      25.679  24.890  31.540  0.00  0.00    +0.000 OA
BRANCH   2  10
ATOM      9  C   UNL     1      28.324  22.541  30.369  0.00  0.00    +0.000 C 
ATOM     10  O   UNL     1      26.927  22.728  30.492  0.00  0.00    +0.000 OA
ENDBRANCH   2  10
ENDBRANCH   1   4
BRANCH   1  11
ATOM     11  N   UNL     1      26.833  23.186  25.603  0.00  0.00    +0.000 NA
BRANCH  11  12
ATOM     12  C   UNL     1      27.610  23.495  24.469  0.00  0.00    +0.000 A 
ATOM     13  C   UNL     1      27.013  23.530  23.232  0.00  0.00    +0.000 A 
ATOM     14  C   UNL     1      27.752  23.833  22.128  0.00  0.00    +0.000 A 
ATOM     15  C   UNL     1      29.101  24.102  22.273  0.00  0.00    +0.000 A 
ATOM     16  C   UNL     1      29.716  24.068  23.514  0.00  0.00    +0.000 A 
ATOM     17  C   UNL     1      28.948  23.757  24.637  0.00  0.00    +0.000 A 
BRANCH  17  18
ATOM     18  S   UNL     1      29.625  23.685  26.276  0.00  0.00    +0.000 S 
ATOM     19  C   UNL     1      30.115  22.034  26.761  0.00  0.00    +0.000 C 
ENDBRANCH  17  18
ENDBRANCH  11  12
ENDBRANCH   1  11
TORSDOF 5
ENDMDL
MODEL 10
REMARK VINA RESULT:      -5.3      3.524      6.748
REMARK  Name = 
REMARK  5 active torsions:
REMARK  status: ('A' for Active; 'I' for Inactive)
REMARK    1  A    between atoms: O_2  and  C_3
REMARK    2  A    between atoms: C_5  and  C_6
REMARK    3  A    between atoms: C_6  and  N_7
REMARK    4  A    between atoms: N_7  and  C_8
REMARK    5  A    between atoms: C_13  and  S_14
REMARK                            x       y       z     vdW  Elec       q    Type
REMARK                         _______ _______ _______ _____ _____    ______ ____
ROOT
ATOM      1  C   UNL     1      25.414  24.323  25.977  0.00  0.00    +0.000 C 
ENDROOT
BRANCH   1   4
ATOM      2  C   UNL     1      25.079  25.526  29.550  0.00  0.00    +0.000 A 
ATOM      3  C   UNL     1      24.968  25.439  28.179  0.00  0.00    +0.000 A 
ATOM      4  C   UNL     1      25.542  24.396  27.459  0.00  0.00    +0.000 A 
ATOM      5  C   UNL     1      26.227  23.459  28.203  0.00  0.00    +0.000 A 
ATOM      6  C   UNL     1      26.349  23.531  29.574  0.00  0.00    +0.000 A 
ATOM      7  C   UNL     1      25.776  24.570  30.277  0.00  0.00    +0.000 A 
ATOM      8  O   UNL     1      25.873  24.680  31.654  0.00  0.00    +0.000 OA
BRANCH   2  10
ATOM      9  C   UNL     1      23.118  26.780  30.137  0.00  0.00    +0.000 C 
ATOM     10  O   UNL     1      24.510  26.560  30.263  0.00  0.00    +0.000 OA
ENDBRANCH   2  10
ENDBRANCH   1   4
BRANCH   1  11
ATOM     11  N   UNL     1      26.248  23.245  25.515  0.00  0.00    +0.000 NA
BRANCH  11  12
ATOM     12  C   UNL     1      26.991  23.404  24.329  0.00  0.00    +0.000 A 
ATOM     13  C   UNL     1      26.338  23.723  23.162  0.00  0.00    +0.000 A 
ATOM     14  C   UNL     1      27.045  23.885  22.008  0.00  0.00    +0.000 A 
ATOM     15  C   UNL     1      28.418  23.725  22.032  0.00  0.00    +0.000 A 
ATOM     16  C   UNL     1      29.090  23.403  23.201  0.00  0.00    +0.000 A 
ATOM     17  C   UNL     1      28.353  23.239  24.376  0.00  0.00    +0.000 A 
BRANCH  17  18
ATOM     18  S   UNL     1      29.103  22.827  25.930  0.00  0.00    +0.000 S 
ATOM     19  C   UNL     1      30.882  22.669  25.831  0.00  0.00    +0.000 C 
ENDBRANCH  17  18
ENDBRANCH  11  12
ENDBRANCH   1  11
TORSDOF 5
ENDMDL
