MODEL 1
REMARK VINA RESULT:      -6.6      0.000      0.000
REMARK  Name = 
REMARK  4 active torsions:
REMARK  status: ('A' for Active; 'I' for Inactive)
REMARK    1  A    between atoms: C_2  and  C_4
REMARK    2  A    between atoms: C_7  and  C_8
REMARK    3  A    between atoms: C_8  and  N_9
REMARK    4  A    between atoms: C_10  and  C_11
REMARK                            x       y       z     vdW  Elec       q    Type
REMARK                         _______ _______ _______ _____ _____    ______ ____
ROOT
ATOM      1  N   UNL     1      32.191  21.304   9.210  0.00  0.00    +0.000 N 
ATOM      2  C   UNL     1      33.136  22.257   9.135  0.00  0.00    +0.000 A 
ATOM      3  N   UNL     1      33.209  22.695   7.864  0.00  0.00    +0.000 NA
ATOM      4  C   UNL     1      32.293  21.996   7.154  0.00  0.00    +0.000 A 
ATOM      5  C   UNL     1      31.922  22.011   5.824  0.00  0.00    +0.000 A 
ATOM      6  C   UNL     1      30.934  21.163   5.388  0.00  0.00    +0.000 A 
ATOM      7  C   UNL     1      30.296  20.292   6.228  0.00  0.00    +0.000 A 
ATOM      8  C   UNL     1      30.648  20.256   7.560  0.00  0.00    +0.000 A 
ATOM      9  C   UNL     1      31.647  21.117   7.993  0.00  0.00    +0.000 A 
ENDROOT
BRANCH   2  10
ATOM     10  C   UNL     1      33.955  22.729  10.306  0.00  0.00    +0.000 C 
ATOM     11  O   UNL     1      34.462  23.995  10.058  0.00  0.00    +0.000 OA
ENDBRANCH   2  10
BRANCH   1  12
ATOM     12  C   UNL     1      31.832  20.600  10.425  0.00  0.00    +0.000 C 
BRANCH  12  16
ATOM     13  C   UNL     1      28.867  22.774  12.675  0.00  0.00    +0.000 A 
ATOM     14  C   UNL     1      28.553  22.212  11.455  0.00  0.00    +0.000 A 
ATOM     15  C   UNL     1      29.503  21.515  10.733  0.00  0.00    +0.000 A 
ATOM     16  C   UNL     1      30.796  21.347  11.188  0.00  0.00    +0.000 A 
ATOM     17  C   UNL     1      31.110  21.911  12.409  0.00  0.00    +0.000 A 
ATOM     18  C   UNL     1      30.160  22.607  13.130  0.00  0.00    +0.000 A 
BRANCH  13  20
ATOM     19  C   UNL     1      28.490  24.698  14.194  0.00  0.00    +0.000 C 
ATOM     20  C   UNL     1      27.856  23.531  13.470  0.00  0.00    +0.000 C 
ATOM     21  C   UNL     1      26.664  23.915  12.658  0.00  0.00    +0.000 C 
ENDBRANCH  13  20
ENDBRANCH  12  16
ENDBRANCH   1  12
TORSDOF 4
ENDMDL
MODEL 2
REMARK VINA RESULT:      -6.4     13.833     16.485
REMARK  Name = 
REMARK  4 active torsions:
REMARK  status: ('A' for Active; 'I' for Inactive)
REMARK    1  A    between atoms: C_2  and  C_4
REMARK    2  A    between atoms: C_7  and  C_8
REMARK    3  A    between atoms: C_8  and  N_9
REMARK    4  A    between atoms: C_10  and  C_11
REMARK                            x       y       z     vdW  Elec       q    Type
REMARK                         _______ _______ _______ _____ _____    ______ ____
ROOT
ATOM      1  N   UNL     1      27.700  23.273  24.433  0.00  0.00    +0.000 N 
ATOM      2  C   UNL     1      26.631  23.779  23.795  0.00  0.00    +0.000 A 
ATOM      3  N   UNL     1      25.690  24.088  24.706  0.00  0.00    +0.000 NA
ATOM      4  C   UNL     1      26.195  23.765  25.919  0.00  0.00    +0.000 A 
ATOM      5  C   UNL     1      25.693  23.854  27.203  0.00  0.00    +0.000 A 
ATOM      6  C   UNL     1      26.462  23.435  28.260  0.00  0.00    +0.000 A 
ATOM      7  C   UNL     1      27.720  22.925  28.092  0.00  0.00    +0.000 A 
ATOM      8  C   UNL     1      28.244  22.824  26.821  0.00  0.00    +0.000 A 
ATOM      9  C   UNL     1      27.461  23.250  25.757  0.00  0.00    +0.000 A 
ENDROOT
BRANCH   2  10
ATOM     10  C   UNL     1      26.542  23.955  22.302  0.00  0.00    +0.000 C 
ATOM     11  O   UNL     1      25.700  23.000  21.756  0.00  0.00    +0.000 OA
ENDBRANCH   2  10
BRANCH   1  12
ATOM     12  C   UNL     1      28.912  22.827  23.775  0.00  0.00    +0.000 C 
BRANCH  12  16
ATOM     13  C   UNL     1      32.291  25.275  24.859  0.00  0.00    +0.000 A 
ATOM     14  C   UNL     1      31.099  25.852  24.470  0.00  0.00    +0.000 A 
ATOM     15  C   UNL     1      30.016  25.067  24.123  0.00  0.00    +0.000 A 
ATOM     16  C   UNL     1      30.068  23.688  24.146  0.00  0.00    +0.000 A 
ATOM     17  C   UNL     1      31.262  23.111  24.535  0.00  0.00    +0.000 A 
ATOM     18  C   UNL     1      32.343  23.896  24.882  0.00  0.00    +0.000 A 
BRANCH  13  20
ATOM     19  C   UNL     1      33.493  26.378  26.727  0.00  0.00    +0.000 C 
ATOM     20  C   UNL     1      33.472  26.104  25.238  0.00  0.00    +0.000 C 
ATOM     21  C   UNL     1      34.753  25.541  24.721  0.00  0.00    +0.000 C 
ENDBRANCH  13  20
ENDBRANCH  12  16
ENDBRANCH   1  12
TORSDOF 4
ENDMDL
MODEL 3
REMARK VINA RESULT:      -6.4     12.701     16.149
REMARK  Name = 
REMARK  4 active torsions:
REMARK  status: ('A' for Active; 'I' for Inactive)
REMARK    1  A    between atoms: C_2  and  C_4
REMARK    2  A    between atoms: C_7  and  C_8
REMARK    3  A    between atoms: C_8  and  N_9
REMARK    4  A    between atoms: C_10  and  C_11
REMARK                            x       y       z     vdW  Elec       q    Type
REMARK                         _______ _______ _______ _____ _____    ______ ____
ROOT
ATOM      1  N   UNL     1      28.290  23.376  23.955  0.00  0.00    +0.000 N 
ATOM      2  C   UNL     1      29.094  23.866  22.995  0.00  0.00    +0.000 A 
ATOM      3  N   UNL     1      30.367  23.817  23.430  0.00  0.00    +0.000 NA
ATOM      4  C   UNL     1      30.337  23.289  24.675  0.00  0.00    +0.000 A 
ATOM      5  C   UNL     1      31.322  23.004  25.601  0.00  0.00    +0.000 A 
ATOM      6  C   UNL     1      30.975  22.457  26.811  0.00  0.00    +0.000 A 
ATOM      7  C   UNL     1      29.676  22.180  27.142  0.00  0.00    +0.000 A 
ATOM      8  C   UNL     1      28.674  22.455  26.236  0.00  0.00    +0.000 A 
ATOM      9  C   UNL     1      29.034  23.008  25.015  0.00  0.00    +0.000 A 
ENDROOT
BRANCH   2  10
ATOM     10  C   UNL     1      28.608  24.375  21.664  0.00  0.00    +0.000 C 
ATOM     11  O   UNL     1      29.669  24.502  20.783  0.00  0.00    +0.000 OA
ENDBRANCH   2  10
BRANCH   1  12
ATOM     12  C   UNL     1      26.849  23.271  23.842  0.00  0.00    +0.000 C 
BRANCH  12  16
ATOM     13  C   UNL     1      24.875  26.089  26.438  0.00  0.00    +0.000 A 
ATOM     14  C   UNL     1      25.456  26.506  25.259  0.00  0.00    +0.000 A 
ATOM     15  C   UNL     1      26.090  25.602  24.426  0.00  0.00    +0.000 A 
ATOM     16  C   UNL     1      26.172  24.258  24.727  0.00  0.00    +0.000 A 
ATOM     17  C   UNL     1      25.590  23.840  25.908  0.00  0.00    +0.000 A 
ATOM     18  C   UNL     1      24.957  24.744  26.739  0.00  0.00    +0.000 A 
BRANCH  13  20
ATOM     19  C   UNL     1      22.829  26.527  27.770  0.00  0.00    +0.000 C 
ATOM     20  C   UNL     1      24.186  27.048  27.351  0.00  0.00    +0.000 C 
ATOM     21  C   UNL     1      25.045  27.456  28.501  0.00  0.00    +0.000 C 
ENDBRANCH  13  20
ENDBRANCH  12  16
ENDBRANCH   1  12
TORSDOF 4
ENDMDL
MODEL 4
REMARK VINA RESULT:      -6.4     29.611     31.509
REMARK  Name = 
REMARK  4 active torsions:
REMARK  status: ('A' for Active; 'I' for Inactive)
REMARK    1  A    between atoms: C_2  and  C_4
REMARK    2  A    between atoms: C_7  and  C_8
REMARK    3  A    between atoms: C_8  and  N_9
REMARK    4  A    between atoms: C_10  and  C_11
REMARK                            x       y       z     vdW  Elec       q    Type
REMARK                         _______ _______ _______ _____ _____    ______ ____
ROOT
ATOM      1  N   UNL     1      16.139  11.218  35.410  0.00  0.00    +0.000 N 
ATOM      2  C   UNL     1      16.899  10.597  34.492  0.00  0.00    +0.000 A 
ATOM      3  N   UNL     1      16.564  11.056  33.271  0.00  0.00    +0.000 NA
ATOM      4  C   UNL     1      15.585  11.972  33.450  0.00  0.00    +0.000 A 
ATOM      5  C   UNL     1      14.862  12.762  32.576  0.00  0.00    +0.000 A 
ATOM      6  C   UNL     1      13.908  13.617  33.069  0.00  0.00    +0.000 A 
ATOM      7  C   UNL     1      13.640  13.721  34.406  0.00  0.00    +0.000 A 
ATOM      8  C   UNL     1      14.346  12.944  35.300  0.00  0.00    +0.000 A 
ATOM      9  C   UNL     1      15.309  12.082  34.794  0.00  0.00    +0.000 A 
ENDROOT
BRANCH   2  10
ATOM     10  C   UNL     1      17.942   9.563  34.818  0.00  0.00    +0.000 C 
ATOM     11  O   UNL     1      17.340   8.403  35.280  0.00  0.00    +0.000 OA
ENDBRANCH   2  10
BRANCH   1  12
ATOM     12  C   UNL     1      16.218  10.979  36.837  0.00  0.00    +0.000 C 
BRANCH  12  16
ATOM     13  C   UNL     1      19.904  12.541  38.435  0.00  0.00    +0.000 A 
ATOM     14  C   UNL     1      19.563  11.216  38.617  0.00  0.00    +0.000 A 
ATOM     15  C   UNL     1      18.381  10.715  38.104  0.00  0.00    +0.000 A 
ATOM     16  C   UNL     1      17.494  11.501  37.396  0.00  0.00    +0.000 A 
ATOM     17  C   UNL     1      17.836  12.827  37.215  0.00  0.00    +0.000 A 
ATOM     18  C   UNL     1      19.018  13.327  37.726  0.00  0.00    +0.000 A 
BRANCH  13  20
ATOM     19  C   UNL     1      21.189  14.612  38.894  0.00  0.00    +0.000 C 
ATOM     20  C   UNL     1      21.175  13.101  38.980  0.00  0.00    +0.000 C 
ATOM     21  C   UNL     1      21.488  12.582  40.343  0.00  0.00    +0.000 C 
ENDBRANCH  13  20
ENDBRANCH  12  16
ENDBRANCH   1  12
TORSDOF 4
ENDMDL
MODEL 5
REMARK VINA RESULT:      -6.3     29.682     31.298
REMARK  Name = 
REMARK  4 active torsions:
REMARK  status: ('A' for Active; 'I' for Inactive)
REMARK    1  A    between atoms: C_2  and  C_4
REMARK    2  A    between atoms: C_7  and  C_8
REMARK    3  A    between atoms: C_8  and  N_9
REMARK    4  A    between atoms: C_10  and  C_11
REMARK                            x       y       z     vdW  Elec       q    Type
REMARK                         _______ _______ _______ _____ _____    ______ ____
ROOT
ATOM      1  N   UNL     1      21.501  11.149  38.375  0.00  0.00    +0.000 N 
ATOM      2  C   UNL     1      21.829  12.384  38.795  0.00  0.00    +0.000 A 
ATOM      3  N   UNL     1      23.011  12.726  38.249  0.00  0.00    +0.000 NA
ATOM      4  C   UNL     1      23.409  11.683  37.485  0.00  0.00    +0.000 A 
ATOM      5  C   UNL     1      24.523  11.462  36.698  0.00  0.00    +0.000 A 
ATOM      6  C   UNL     1      24.650  10.273  36.025  0.00  0.00    +0.000 A 
ATOM      7  C   UNL     1      23.707   9.285  36.102  0.00  0.00    +0.000 A 
ATOM      8  C   UNL     1      22.586   9.480  36.880  0.00  0.00    +0.000 A 
ATOM      9  C   UNL     1      22.464  10.685  37.557  0.00  0.00    +0.000 A 
ENDROOT
BRANCH   2  10
ATOM     10  C   UNL     1      20.983  13.213  39.724  0.00  0.00    +0.000 C 
ATOM     11  O   UNL     1      20.483  14.320  39.057  0.00  0.00    +0.000 OA
ENDBRANCH   2  10
BRANCH   1  12
ATOM     12  C   UNL     1      20.292  10.448  38.758  0.00  0.00    +0.000 C 
BRANCH  12  16
ATOM     13  C   UNL     1      17.221  10.932  35.772  0.00  0.00    +0.000 A 
ATOM     14  C   UNL     1      18.008   9.799  35.795  0.00  0.00    +0.000 A 
ATOM     15  C   UNL     1      18.993   9.643  36.753  0.00  0.00    +0.000 A 
ATOM     16  C   UNL     1      19.237  10.598  37.720  0.00  0.00    +0.000 A 
ATOM     17  C   UNL     1      18.449  11.733  37.695  0.00  0.00    +0.000 A 
ATOM     18  C   UNL     1      17.465  11.887  36.739  0.00  0.00    +0.000 A 
BRANCH  13  20
ATOM     19  C   UNL     1      15.129  12.136  35.203  0.00  0.00    +0.000 C 
ATOM     20  C   UNL     1      16.153  11.119  34.747  0.00  0.00    +0.000 C 
ATOM     21  C   UNL     1      16.708  11.404  33.391  0.00  0.00    +0.000 C 
ENDBRANCH  13  20
ENDBRANCH  12  16
ENDBRANCH   1  12
TORSDOF 4
ENDMDL
MODEL 6
REMARK VINA RESULT:      -6.2     13.217     16.474
REMARK  Name = 
REMARK  4 active torsions:
REMARK  status: ('A' for Active; 'I' for Inactive)
REMARK    1  A    between atoms: C_2  and  C_4
REMARK    2  A    between atoms: C_7  and  C_8
REMARK    3  A    between atoms: C_8  and  N_9
REMARK    4  A    between atoms: C_10  and  C_11
REMARK                            x       y       z     vdW  Elec       q    Type
REMARK                         _______ _______ _______ _____ _____    ______ ____
ROOT
ATOM      1  N   UNL     1      28.534  23.881  24.003  0.00  0.00    +0.000 N 
ATOM      2  C   UNL     1      28.701  24.902  23.145  0.00  0.00    +0.000 A 
ATOM      3  N   UNL     1      27.692  25.777  23.312  0.00  0.00    +0.000 NA
ATOM      4  C   UNL     1      26.897  25.280  24.287  0.00  0.00    +0.000 A 
ATOM      5  C   UNL     1      25.732  25.732  24.875  0.00  0.00    +0.000 A 
ATOM      6  C   UNL     1      25.141  24.989  25.867  0.00  0.00    +0.000 A 
ATOM      7  C   UNL     1      25.666  23.802  26.301  0.00  0.00    +0.000 A 
ATOM      8  C   UNL     1      26.828  23.328  25.731  0.00  0.00    +0.000 A 
ATOM      9  C   UNL     1      27.419  24.086  24.730  0.00  0.00    +0.000 A 
ENDROOT
BRANCH   2  10
ATOM     10  C   UNL     1      29.846  25.011  22.174  0.00  0.00    +0.000 C 
ATOM     11  O   UNL     1      29.526  24.377  20.984  0.00  0.00    +0.000 OA
ENDBRANCH   2  10
BRANCH   1  12
ATOM     12  C   UNL     1      29.429  22.746  24.111  0.00  0.00    +0.000 C 
BRANCH  12  16
ATOM     13  C   UNL     1      31.897  23.032  27.633  0.00  0.00    +0.000 A 
ATOM     14  C   UNL     1      32.092  23.885  26.567  0.00  0.00    +0.000 A 
ATOM     15  C   UNL     1      31.300  23.794  25.437  0.00  0.00    +0.000 A 
ATOM     16  C   UNL     1      30.291  22.859  25.319  0.00  0.00    +0.000 A 
ATOM     17  C   UNL     1      30.097  22.005  26.388  0.00  0.00    +0.000 A 
ATOM     18  C   UNL     1      30.888  22.098  27.516  0.00  0.00    +0.000 A 
BRANCH  13  20
ATOM     19  C   UNL     1      32.857  21.765  29.537  0.00  0.00    +0.000 C 
ATOM     20  C   UNL     1      32.741  23.114  28.862  0.00  0.00    +0.000 C 
ATOM     21  C   UNL     1      34.059  23.764  28.605  0.00  0.00    +0.000 C 
ENDBRANCH  13  20
ENDBRANCH  12  16
ENDBRANCH   1  12
TORSDOF 4
ENDMDL
MODEL 7
REMARK VINA RESULT:      -6.0     15.510     17.387
REMARK  Name = 
REMARK  4 active torsions:
REMARK  status: ('A' for Active; 'I' for Inactive)
REMARK    1  A    between atoms: C_2  and  C_4
REMARK    2  A    between atoms: C_7  and  C_8
REMARK    3  A    between atoms: C_8  and  N_9
REMARK    4  A    between atoms: C_10  and  C_11
REMARK                            x       y       z     vdW  Elec       q    Type
REMARK                         _______ _______ _______ _____ _____    ______ ____
ROOT
ATOM      1  N   UNL     1      28.101  22.691  26.970  0.00  0.00    +0.000 N 
ATOM      2  C   UNL     1      27.640  23.040  28.184  0.00  0.00    +0.000 A 
ATOM      3  N   UNL     1      26.533  23.790  28.027  0.00  0.00    +0.000 NA
ATOM      4  C   UNL     1      26.317  23.899  26.697  0.00  0.00    +0.000 A 
ATOM      5  C   UNL     1      25.347  24.539  25.949  0.00  0.00    +0.000 A 
ATOM      6  C   UNL     1      25.393  24.468  24.579  0.00  0.00    +0.000 A 
ATOM      7  C   UNL     1      26.372  23.781  23.915  0.00  0.00    +0.000 A 
ATOM      8  C   UNL     1      27.352  23.134  24.637  0.00  0.00    +0.000 A 
ATOM      9  C   UNL     1      27.299  23.210  26.022  0.00  0.00    +0.000 A 
ENDROOT
BRANCH   2  10
ATOM     10  C   UNL     1      28.288  22.636  29.482  0.00  0.00    +0.000 C 
ATOM     11  O   UNL     1      27.436  21.819  30.208  0.00  0.00    +0.000 OA
ENDBRANCH   2  10
BRANCH   1  12
ATOM     12  C   UNL     1      29.281  21.881  26.743  0.00  0.00    +0.000 C 
BRANCH  12  16
ATOM     13  C   UNL     1      32.557  24.269  25.279  0.00  0.00    +0.000 A 
ATOM     14  C   UNL     1      32.154  24.358  26.596  0.00  0.00    +0.000 A 
ATOM     15  C   UNL     1      31.104  23.592  27.066  0.00  0.00    +0.000 A 
ATOM     16  C   UNL     1      30.414  22.713  26.255  0.00  0.00    +0.000 A 
ATOM     17  C   UNL     1      30.817  22.625  24.937  0.00  0.00    +0.000 A 
ATOM     18  C   UNL     1      31.867  23.390  24.469  0.00  0.00    +0.000 A 
BRANCH  13  20
ATOM     19  C   UNL     1      33.985  26.260  25.662  0.00  0.00    +0.000 C 
ATOM     20  C   UNL     1      33.689  25.087  24.753  0.00  0.00    +0.000 C 
ATOM     21  C   UNL     1      34.891  24.261  24.439  0.00  0.00    +0.000 C 
ENDBRANCH  13  20
ENDBRANCH  12  16
ENDBRANCH   1  12
TORSDOF 4
ENDMDL
MODEL 8
REMARK VINA RESULT:      -6.0     21.773     22.934
REMARK  Name = 
REMARK  4 active torsions:
REMARK  status: ('A' for Active; 'I' for Inactive)
REMARK    1  A    between atoms: C_2  and  C_4
REMARK    2  A    between atoms: C_7  and  C_8
REMARK    3  A    between atoms: C_8  and  N_9
REMARK    4  A    between atoms: C_10  and  C_11
REMARK                            x       y       z     vdW  Elec       q    Type
REMARK                         _______ _______ _______ _____ _____    ______ ____
ROOT
ATOM      1  N   UNL     1      23.022   0.532  16.690  0.00  0.00    +0.000 N 
ATOM      2  C   UNL     1      23.208   0.013  15.464  0.00  0.00    +0.000 A 
ATOM      3  N   UNL     1      22.070   0.151  14.759  0.00  0.00    +0.000 NA
ATOM      4  C   UNL     1      21.176   0.765  15.568  0.00  0.00    +0.000 A 
ATOM      5  C   UNL     1      19.864   1.161  15.395  0.00  0.00    +0.000 A 
ATOM      6  C   UNL     1      19.201   1.776  16.428  0.00  0.00    +0.000 A 
ATOM      7  C   UNL     1      19.794   2.016  17.637  0.00  0.00    +0.000 A 
ATOM      8  C   UNL     1      21.103   1.630  17.837  0.00  0.00    +0.000 A 
ATOM      9  C   UNL     1      21.766   1.009  16.788  0.00  0.00    +0.000 A 
ENDROOT
BRANCH   2  10
ATOM     10  C   UNL     1      24.496  -0.612  14.998  0.00  0.00    +0.000 C 
ATOM     11  O   UNL     1      24.553  -1.940  15.388  0.00  0.00    +0.000 OA
ENDBRANCH   2  10
BRANCH   1  12
ATOM     12  C   UNL     1      24.031   0.562  17.730  0.00  0.00    +0.000 C 
BRANCH  12  16
ATOM     13  C   UNL     1      26.099   4.344  17.776  0.00  0.00    +0.000 A 
ATOM     14  C   UNL     1      26.464   3.353  16.889  0.00  0.00    +0.000 A 
ATOM     15  C   UNL     1      25.801   2.140  16.873  0.00  0.00    +0.000 A 
ATOM     16  C   UNL     1      24.756   1.862  17.731  0.00  0.00    +0.000 A 
ATOM     17  C   UNL     1      24.392   2.855  18.621  0.00  0.00    +0.000 A 
ATOM     18  C   UNL     1      25.055   4.066  18.634  0.00  0.00    +0.000 A 
BRANCH  13  20
ATOM     19  C   UNL     1      25.868   6.789  17.432  0.00  0.00    +0.000 C 
ATOM     20  C   UNL     1      26.802   5.660  17.808  0.00  0.00    +0.000 C 
ATOM     21  C   UNL     1      27.522   5.890  19.095  0.00  0.00    +0.000 C 
ENDBRANCH  13  20
ENDBRANCH  12  16
ENDBRANCH   1  12
TORSDOF 4
ENDMDL
MODEL 9
REMARK VINA RESULT:      -5.9     31.403     33.237
REMARK  Name = 
REMARK  4 active torsions:
REMARK  status: ('A' for Active; 'I' for Inactive)
REMARK    1  A    between atoms: C_2  and  C_4
REMARK    2  A    between atoms: C_7  and  C_8
REMARK    3  A    between atoms: C_8  and  N_9
REMARK    4  A    between atoms: C_10  and  C_11
REMARK                            x       y       z     vdW  Elec       q    Type
REMARK                         _______ _______ _______ _____ _____    ______ ____
ROOT
ATOM      1  N   UNL     1      21.284  10.964  37.749  0.00  0.00    +0.000 N 
ATOM      2  C   UNL     1      22.575  10.608  37.865  0.00  0.00    +0.000 A 
ATOM      3  N   UNL     1      23.272  11.657  38.342  0.00  0.00    +0.000 NA
ATOM      4  C   UNL     1      22.390  12.667  38.521  0.00  0.00    +0.000 A 
ATOM      5  C   UNL     1      22.523  13.963  38.979  0.00  0.00    +0.000 A 
ATOM      6  C   UNL     1      21.416  14.773  39.049  0.00  0.00    +0.000 A 
ATOM      7  C   UNL     1      20.171  14.342  38.679  0.00  0.00    +0.000 A 
ATOM      8  C   UNL     1      20.011  13.053  38.218  0.00  0.00    +0.000 A 
ATOM      9  C   UNL     1      21.135  12.241  38.150  0.00  0.00    +0.000 A 
ENDROOT
BRANCH   2  10
ATOM     10  C   UNL     1      23.112   9.248  37.506  0.00  0.00    +0.000 C 
ATOM     11  O   UNL     1      24.463   9.172  37.805  0.00  0.00    +0.000 OA
ENDBRANCH   2  10
BRANCH   1  12
ATOM     12  C   UNL     1      20.233  10.091  37.266  0.00  0.00    +0.000 C 
BRANCH  12  16
ATOM     13  C   UNL     1      17.235   9.417  40.289  0.00  0.00    +0.000 A 
ATOM     14  C   UNL     1      18.547   9.050  40.504  0.00  0.00    +0.000 A 
ATOM     15  C   UNL     1      19.509   9.266  39.535  0.00  0.00    +0.000 A 
ATOM     16  C   UNL     1      19.211   9.851  38.321  0.00  0.00    +0.000 A 
ATOM     17  C   UNL     1      17.897  10.218  38.105  0.00  0.00    +0.000 A 
ATOM     18  C   UNL     1      16.937  10.002  39.074  0.00  0.00    +0.000 A 
BRANCH  13  20
ATOM     19  C   UNL     1      15.813   7.728  41.418  0.00  0.00    +0.000 C 
ATOM     20  C   UNL     1      16.182   9.193  41.322  0.00  0.00    +0.000 C 
ATOM     21  C   UNL     1      16.536   9.802  42.637  0.00  0.00    +0.000 C 
ENDBRANCH  13  20
ENDBRANCH  12  16
ENDBRANCH   1  12
TORSDOF 4
ENDMDL
MODEL 10
REMARK VINA RESULT:      -5.8     14.164     18.127
REMARK  Name = 
REMARK  4 active torsions:
REMARK  status: ('A' for Active; 'I' for Inactive)
REMARK    1  A    between atoms: C_2  and  C_4
REMARK    2  A    between atoms: C_7  and  C_8
REMARK    3  A    between atoms: C_8  and  N_9
REMARK    4  A    between atoms: C_10  and  C_11
REMARK                            x       y       z     vdW  Elec       q    Type
REMARK                         _______ _______ _______ _____ _____    ______ ____
ROOT
ATOM      1  N   UNL     1      29.710  23.043  28.467  0.00  0.00    +0.000 N 
ATOM      2  C   UNL     1      30.569  24.011  28.831  0.00  0.00    +0.000 A 
ATOM      3  N   UNL     1      29.981  24.781  29.767  0.00  0.00    +0.000 NA
ATOM      4  C   UNL     1      28.745  24.273  29.975  0.00  0.00    +0.000 A 
ATOM      5  C   UNL     1      27.704  24.639  30.806  0.00  0.00    +0.000 A 
ATOM      6  C   UNL     1      26.541  23.910  30.794  0.00  0.00    +0.000 A 
ATOM      7  C   UNL     1      26.369  22.822  29.983  0.00  0.00    +0.000 A 
ATOM      8  C   UNL     1      27.392  22.436  29.143  0.00  0.00    +0.000 A 
ATOM      9  C   UNL     1      28.564  23.178  29.161  0.00  0.00    +0.000 A 
ENDROOT
BRANCH   2  10
ATOM     10  C   UNL     1      31.952  24.172  28.261  0.00  0.00    +0.000 C 
ATOM     11  O   UNL     1      32.871  23.475  29.029  0.00  0.00    +0.000 OA
ENDBRANCH   2  10
BRANCH   1  12
ATOM     12  C   UNL     1      29.996  22.024  27.478  0.00  0.00    +0.000 C 
BRANCH  12  16
ATOM     13  C   UNL     1      28.872  23.321  23.524  0.00  0.00    +0.000 A 
ATOM     14  C   UNL     1      27.912  23.064  24.480  0.00  0.00    +0.000 A 
ATOM     15  C   UNL     1      28.272  22.649  25.748  0.00  0.00    +0.000 A 
ATOM     16  C   UNL     1      29.590  22.471  26.118  0.00  0.00    +0.000 A 
ATOM     17  C   UNL     1      30.551  22.727  25.159  0.00  0.00    +0.000 A 
ATOM     18  C   UNL     1      30.190  23.143  23.893  0.00  0.00    +0.000 A 
BRANCH  13  20
ATOM     19  C   UNL     1      27.018  24.038  22.040  0.00  0.00    +0.000 C 
ATOM     20  C   UNL     1      28.504  23.771  22.149  0.00  0.00    +0.000 C 
ATOM     21  C   UNL     1      29.346  24.908  21.677  0.00  0.00    +0.000 C 
ENDBRANCH  13  20
ENDBRANCH  12  16
ENDBRANCH   1  12
TORSDOF 4
ENDMDL
