MODEL 1
REMARK VINA RESULT:      -7.1      0.000      0.000
REMARK  Name = 
REMARK  4 active torsions:
REMARK  status: ('A' for Active; 'I' for Inactive)
REMARK    1  A    between atoms: N_2  and  C_4
REMARK    2  A    between atoms: C_9  and  C_10
REMARK    3  A    between atoms: C_10  and  N_11
REMARK    4  A    between atoms: N_11  and  C_12
REMARK                            x       y       z     vdW  Elec       q    Type
REMARK                         _______ _______ _______ _____ _____    ______ ____
ROOT
ATOM      1  C   UNL     1      17.035   7.978  41.204  0.00  0.00    +0.000 A 
ATOM      2  C   UNL     1      17.017   6.786  41.870  0.00  0.00    +0.000 A 
ATOM      3  C   UNL     1      17.867   5.742  41.544  0.00  0.00    +0.000 A 
ATOM      4  C   UNL     1      18.751   5.933  40.509  0.00  0.00    +0.000 A 
ATOM      5  C   UNL     1      18.778   7.125  39.833  0.00  0.00    +0.000 A 
ATOM      6  C   UNL     1      17.940   8.148  40.158  0.00  0.00    +0.000 A 
ATOM      7  O   UNL     1      19.505   4.787  40.341  0.00  0.00    +0.000 OA
ATOM      8  C   UNL     1      19.164   3.836  41.354  0.00  0.00    +0.000 C 
ATOM      9  O   UNL     1      18.070   4.441  42.038  0.00  0.00    +0.000 OA
ENDROOT
BRANCH   1  11
ATOM     10  O   UNL     1      15.075   9.185  40.962  0.00  0.00    +0.000 OA
ATOM     11  N   UNL     1      16.158   9.054  41.540  0.00  0.00    +0.000 N 
ATOM     12  O   UNL     1      16.521   9.943  42.509  0.00  0.00    +0.000 OA
ENDBRANCH   1  11
BRANCH   6  13
ATOM     13  C   UNL     1      17.935   9.460  39.460  0.00  0.00    +0.000 C 
BRANCH  13  14
ATOM     14  N   UNL     1      18.545   9.288  38.164  0.00  0.00    +0.000 NA
BRANCH  14  15
ATOM     15  C   UNL     1      17.861   9.782  37.019  0.00  0.00    +0.000 A 
ATOM     16  C   UNL     1      18.209   9.458  35.726  0.00  0.00    +0.000 A 
ATOM     17  C   UNL     1      17.518   9.960  34.649  0.00  0.00    +0.000 A 
ATOM     18  C   UNL     1      16.426  10.825  34.798  0.00  0.00    +0.000 A 
ATOM     19  C   UNL     1      16.077  11.150  36.083  0.00  0.00    +0.000 A 
ATOM     20  C   UNL     1      16.780  10.639  37.179  0.00  0.00    +0.000 A 
ATOM     21  C   UNL     1      14.897  12.076  36.044  0.00  0.00    +0.000 C 
ATOM     22  C   UNL     1      14.849  12.538  34.605  0.00  0.00    +0.000 C 
ATOM     23  C   UNL     1      15.539  11.484  33.806  0.00  0.00    +0.000 C 
ENDBRANCH  14  15
ENDBRANCH  13  14
ENDBRANCH   6  13
TORSDOF 4
ENDMDL
MODEL 2
REMARK VINA RESULT:      -7.1     32.339     34.855
REMARK  Name = 
REMARK  4 active torsions:
REMARK  status: ('A' for Active; 'I' for Inactive)
REMARK    1  A    between atoms: N_2  and  C_4
REMARK    2  A    between atoms: C_9  and  C_10
REMARK    3  A    between atoms: C_10  and  N_11
REMARK    4  A    between atoms: N_11  and  C_12
REMARK                            x       y       z     vdW  Elec       q    Type
REMARK                         _______ _______ _______ _____ _____    ______ ____
ROOT
ATOM      1  C   UNL     1      33.042  20.005   8.287  0.00  0.00    +0.000 A 
ATOM      2  C   UNL     1      32.965  19.092   7.274  0.00  0.00    +0.000 A 
ATOM      3  C   UNL     1      31.795  18.863   6.570  0.00  0.00    +0.000 A 
ATOM      4  C   UNL     1      30.683  19.591   6.918  0.00  0.00    +0.000 A 
ATOM      5  C   UNL     1      30.747  20.510   7.932  0.00  0.00    +0.000 A 
ATOM      6  C   UNL     1      31.900  20.731   8.623  0.00  0.00    +0.000 A 
ATOM      7  O   UNL     1      29.628  19.221   6.105  0.00  0.00    +0.000 OA
ATOM      8  C   UNL     1      30.081  18.277   5.131  0.00  0.00    +0.000 C 
ATOM      9  O   UNL     1      31.430  18.013   5.511  0.00  0.00    +0.000 OA
ENDROOT
BRANCH   1  11
ATOM     10  O   UNL     1      35.049  21.103   8.639  0.00  0.00    +0.000 OA
ATOM     11  N   UNL     1      34.248  20.240   9.014  0.00  0.00    +0.000 N 
ATOM     12  O   UNL     1      34.516  19.507  10.133  0.00  0.00    +0.000 OA
ENDBRANCH   1  11
BRANCH   6  13
ATOM     13  C   UNL     1      32.023  21.719   9.725  0.00  0.00    +0.000 C 
BRANCH  13  14
ATOM     14  N   UNL     1      31.464  21.138  10.921  0.00  0.00    +0.000 NA
BRANCH  14  15
ATOM     15  C   UNL     1      30.414  21.829  11.588  0.00  0.00    +0.000 A 
ATOM     16  C   UNL     1      30.595  22.549  12.748  0.00  0.00    +0.000 A 
ATOM     17  C   UNL     1      29.549  23.202  13.357  0.00  0.00    +0.000 A 
ATOM     18  C   UNL     1      28.247  23.175  12.841  0.00  0.00    +0.000 A 
ATOM     19  C   UNL     1      28.064  22.458  11.686  0.00  0.00    +0.000 A 
ATOM     20  C   UNL     1      29.128  21.794  11.066  0.00  0.00    +0.000 A 
ATOM     21  C   UNL     1      26.619  22.543  11.288  0.00  0.00    +0.000 C 
ATOM     22  C   UNL     1      25.934  23.066  12.530  0.00  0.00    +0.000 C 
ATOM     23  C   UNL     1      26.980  23.789  13.311  0.00  0.00    +0.000 C 
ENDBRANCH  14  15
ENDBRANCH  13  14
ENDBRANCH   6  13
TORSDOF 4
ENDMDL
MODEL 3
REMARK VINA RESULT:      -6.9     19.664     21.723
REMARK  Name = 
REMARK  4 active torsions:
REMARK  status: ('A' for Active; 'I' for Inactive)
REMARK    1  A    between atoms: N_2  and  C_4
REMARK    2  A    between atoms: C_9  and  C_10
REMARK    3  A    between atoms: C_10  and  N_11
REMARK    4  A    between atoms: N_11  and  C_12
REMARK                            x       y       z     vdW  Elec       q    Type
REMARK                         _______ _______ _______ _____ _____    ______ ____
ROOT
ATOM      1  C   UNL     1      27.943  22.661  30.257  0.00  0.00    +0.000 A 
ATOM      2  C   UNL     1      28.946  22.479  31.166  0.00  0.00    +0.000 A 
ATOM      3  C   UNL     1      30.282  22.474  30.805  0.00  0.00    +0.000 A 
ATOM      4  C   UNL     1      30.590  22.659  29.478  0.00  0.00    +0.000 A 
ATOM      5  C   UNL     1      29.594  22.843  28.556  0.00  0.00    +0.000 A 
ATOM      6  C   UNL     1      28.280  22.847  28.916  0.00  0.00    +0.000 A 
ATOM      7  O   UNL     1      31.963  22.621  29.324  0.00  0.00    +0.000 OA
ATOM      8  C   UNL     1      32.587  22.491  30.605  0.00  0.00    +0.000 C 
ATOM      9  O   UNL     1      31.493  22.315  31.502  0.00  0.00    +0.000 OA
ENDROOT
BRANCH   1  11
ATOM     10  O   UNL     1      25.969  23.732  30.816  0.00  0.00    +0.000 OA
ATOM     11  N   UNL     1      26.565  22.667  30.628  0.00  0.00    +0.000 N 
ATOM     12  O   UNL     1      25.901  21.484  30.775  0.00  0.00    +0.000 OA
ENDBRANCH   1  11
BRANCH   6  13
ATOM     13  C   UNL     1      27.165  23.048  27.956  0.00  0.00    +0.000 C 
BRANCH  13  14
ATOM     14  N   UNL     1      27.413  22.231  26.793  0.00  0.00    +0.000 NA
BRANCH  14  15
ATOM     15  C   UNL     1      27.352  22.839  25.508  0.00  0.00    +0.000 A 
ATOM     16  C   UNL     1      26.184  22.992  24.794  0.00  0.00    +0.000 A 
ATOM     17  C   UNL     1      26.173  23.587  23.555  0.00  0.00    +0.000 A 
ATOM     18  C   UNL     1      27.339  24.069  22.946  0.00  0.00    +0.000 A 
ATOM     19  C   UNL     1      28.504  23.917  23.654  0.00  0.00    +0.000 A 
ATOM     20  C   UNL     1      28.515  23.312  24.916  0.00  0.00    +0.000 A 
ATOM     21  C   UNL     1      29.636  24.488  22.851  0.00  0.00    +0.000 C 
ATOM     22  C   UNL     1      29.053  24.639  21.464  0.00  0.00    +0.000 C 
ATOM     23  C   UNL     1      27.575  24.736  21.641  0.00  0.00    +0.000 C 
ENDBRANCH  14  15
ENDBRANCH  13  14
ENDBRANCH   6  13
TORSDOF 4
ENDMDL
MODEL 4
REMARK VINA RESULT:      -6.9      3.687      6.430
REMARK  Name = 
REMARK  4 active torsions:
REMARK  status: ('A' for Active; 'I' for Inactive)
REMARK    1  A    between atoms: N_2  and  C_4
REMARK    2  A    between atoms: C_9  and  C_10
REMARK    3  A    between atoms: C_10  and  N_11
REMARK    4  A    between atoms: N_11  and  C_12
REMARK                            x       y       z     vdW  Elec       q    Type
REMARK                         _______ _______ _______ _____ _____    ______ ____
ROOT
ATOM      1  C   UNL     1      16.059   9.944  39.671  0.00  0.00    +0.000 A 
ATOM      2  C   UNL     1      14.755  10.330  39.539  0.00  0.00    +0.000 A 
ATOM      3  C   UNL     1      14.294  11.015  38.428  0.00  0.00    +0.000 A 
ATOM      4  C   UNL     1      15.196  11.310  37.434  0.00  0.00    +0.000 A 
ATOM      5  C   UNL     1      16.506  10.928  37.555  0.00  0.00    +0.000 A 
ATOM      6  C   UNL     1      16.956  10.254  38.649  0.00  0.00    +0.000 A 
ATOM      7  O   UNL     1      14.547  11.990  36.422  0.00  0.00    +0.000 OA
ATOM      8  C   UNL     1      13.150  12.074  36.719  0.00  0.00    +0.000 C 
ATOM      9  O   UNL     1      13.045  11.525  38.030  0.00  0.00    +0.000 OA
ENDROOT
BRANCH   1  11
ATOM     10  O   UNL     1      16.778   9.837  41.868  0.00  0.00    +0.000 OA
ATOM     11  N   UNL     1      16.535   9.237  40.816  0.00  0.00    +0.000 N 
ATOM     12  O   UNL     1      16.721   7.887  40.748  0.00  0.00    +0.000 OA
ENDBRANCH   1  11
BRANCH   6  13
ATOM     13  C   UNL     1      18.364   9.814  38.824  0.00  0.00    +0.000 C 
BRANCH  13  14
ATOM     14  N   UNL     1      19.032   9.911  37.549  0.00  0.00    +0.000 NA
BRANCH  14  15
ATOM     15  C   UNL     1      20.377  10.372  37.519  0.00  0.00    +0.000 A 
ATOM     16  C   UNL     1      20.813  11.492  38.194  0.00  0.00    +0.000 A 
ATOM     17  C   UNL     1      22.124  11.900  38.136  0.00  0.00    +0.000 A 
ATOM     18  C   UNL     1      23.091  11.209  37.393  0.00  0.00    +0.000 A 
ATOM     19  C   UNL     1      22.660  10.094  36.720  0.00  0.00    +0.000 A 
ATOM     20  C   UNL     1      21.326   9.679  36.779  0.00  0.00    +0.000 A 
ATOM     21  C   UNL     1      23.824   9.492  35.988  0.00  0.00    +0.000 C 
ATOM     22  C   UNL     1      24.869  10.585  36.012  0.00  0.00    +0.000 C 
ATOM     23  C   UNL     1      24.540  11.451  37.182  0.00  0.00    +0.000 C 
ENDBRANCH  14  15
ENDBRANCH  13  14
ENDBRANCH   6  13
TORSDOF 4
ENDMDL
MODEL 5
REMARK VINA RESULT:      -6.8      3.035      5.181
REMARK  Name = 
REMARK  4 active torsions:
REMARK  status: ('A' for Active; 'I' for Inactive)
REMARK    1  A    between atoms: N_2  and  C_4
REMARK    2  A    between atoms: C_9  and  C_10
REMARK    3  A    between atoms: C_10  and  N_11
REMARK    4  A    between atoms: N_11  and  C_12
REMARK                            x       y       z     vdW  Elec       q    Type
REMARK                         _______ _______ _______ _____ _____    ______ ____
ROOT
ATOM      1  C   UNL     1      18.765  10.202  39.174  0.00  0.00    +0.000 A 
ATOM      2  C   UNL     1      19.792  10.743  39.893  0.00  0.00    +0.000 A 
ATOM      3  C   UNL     1      20.393  11.940  39.543  0.00  0.00    +0.000 A 
ATOM      4  C   UNL     1      19.925  12.591  38.427  0.00  0.00    +0.000 A 
ATOM      5  C   UNL     1      18.896  12.059  37.697  0.00  0.00    +0.000 A 
ATOM      6  C   UNL     1      18.307  10.881  38.045  0.00  0.00    +0.000 A 
ATOM      7  O   UNL     1      20.648  13.756  38.247  0.00  0.00    +0.000 OA
ATOM      8  C   UNL     1      21.568  13.921  39.330  0.00  0.00    +0.000 C 
ATOM      9  O   UNL     1      21.438  12.715  40.078  0.00  0.00    +0.000 OA
ENDROOT
BRANCH   1  11
ATOM     10  O   UNL     1      18.639   7.891  39.184  0.00  0.00    +0.000 OA
ATOM     11  N   UNL     1      18.145   8.968  39.535  0.00  0.00    +0.000 N 
ATOM     12  O   UNL     1      16.999   8.979  40.275  0.00  0.00    +0.000 OA
ENDBRANCH   1  11
BRANCH   6  13
ATOM     13  C   UNL     1      17.185  10.267  37.291  0.00  0.00    +0.000 C 
BRANCH  13  14
ATOM     14  N   UNL     1      16.132  11.245  37.164  0.00  0.00    +0.000 NA
BRANCH  14  15
ATOM     15  C   UNL     1      15.709  11.625  35.861  0.00  0.00    +0.000 A 
ATOM     16  C   UNL     1      14.808  12.640  35.619  0.00  0.00    +0.000 A 
ATOM     17  C   UNL     1      14.428  12.972  34.340  0.00  0.00    +0.000 A 
ATOM     18  C   UNL     1      14.928  12.306  33.214  0.00  0.00    +0.000 A 
ATOM     19  C   UNL     1      15.824  11.295  33.451  0.00  0.00    +0.000 A 
ATOM     20  C   UNL     1      16.210  10.957  34.752  0.00  0.00    +0.000 A 
ATOM     21  C   UNL     1      16.245  10.704  32.137  0.00  0.00    +0.000 C 
ATOM     22  C   UNL     1      15.218  11.230  31.160  0.00  0.00    +0.000 C 
ATOM     23  C   UNL     1      14.672  12.482  31.762  0.00  0.00    +0.000 C 
ENDBRANCH  14  15
ENDBRANCH  13  14
ENDBRANCH   6  13
TORSDOF 4
ENDMDL
MODEL 6
REMARK VINA RESULT:      -6.8     31.785     34.045
REMARK  Name = 
REMARK  4 active torsions:
REMARK  status: ('A' for Active; 'I' for Inactive)
REMARK    1  A    between atoms: N_2  and  C_4
REMARK    2  A    between atoms: C_9  and  C_10
REMARK    3  A    between atoms: C_10  and  N_11
REMARK    4  A    between atoms: N_11  and  C_12
REMARK                            x       y       z     vdW  Elec       q    Type
REMARK                         _______ _______ _______ _____ _____    ______ ____
ROOT
ATOM      1  C   UNL     1      33.986  20.125   9.456  0.00  0.00    +0.000 A 
ATOM      2  C   UNL     1      35.240  19.642   9.700  0.00  0.00    +0.000 A 
ATOM      3  C   UNL     1      35.732  19.469  10.982  0.00  0.00    +0.000 A 
ATOM      4  C   UNL     1      34.914  19.803  12.035  0.00  0.00    +0.000 A 
ATOM      5  C   UNL     1      33.654  20.289  11.804  0.00  0.00    +0.000 A 
ATOM      6  C   UNL     1      33.174  20.457  10.540  0.00  0.00    +0.000 A 
ATOM      7  O   UNL     1      35.581  19.560  13.221  0.00  0.00    +0.000 OA
ATOM      8  C   UNL     1      36.852  18.966  12.943  0.00  0.00    +0.000 C 
ATOM      9  O   UNL     1      36.945  19.005  11.521  0.00  0.00    +0.000 OA
ENDROOT
BRANCH   1  11
ATOM     10  O   UNL     1      32.901  19.379   7.553  0.00  0.00    +0.000 OA
ATOM     11  N   UNL     1      33.478  20.304   8.134  0.00  0.00    +0.000 N 
ATOM     12  O   UNL     1      33.631  21.507   7.509  0.00  0.00    +0.000 OA
ENDBRANCH   1  11
BRANCH   6  13
ATOM     13  C   UNL     1      31.815  20.975  10.239  0.00  0.00    +0.000 C 
BRANCH  13  14
ATOM     14  N   UNL     1      31.680  22.278  10.843  0.00  0.00    +0.000 NA
BRANCH  14  15
ATOM     15  C   UNL     1      30.476  22.586  11.535  0.00  0.00    +0.000 A 
ATOM     16  C   UNL     1      30.442  23.239  12.748  0.00  0.00    +0.000 A 
ATOM     17  C   UNL     1      29.253  23.516  13.380  0.00  0.00    +0.000 A 
ATOM     18  C   UNL     1      28.013  23.155  12.836  0.00  0.00    +0.000 A 
ATOM     19  C   UNL     1      28.044  22.505  11.629  0.00  0.00    +0.000 A 
ATOM     20  C   UNL     1      29.254  22.222  10.985  0.00  0.00    +0.000 A 
ATOM     21  C   UNL     1      26.636  22.201  11.207  0.00  0.00    +0.000 C 
ATOM     22  C   UNL     1      25.830  22.410  12.469  0.00  0.00    +0.000 C 
ATOM     23  C   UNL     1      26.623  23.343  13.322  0.00  0.00    +0.000 C 
ENDBRANCH  14  15
ENDBRANCH  13  14
ENDBRANCH   6  13
TORSDOF 4
ENDMDL
MODEL 7
REMARK VINA RESULT:      -6.6      2.856      4.251
REMARK  Name = 
REMARK  4 active torsions:
REMARK  status: ('A' for Active; 'I' for Inactive)
REMARK    1  A    between atoms: N_2  and  C_4
REMARK    2  A    between atoms: C_9  and  C_10
REMARK    3  A    between atoms: C_10  and  N_11
REMARK    4  A    between atoms: N_11  and  C_12
REMARK                            x       y       z     vdW  Elec       q    Type
REMARK                         _______ _______ _______ _____ _____    ______ ____
ROOT
ATOM      1  C   UNL     1      16.988   8.251  41.053  0.00  0.00    +0.000 A 
ATOM      2  C   UNL     1      17.010   7.030  41.662  0.00  0.00    +0.000 A 
ATOM      3  C   UNL     1      17.879   6.023  41.276  0.00  0.00    +0.000 A 
ATOM      4  C   UNL     1      18.741   6.283  40.238  0.00  0.00    +0.000 A 
ATOM      5  C   UNL     1      18.729   7.505  39.618  0.00  0.00    +0.000 A 
ATOM      6  C   UNL     1      17.872   8.491  40.001  0.00  0.00    +0.000 A 
ATOM      7  O   UNL     1      19.518   5.164  40.006  0.00  0.00    +0.000 OA
ATOM      8  C   UNL     1      19.217   4.160  40.979  0.00  0.00    +0.000 C 
ATOM      9  O   UNL     1      18.120   4.707  41.707  0.00  0.00    +0.000 OA
ENDROOT
BRANCH   1  11
ATOM     10  O   UNL     1      16.330   9.975  42.450  0.00  0.00    +0.000 OA
ATOM     11  N   UNL     1      16.092   9.289  41.451  0.00  0.00    +0.000 N 
ATOM     12  O   UNL     1      14.964   9.525  40.720  0.00  0.00    +0.000 OA
ENDBRANCH   1  11
BRANCH   6  13
ATOM     13  C   UNL     1      17.824   9.833  39.365  0.00  0.00    +0.000 C 
BRANCH  13  14
ATOM     14  N   UNL     1      18.502   9.758  38.094  0.00  0.00    +0.000 NA
BRANCH  14  15
ATOM     15  C   UNL     1      19.811  10.306  37.987  0.00  0.00    +0.000 A 
ATOM     16  C   UNL     1      20.228  11.419  38.683  0.00  0.00    +0.000 A 
ATOM     17  C   UNL     1      21.504  11.913  38.548  0.00  0.00    +0.000 A 
ATOM     18  C   UNL     1      22.450  11.320  37.701  0.00  0.00    +0.000 A 
ATOM     19  C   UNL     1      22.037  10.212  37.007  0.00  0.00    +0.000 A 
ATOM     20  C   UNL     1      20.739   9.710  37.144  0.00  0.00    +0.000 A 
ATOM     21  C   UNL     1      23.175   9.721  36.161  0.00  0.00    +0.000 C 
ATOM     22  C   UNL     1      24.150  10.876  36.161  0.00  0.00    +0.000 C 
ATOM     23  C   UNL     1      23.862  11.665  37.395  0.00  0.00    +0.000 C 
ENDBRANCH  14  15
ENDBRANCH  13  14
ENDBRANCH   6  13
TORSDOF 4
ENDMDL
MODEL 8
REMARK VINA RESULT:      -6.4     22.239     23.941
REMARK  Name = 
REMARK  4 active torsions:
REMARK  status: ('A' for Active; 'I' for Inactive)
REMARK    1  A    between atoms: N_2  and  C_4
REMARK    2  A    between atoms: C_9  and  C_10
REMARK    3  A    between atoms: C_10  and  N_11
REMARK    4  A    between atoms: N_11  and  C_12
REMARK                            x       y       z     vdW  Elec       q    Type
REMARK                         _______ _______ _______ _____ _____    ______ ____
ROOT
ATOM      1  C   UNL     1      23.582   1.481  17.218  0.00  0.00    +0.000 A 
ATOM      2  C   UNL     1      22.489   0.822  16.733  0.00  0.00    +0.000 A 
ATOM      3  C   UNL     1      21.195   1.253  16.975  0.00  0.00    +0.000 A 
ATOM      4  C   UNL     1      21.027   2.386  17.733  0.00  0.00    +0.000 A 
ATOM      5  C   UNL     1      22.115   3.057  18.226  0.00  0.00    +0.000 A 
ATOM      6  C   UNL     1      23.386   2.629  17.986  0.00  0.00    +0.000 A 
ATOM      7  O   UNL     1      19.676   2.649  17.859  0.00  0.00    +0.000 OA
ATOM      8  C   UNL     1      18.929   1.705  17.086  0.00  0.00    +0.000 C 
ATOM      9  O   UNL     1      19.916   0.791  16.615  0.00  0.00    +0.000 OA
ENDROOT
BRANCH   1  11
ATOM     10  O   UNL     1      25.383   0.076  17.590  0.00  0.00    +0.000 OA
ATOM     11  N   UNL     1      24.915   1.037  16.970  0.00  0.00    +0.000 N 
ATOM     12  O   UNL     1      25.679   1.678  16.038  0.00  0.00    +0.000 OA
ENDBRANCH   1  11
BRANCH   6  13
ATOM     13  C   UNL     1      24.597   3.323  18.492  0.00  0.00    +0.000 C 
BRANCH  13  14
ATOM     14  N   UNL     1      24.549   4.698  18.057  0.00  0.00    +0.000 NA
BRANCH  14  15
ATOM     15  C   UNL     1      25.767   5.346  17.708  0.00  0.00    +0.000 A 
ATOM     16  C   UNL     1      26.851   5.432  18.555  0.00  0.00    +0.000 A 
ATOM     17  C   UNL     1      28.009   6.068  18.174  0.00  0.00    +0.000 A 
ATOM     18  C   UNL     1      28.157   6.662  16.914  0.00  0.00    +0.000 A 
ATOM     19  C   UNL     1      27.080   6.578  16.070  0.00  0.00    +0.000 A 
ATOM     20  C   UNL     1      25.901   5.931  16.457  0.00  0.00    +0.000 A 
ATOM     21  C   UNL     1      27.422   7.263  14.779  0.00  0.00    +0.000 C 
ATOM     22  C   UNL     1      28.659   8.066  15.115  0.00  0.00    +0.000 C 
ATOM     23  C   UNL     1      29.289   7.391  16.287  0.00  0.00    +0.000 C 
ENDBRANCH  14  15
ENDBRANCH  13  14
ENDBRANCH   6  13
TORSDOF 4
ENDMDL
MODEL 9
REMARK VINA RESULT:      -6.3      4.709      6.783
REMARK  Name = 
REMARK  4 active torsions:
REMARK  status: ('A' for Active; 'I' for Inactive)
REMARK    1  A    between atoms: N_2  and  C_4
REMARK    2  A    between atoms: C_9  and  C_10
REMARK    3  A    between atoms: C_10  and  N_11
REMARK    4  A    between atoms: N_11  and  C_12
REMARK                            x       y       z     vdW  Elec       q    Type
REMARK                         _______ _______ _______ _____ _____    ______ ____
ROOT
ATOM      1  C   UNL     1      23.060  10.909  37.615  0.00  0.00    +0.000 A 
ATOM      2  C   UNL     1      23.767  11.949  38.149  0.00  0.00    +0.000 A 
ATOM      3  C   UNL     1      23.150  13.067  38.684  0.00  0.00    +0.000 A 
ATOM      4  C   UNL     1      21.776  13.114  38.666  0.00  0.00    +0.000 A 
ATOM      5  C   UNL     1      21.056  12.077  38.133  0.00  0.00    +0.000 A 
ATOM      6  C   UNL     1      21.668  10.979  37.608  0.00  0.00    +0.000 A 
ATOM      7  O   UNL     1      21.357  14.299  39.240  0.00  0.00    +0.000 OA
ATOM      8  C   UNL     1      22.490  15.022  39.730  0.00  0.00    +0.000 C 
ATOM      9  O   UNL     1      23.605  14.255  39.284  0.00  0.00    +0.000 OA
ENDROOT
BRANCH   1  11
ATOM     10  O   UNL     1      23.959   8.783  37.776  0.00  0.00    +0.000 OA
ATOM     11  N   UNL     1      23.696   9.757  37.063  0.00  0.00    +0.000 N 
ATOM     12  O   UNL     1      24.013   9.730  35.736  0.00  0.00    +0.000 OA
ENDBRANCH   1  11
BRANCH   6  13
ATOM     13  C   UNL     1      20.932   9.828  37.025  0.00  0.00    +0.000 C 
BRANCH  13  14
ATOM     14  N   UNL     1      19.626   9.767  37.635  0.00  0.00    +0.000 NA
BRANCH  14  15
ATOM     15  C   UNL     1      18.509  10.259  36.905  0.00  0.00    +0.000 A 
ATOM     16  C   UNL     1      17.489  10.988  37.475  0.00  0.00    +0.000 A 
ATOM     17  C   UNL     1      16.428  11.444  36.728  0.00  0.00    +0.000 A 
ATOM     18  C   UNL     1      16.320  11.197  35.353  0.00  0.00    +0.000 A 
ATOM     19  C   UNL     1      17.334  10.471  34.783  0.00  0.00    +0.000 A 
ATOM     20  C   UNL     1      18.413  10.007  35.543  0.00  0.00    +0.000 A 
ATOM     21  C   UNL     1      17.047  10.309  33.319  0.00  0.00    +0.000 C 
ATOM     22  C   UNL     1      15.591  10.692  33.192  0.00  0.00    +0.000 C 
ATOM     23  C   UNL     1      15.290  11.578  34.354  0.00  0.00    +0.000 C 
ENDBRANCH  14  15
ENDBRANCH  13  14
ENDBRANCH   6  13
TORSDOF 4
ENDMDL
MODEL 10
REMARK VINA RESULT:      -6.3     22.099     24.382
REMARK  Name = 
REMARK  4 active torsions:
REMARK  status: ('A' for Active; 'I' for Inactive)
REMARK    1  A    between atoms: N_2  and  C_4
REMARK    2  A    between atoms: C_9  and  C_10
REMARK    3  A    between atoms: C_10  and  N_11
REMARK    4  A    between atoms: N_11  and  C_12
REMARK                            x       y       z     vdW  Elec       q    Type
REMARK                         _______ _______ _______ _____ _____    ______ ____
ROOT
ATOM      1  C   UNL     1      27.189  23.518  25.023  0.00  0.00    +0.000 A 
ATOM      2  C   UNL     1      26.334  23.655  26.079  0.00  0.00    +0.000 A 
ATOM      3  C   UNL     1      26.667  23.246  27.360  0.00  0.00    +0.000 A 
ATOM      4  C   UNL     1      27.905  22.683  27.553  0.00  0.00    +0.000 A 
ATOM      5  C   UNL     1      28.772  22.539  26.502  0.00  0.00    +0.000 A 
ATOM      6  C   UNL     1      28.440  22.943  25.244  0.00  0.00    +0.000 A 
ATOM      7  O   UNL     1      28.044  22.344  28.887  0.00  0.00    +0.000 OA
ATOM      8  C   UNL     1      26.891  22.776  29.614  0.00  0.00    +0.000 C 
ATOM      9  O   UNL     1      26.010  23.261  28.603  0.00  0.00    +0.000 OA
ENDROOT
BRANCH   1  11
ATOM     10  O   UNL     1      27.109  25.084  23.321  0.00  0.00    +0.000 OA
ATOM     11  N   UNL     1      26.847  23.939  23.703  0.00  0.00    +0.000 N 
ATOM     12  O   UNL     1      26.228  23.067  22.855  0.00  0.00    +0.000 OA
ENDBRANCH   1  11
BRANCH   6  13
ATOM     13  C   UNL     1      29.346  22.815  24.074  0.00  0.00    +0.000 C 
BRANCH  13  14
ATOM     14  N   UNL     1      30.689  22.606  24.559  0.00  0.00    +0.000 NA
BRANCH  14  15
ATOM     15  C   UNL     1      31.543  23.735  24.704  0.00  0.00    +0.000 A 
ATOM     16  C   UNL     1      31.080  25.021  24.875  0.00  0.00    +0.000 A 
ATOM     17  C   UNL     1      31.944  26.082  25.013  0.00  0.00    +0.000 A 
ATOM     18  C   UNL     1      33.336  25.922  24.987  0.00  0.00    +0.000 A 
ATOM     19  C   UNL     1      33.799  24.643  24.817  0.00  0.00    +0.000 A 
ATOM     20  C   UNL     1      32.920  23.563  24.677  0.00  0.00    +0.000 A 
ATOM     21  C   UNL     1      35.300  24.668  24.816  0.00  0.00    +0.000 C 
ATOM     22  C   UNL     1      35.635  26.130  24.627  0.00  0.00    +0.000 C 
ATOM     23  C   UNL     1      34.449  26.896  25.112  0.00  0.00    +0.000 C 
ENDBRANCH  14  15
ENDBRANCH  13  14
ENDBRANCH   6  13
TORSDOF 4
ENDMDL
