MODEL 1
REMARK VINA RESULT:      -6.3      0.000      0.000
REMARK  Name = 
REMARK  2 active torsions:
REMARK  status: ('A' for Active; 'I' for Inactive)
REMARK    1  A    between atoms: C_2  and  C_3
REMARK    2  A    between atoms: C_13  and  C_14
REMARK                            x       y       z     vdW  Elec       q    Type
REMARK                         _______ _______ _______ _____ _____    ______ ____
ROOT
ATOM      1  C   UNL     1      16.730  -9.453  26.783  0.00  0.00    +0.000 C 
ATOM      2  C   UNL     1      16.871 -10.712  26.580  0.00  0.00    +0.000 C 
ATOM      3  N   UNL     1      16.148 -11.398  25.496  0.00  0.00    +0.000 NA
ATOM      4  O   UNL     1      17.690 -11.560  27.321  0.00  0.00    +0.000 OA
ATOM      5  C   UNL     1      18.369 -10.910  28.339  0.00  0.00    +0.000 C 
ATOM      6  C   UNL     1      18.292  -9.655  28.621  0.00  0.00    +0.000 C 
ATOM      7  C   UNL     1      19.134  -9.149  29.793  0.00  0.00    +0.000 C 
ATOM      8  C   UNL     1      18.788  -9.997  30.952  0.00  0.00    +0.000 C 
ATOM      9  C   UNL     1      18.930 -11.457  30.689  0.00  0.00    +0.000 C 
ATOM     10  C   UNL     1      19.306 -11.698  29.244  0.00  0.00    +0.000 C 
ATOM     11  C   UNL     1      17.430  -8.697  27.859  0.00  0.00    +0.000 C 
ENDROOT
BRANCH  11  12
ATOM     12  C   UNL     1      18.386  -7.745  27.089  0.00  0.00    +0.000 A 
ATOM     13  C   UNL     1      19.459  -8.096  26.369  0.00  0.00    +0.000 A 
ATOM     14  C   UNL     1      20.231  -7.156  25.729  0.00  0.00    +0.000 A 
ATOM     15  C   UNL     1      19.917  -5.836  25.816  0.00  0.00    +0.000 A 
ATOM     16  C   UNL     1      18.823  -5.428  26.545  0.00  0.00    +0.000 A 
ATOM     17  F   UNL     1      18.521  -4.111  26.624  0.00  0.00    +0.000 F 
ATOM     18  C   UNL     1      18.066  -6.428  27.180  0.00  0.00    +0.000 A 
ENDBRANCH  11  12
BRANCH   1  20
ATOM     19  N   UNL     1      15.104  -8.190  25.165  0.00  0.00    +0.000 NA
ATOM     20  C   UNL     1      15.819  -8.760  25.883  0.00  0.00    +0.000 C 
ENDBRANCH   1  20
TORSDOF 2
ENDMDL
MODEL 2
REMARK VINA RESULT:      -6.2     20.873     21.970
REMARK  Name = 
REMARK  2 active torsions:
REMARK  status: ('A' for Active; 'I' for Inactive)
REMARK    1  A    between atoms: C_2  and  C_3
REMARK    2  A    between atoms: C_13  and  C_14
REMARK                            x       y       z     vdW  Elec       q    Type
REMARK                         _______ _______ _______ _____ _____    ______ ____
ROOT
ATOM      1  C   UNL     1      18.091   9.282  38.420  0.00  0.00    +0.000 C 
ATOM      2  C   UNL     1      17.058   9.884  38.885  0.00  0.00    +0.000 C 
ATOM      3  N   UNL     1      16.603   9.665  40.268  0.00  0.00    +0.000 NA
ATOM      4  O   UNL     1      16.264  10.784  38.179  0.00  0.00    +0.000 OA
ATOM      5  C   UNL     1      16.696  10.987  36.877  0.00  0.00    +0.000 C 
ATOM      6  C   UNL     1      17.717  10.431  36.322  0.00  0.00    +0.000 C 
ATOM      7  C   UNL     1      18.011  10.802  34.868  0.00  0.00    +0.000 C 
ATOM      8  C   UNL     1      16.766  10.551  34.113  0.00  0.00    +0.000 C 
ATOM      9  C   UNL     1      15.571  11.235  34.684  0.00  0.00    +0.000 C 
ATOM     10  C   UNL     1      15.934  11.943  35.971  0.00  0.00    +0.000 C 
ATOM     11  C   UNL     1      18.605   9.457  37.032  0.00  0.00    +0.000 C 
ENDROOT
BRANCH  11  12
ATOM     12  C   UNL     1      19.978  10.157  37.225  0.00  0.00    +0.000 A 
ATOM     13  C   UNL     1      20.230  11.233  37.982  0.00  0.00    +0.000 A 
ATOM     14  C   UNL     1      21.495  11.764  38.073  0.00  0.00    +0.000 A 
ATOM     15  C   UNL     1      22.526  11.201  37.388  0.00  0.00    +0.000 A 
ATOM     16  C   UNL     1      22.315  10.094  36.598  0.00  0.00    +0.000 A 
ATOM     17  F   UNL     1      23.350   9.543  35.922  0.00  0.00    +0.000 F 
ATOM     18  C   UNL     1      21.004   9.590  36.539  0.00  0.00    +0.000 A 
ENDBRANCH  11  12
BRANCH   1  20
ATOM     19  N   UNL     1      19.335   7.667  40.063  0.00  0.00    +0.000 NA
ATOM     20  C   UNL     1      18.772   8.381  39.338  0.00  0.00    +0.000 C 
ENDBRANCH   1  20
TORSDOF 2
ENDMDL
MODEL 3
REMARK VINA RESULT:      -6.1     33.583     34.724
REMARK  Name = 
REMARK  2 active torsions:
REMARK  status: ('A' for Active; 'I' for Inactive)
REMARK    1  A    between atoms: C_2  and  C_3
REMARK    2  A    between atoms: C_13  and  C_14
REMARK                            x       y       z     vdW  Elec       q    Type
REMARK                         _______ _______ _______ _____ _____    ______ ____
ROOT
ATOM      1  C   UNL     1      27.945  23.638  23.189  0.00  0.00    +0.000 C 
ATOM      2  C   UNL     1      29.117  23.866  22.722  0.00  0.00    +0.000 C 
ATOM      3  N   UNL     1      29.342  24.061  21.280  0.00  0.00    +0.000 NA
ATOM      4  O   UNL     1      30.282  23.959  23.480  0.00  0.00    +0.000 OA
ATOM      5  C   UNL     1      30.066  23.775  24.836  0.00  0.00    +0.000 C 
ATOM      6  C   UNL     1      28.930  23.540  25.398  0.00  0.00    +0.000 C 
ATOM      7  C   UNL     1      28.924  23.370  26.918  0.00  0.00    +0.000 C 
ATOM      8  C   UNL     1      29.919  22.323  27.225  0.00  0.00    +0.000 C 
ATOM      9  C   UNL     1      31.268  22.591  26.650  0.00  0.00    +0.000 C 
ATOM     10  C   UNL     1      31.240  23.844  25.803  0.00  0.00    +0.000 C 
ATOM     11  C   UNL     1      27.647  23.432  24.635  0.00  0.00    +0.000 C 
ENDROOT
BRANCH  11  12
ATOM     12  C   UNL     1      26.787  24.666  25.021  0.00  0.00    +0.000 A 
ATOM     13  C   UNL     1      26.995  25.936  24.652  0.00  0.00    +0.000 A 
ATOM     14  C   UNL     1      26.158  26.947  25.061  0.00  0.00    +0.000 A 
ATOM     15  C   UNL     1      25.091  26.674  25.858  0.00  0.00    +0.000 A 
ATOM     16  C   UNL     1      24.837  25.383  26.262  0.00  0.00    +0.000 A 
ATOM     17  F   UNL     1      23.771  25.125  27.055  0.00  0.00    +0.000 F 
ATOM     18  C   UNL     1      25.721  24.386  25.817  0.00  0.00    +0.000 A 
ENDBRANCH  11  12
BRANCH   1  20
ATOM     19  N   UNL     1      25.998  23.524  21.441  0.00  0.00    +0.000 NA
ATOM     20  C   UNL     1      26.868  23.583  22.211  0.00  0.00    +0.000 C 
ENDBRANCH   1  20
TORSDOF 2
ENDMDL
MODEL 4
REMARK VINA RESULT:      -6.0     33.976     35.357
REMARK  Name = 
REMARK  2 active torsions:
REMARK  status: ('A' for Active; 'I' for Inactive)
REMARK    1  A    between atoms: C_2  and  C_3
REMARK    2  A    between atoms: C_13  and  C_14
REMARK                            x       y       z     vdW  Elec       q    Type
REMARK                         _______ _______ _______ _____ _____    ______ ____
ROOT
ATOM      1  C   UNL     1      28.022  24.765  22.853  0.00  0.00    +0.000 C 
ATOM      2  C   UNL     1      26.978  24.025  22.765  0.00  0.00    +0.000 C 
ATOM      3  N   UNL     1      26.545  23.462  21.475  0.00  0.00    +0.000 NA
ATOM      4  O   UNL     1      26.151  23.669  23.827  0.00  0.00    +0.000 OA
ATOM      5  C   UNL     1      26.562  24.201  25.040  0.00  0.00    +0.000 C 
ATOM      6  C   UNL     1      27.592  24.952  25.228  0.00  0.00    +0.000 C 
ATOM      7  C   UNL     1      27.858  25.428  26.656  0.00  0.00    +0.000 C 
ATOM      8  C   UNL     1      26.613  26.071  27.121  0.00  0.00    +0.000 C 
ATOM      9  C   UNL     1      25.406  25.208  26.985  0.00  0.00    +0.000 C 
ATOM     10  C   UNL     1      25.763  23.906  26.301  0.00  0.00    +0.000 C 
ATOM     11  C   UNL     1      28.515  25.366  24.124  0.00  0.00    +0.000 C 
ENDROOT
BRANCH  11  12
ATOM     12  C   UNL     1      29.870  24.649  24.378  0.00  0.00    +0.000 A 
ATOM     13  C   UNL     1      30.076  23.329  24.457  0.00  0.00    +0.000 A 
ATOM     14  C   UNL     1      31.329  22.812  24.687  0.00  0.00    +0.000 A 
ATOM     15  C   UNL     1      32.396  23.642  24.841  0.00  0.00    +0.000 A 
ATOM     16  C   UNL     1      32.232  25.006  24.767  0.00  0.00    +0.000 A 
ATOM     17  F   UNL     1      33.301  25.821  24.921  0.00  0.00    +0.000 F 
ATOM     18  C   UNL     1      30.931  25.484  24.530  0.00  0.00    +0.000 A 
ENDBRANCH  11  12
BRANCH   1  20
ATOM     19  N   UNL     1      29.329  25.199  20.626  0.00  0.00    +0.000 NA
ATOM     20  C   UNL     1      28.739  25.007  21.609  0.00  0.00    +0.000 C 
ENDBRANCH   1  20
TORSDOF 2
ENDMDL
MODEL 5
REMARK VINA RESULT:      -6.0     20.351     22.086
REMARK  Name = 
REMARK  2 active torsions:
REMARK  status: ('A' for Active; 'I' for Inactive)
REMARK    1  A    between atoms: C_2  and  C_3
REMARK    2  A    between atoms: C_13  and  C_14
REMARK                            x       y       z     vdW  Elec       q    Type
REMARK                         _______ _______ _______ _____ _____    ______ ____
ROOT
ATOM      1  C   UNL     1      19.891  10.326  38.745  0.00  0.00    +0.000 C 
ATOM      2  C   UNL     1      20.622   9.937  37.766  0.00  0.00    +0.000 C 
ATOM      3  N   UNL     1      22.078   9.773  37.916  0.00  0.00    +0.000 NA
ATOM      4  O   UNL     1      20.161   9.631  36.488  0.00  0.00    +0.000 OA
ATOM      5  C   UNL     1      18.790   9.787  36.352  0.00  0.00    +0.000 C 
ATOM      6  C   UNL     1      17.976  10.171  37.274  0.00  0.00    +0.000 C 
ATOM      7  C   UNL     1      16.496  10.273  36.901  0.00  0.00    +0.000 C 
ATOM      8  C   UNL     1      16.426  11.138  35.705  0.00  0.00    +0.000 C 
ATOM      9  C   UNL     1      17.303  10.687  34.588  0.00  0.00    +0.000 C 
ATOM     10  C   UNL     1      18.128   9.492  35.014  0.00  0.00    +0.000 C 
ATOM     11  C   UNL     1      18.415  10.513  38.664  0.00  0.00    +0.000 C 
ENDROOT
BRANCH  11  12
ATOM     12  C   UNL     1      17.844   9.412  39.600  0.00  0.00    +0.000 A 
ATOM     13  C   UNL     1      16.861   9.555  40.497  0.00  0.00    +0.000 A 
ATOM     14  C   UNL     1      16.442   8.499  41.273  0.00  0.00    +0.000 A 
ATOM     15  C   UNL     1      17.023   7.277  41.141  0.00  0.00    +0.000 A 
ATOM     16  C   UNL     1      18.037   7.084  40.231  0.00  0.00    +0.000 A 
ATOM     17  F   UNL     1      18.608   5.863  40.109  0.00  0.00    +0.000 F 
ATOM     18  C   UNL     1      18.430   8.194  39.463  0.00  0.00    +0.000 A 
ENDBRANCH  11  12
BRANCH   1  20
ATOM     19  N   UNL     1      21.126  10.807  41.004  0.00  0.00    +0.000 NA
ATOM     20  C   UNL     1      20.588  10.591  39.996  0.00  0.00    +0.000 C 
ENDBRANCH   1  20
TORSDOF 2
ENDMDL
MODEL 6
REMARK VINA RESULT:      -5.9     16.533     17.816
REMARK  Name = 
REMARK  2 active torsions:
REMARK  status: ('A' for Active; 'I' for Inactive)
REMARK    1  A    between atoms: C_2  and  C_3
REMARK    2  A    between atoms: C_13  and  C_14
REMARK                            x       y       z     vdW  Elec       q    Type
REMARK                         _______ _______ _______ _____ _____    ______ ____
ROOT
ATOM      1  C   UNL     1      32.114  -4.729  34.817  0.00  0.00    +0.000 C 
ATOM      2  C   UNL     1      32.296  -4.487  36.063  0.00  0.00    +0.000 C 
ATOM      3  N   UNL     1      31.789  -5.399  37.102  0.00  0.00    +0.000 NA
ATOM      4  O   UNL     1      32.968  -3.381  36.579  0.00  0.00    +0.000 OA
ATOM      5  C   UNL     1      33.444  -2.525  35.598  0.00  0.00    +0.000 C 
ATOM      6  C   UNL     1      33.311  -2.682  34.326  0.00  0.00    +0.000 C 
ATOM      7  C   UNL     1      33.918  -1.609  33.422  0.00  0.00    +0.000 C 
ATOM      8  C   UNL     1      33.368  -0.317  33.880  0.00  0.00    +0.000 C 
ATOM      9  C   UNL     1      33.563  -0.066  35.336  0.00  0.00    +0.000 C 
ATOM     10  C   UNL     1      34.201  -1.267  35.998  0.00  0.00    +0.000 C 
ATOM     11  C   UNL     1      32.600  -3.850  33.715  0.00  0.00    +0.000 C 
ENDROOT
BRANCH  11  12
ATOM     12  C   UNL     1      33.678  -4.708  32.997  0.00  0.00    +0.000 A 
ATOM     13  C   UNL     1      34.713  -5.336  33.567  0.00  0.00    +0.000 A 
ATOM     14  C   UNL     1      35.605  -6.069  32.821  0.00  0.00    +0.000 A 
ATOM     15  C   UNL     1      35.451  -6.172  31.474  0.00  0.00    +0.000 A 
ATOM     16  C   UNL     1      34.400  -5.544  30.844  0.00  0.00    +0.000 A 
ATOM     17  F   UNL     1      34.257  -5.655  29.503  0.00  0.00    +0.000 F 
ATOM     18  C   UNL     1      33.517  -4.807  31.652  0.00  0.00    +0.000 A 
ENDBRANCH  11  12
BRANCH   1  20
ATOM     19  N   UNL     1      30.788  -6.911  34.238  0.00  0.00    +0.000 NA
ATOM     20  C   UNL     1      31.382  -5.948  34.504  0.00  0.00    +0.000 C 
ENDBRANCH   1  20
TORSDOF 2
ENDMDL
MODEL 7
REMARK VINA RESULT:      -5.8     33.977     35.462
REMARK  Name = 
REMARK  2 active torsions:
REMARK  status: ('A' for Active; 'I' for Inactive)
REMARK    1  A    between atoms: C_2  and  C_3
REMARK    2  A    between atoms: C_13  and  C_14
REMARK                            x       y       z     vdW  Elec       q    Type
REMARK                         _______ _______ _______ _____ _____    ______ ____
ROOT
ATOM      1  C   UNL     1      29.836  23.060  26.193  0.00  0.00    +0.000 C 
ATOM      2  C   UNL     1      28.693  23.453  26.624  0.00  0.00    +0.000 C 
ATOM      3  N   UNL     1      28.285  23.231  28.021  0.00  0.00    +0.000 NA
ATOM      4  O   UNL     1      27.729  24.111  25.865  0.00  0.00    +0.000 OA
ATOM      5  C   UNL     1      28.118  24.316  24.550  0.00  0.00    +0.000 C 
ATOM      6  C   UNL     1      29.240  23.960  24.026  0.00  0.00    +0.000 C 
ATOM      7  C   UNL     1      29.458  24.290  22.550  0.00  0.00    +0.000 C 
ATOM      8  C   UNL     1      28.304  23.726  21.820  0.00  0.00    +0.000 C 
ATOM      9  C   UNL     1      26.985  24.170  22.352  0.00  0.00    +0.000 C 
ATOM     10  C   UNL     1      27.174  25.023  23.587  0.00  0.00    +0.000 C 
ATOM     11  C   UNL     1      30.312  23.251  24.794  0.00  0.00    +0.000 C 
ENDROOT
BRANCH  11  12
ATOM     12  C   UNL     1      31.498  24.244  24.932  0.00  0.00    +0.000 A 
ATOM     13  C   UNL     1      31.437  25.513  25.355  0.00  0.00    +0.000 A 
ATOM     14  C   UNL     1      32.563  26.297  25.435  0.00  0.00    +0.000 A 
ATOM     15  C   UNL     1      33.776  25.793  25.081  0.00  0.00    +0.000 A 
ATOM     16  C   UNL     1      33.888  24.494  24.641  0.00  0.00    +0.000 A 
ATOM     17  F   UNL     1      35.101  24.005  24.292  0.00  0.00    +0.000 F 
ATOM     18  C   UNL     1      32.707  23.734  24.578  0.00  0.00    +0.000 A 
ENDBRANCH  11  12
BRANCH   1  20
ATOM     19  N   UNL     1      31.385  21.870  27.936  0.00  0.00    +0.000 NA
ATOM     20  C   UNL     1      30.689  22.391  27.165  0.00  0.00    +0.000 C 
ENDBRANCH   1  20
TORSDOF 2
ENDMDL
MODEL 8
REMARK VINA RESULT:      -5.8     20.740     22.823
REMARK  Name = 
REMARK  2 active torsions:
REMARK  status: ('A' for Active; 'I' for Inactive)
REMARK    1  A    between atoms: C_2  and  C_3
REMARK    2  A    between atoms: C_13  and  C_14
REMARK                            x       y       z     vdW  Elec       q    Type
REMARK                         _______ _______ _______ _____ _____    ______ ____
ROOT
ATOM      1  C   UNL     1      19.889   9.593  39.488  0.00  0.00    +0.000 C 
ATOM      2  C   UNL     1      21.156   9.434  39.607  0.00  0.00    +0.000 C 
ATOM      3  N   UNL     1      21.726   8.164  40.089  0.00  0.00    +0.000 NA
ATOM      4  O   UNL     1      22.120  10.394  39.311  0.00  0.00    +0.000 OA
ATOM      5  C   UNL     1      21.580  11.588  38.858  0.00  0.00    +0.000 C 
ATOM      6  C   UNL     1      20.326  11.842  38.706  0.00  0.00    +0.000 C 
ATOM      7  C   UNL     1      19.953  13.233  38.191  0.00  0.00    +0.000 C 
ATOM      8  C   UNL     1      20.608  14.202  39.092  0.00  0.00    +0.000 C 
ATOM      9  C   UNL     1      22.075  13.984  39.242  0.00  0.00    +0.000 C 
ATOM     10  C   UNL     1      22.502  12.742  38.492  0.00  0.00    +0.000 C 
ATOM     11  C   UNL     1      19.247  10.849  39.008  0.00  0.00    +0.000 C 
ENDROOT
BRANCH  11  12
ATOM     12  C   UNL     1      18.609  10.450  37.649  0.00  0.00    +0.000 A 
ATOM     13  C   UNL     1      19.194   9.762  36.660  0.00  0.00    +0.000 A 
ATOM     14  C   UNL     1      18.522   9.469  35.497  0.00  0.00    +0.000 A 
ATOM     15  C   UNL     1      17.236   9.876  35.327  0.00  0.00    +0.000 A 
ATOM     16  C   UNL     1      16.594  10.585  36.316  0.00  0.00    +0.000 A 
ATOM     17  F   UNL     1      15.313  10.984  36.134  0.00  0.00    +0.000 F 
ATOM     18  C   UNL     1      17.324  10.859  37.485  0.00  0.00    +0.000 A 
ENDBRANCH  11  12
BRANCH   1  20
ATOM     19  N   UNL     1      18.407   7.533  40.129  0.00  0.00    +0.000 NA
ATOM     20  C   UNL     1      19.065   8.451  39.856  0.00  0.00    +0.000 C 
ENDBRANCH   1  20
TORSDOF 2
ENDMDL
MODEL 9
REMARK VINA RESULT:      -5.5     31.614     33.662
REMARK  Name = 
REMARK  2 active torsions:
REMARK  status: ('A' for Active; 'I' for Inactive)
REMARK    1  A    between atoms: C_2  and  C_3
REMARK    2  A    between atoms: C_13  and  C_14
REMARK                            x       y       z     vdW  Elec       q    Type
REMARK                         _______ _______ _______ _____ _____    ______ ____
ROOT
ATOM      1  C   UNL     1      10.911  24.401  19.823  0.00  0.00    +0.000 C 
ATOM      2  C   UNL     1      11.087  25.512  20.440  0.00  0.00    +0.000 C 
ATOM      3  N   UNL     1      10.223  26.676  20.181  0.00  0.00    +0.000 NA
ATOM      4  O   UNL     1      12.071  25.756  21.394  0.00  0.00    +0.000 OA
ATOM      5  C   UNL     1      12.882  24.658  21.634  0.00  0.00    +0.000 C 
ATOM      6  C   UNL     1      12.785  23.506  21.066  0.00  0.00    +0.000 C 
ATOM      7  C   UNL     1      13.791  22.433  21.486  0.00  0.00    +0.000 C 
ATOM      8  C   UNL     1      15.132  23.025  21.308  0.00  0.00    +0.000 C 
ATOM      9  C   UNL     1      15.308  24.329  22.008  0.00  0.00    +0.000 C 
ATOM     10  C   UNL     1      14.010  24.762  22.652  0.00  0.00    +0.000 C 
ATOM     11  C   UNL     1      11.747  23.186  20.035  0.00  0.00    +0.000 C 
ENDROOT
BRANCH  11  12
ATOM     12  C   UNL     1      10.770  22.166  20.681  0.00  0.00    +0.000 A 
ATOM     13  C   UNL     1      10.018  22.356  21.772  0.00  0.00    +0.000 A 
ATOM     14  C   UNL     1       9.187  21.370  22.249  0.00  0.00    +0.000 A 
ATOM     15  C   UNL     1       9.112  20.169  21.615  0.00  0.00    +0.000 A 
ATOM     16  C   UNL     1       9.867  19.929  20.490  0.00  0.00    +0.000 A 
ATOM     17  F   UNL     1       9.783  18.729  19.868  0.00  0.00    +0.000 F 
ATOM     18  C   UNL     1      10.700  20.968  20.042  0.00  0.00    +0.000 A 
ENDBRANCH  11  12
BRANCH   1  20
ATOM     19  N   UNL     1       8.941  24.367  18.098  0.00  0.00    +0.000 NA
ATOM     20  C   UNL     1       9.817  24.370  18.863  0.00  0.00    +0.000 C 
ENDBRANCH   1  20
TORSDOF 2
ENDMDL
MODEL 10
REMARK VINA RESULT:      -5.5     33.101     34.371
REMARK  Name = 
REMARK  2 active torsions:
REMARK  status: ('A' for Active; 'I' for Inactive)
REMARK    1  A    between atoms: C_2  and  C_3
REMARK    2  A    between atoms: C_13  and  C_14
REMARK                            x       y       z     vdW  Elec       q    Type
REMARK                         _______ _______ _______ _____ _____    ______ ____
ROOT
ATOM      1  C   UNL     1      27.323  23.165  28.329  0.00  0.00    +0.000 C 
ATOM      2  C   UNL     1      26.677  23.897  27.497  0.00  0.00    +0.000 C 
ATOM      3  N   UNL     1      25.305  24.349  27.779  0.00  0.00    +0.000 NA
ATOM      4  O   UNL     1      27.164  24.344  26.271  0.00  0.00    +0.000 OA
ATOM      5  C   UNL     1      28.457  23.916  26.009  0.00  0.00    +0.000 C 
ATOM      6  C   UNL     1      29.182  23.181  26.779  0.00  0.00    +0.000 C 
ATOM      7  C   UNL     1      30.587  22.828  26.288  0.00  0.00    +0.000 C 
ATOM      8  C   UNL     1      30.422  22.229  24.948  0.00  0.00    +0.000 C 
ATOM      9  C   UNL     1      29.645  23.080  24.003  0.00  0.00    +0.000 C 
ATOM     10  C   UNL     1      29.134  24.318  24.706  0.00  0.00    +0.000 C 
ATOM     11  C   UNL     1      28.712  22.674  28.107  0.00  0.00    +0.000 C 
ENDROOT
BRANCH  11  12
ATOM     12  C   UNL     1      29.548  23.406  29.192  0.00  0.00    +0.000 A 
ATOM     13  C   UNL     1      29.670  24.730  29.352  0.00  0.00    +0.000 A 
ATOM     14  C   UNL     1      30.444  25.261  30.356  0.00  0.00    +0.000 A 
ATOM     15  C   UNL     1      31.110  24.444  31.215  0.00  0.00    +0.000 A 
ATOM     16  C   UNL     1      31.014  23.077  31.089  0.00  0.00    +0.000 A 
ATOM     17  F   UNL     1      31.681  22.274  31.951  0.00  0.00    +0.000 F 
ATOM     18  C   UNL     1      30.210  22.584  30.047  0.00  0.00    +0.000 A 
ENDBRANCH  11  12
BRANCH   1  20
ATOM     19  N   UNL     1      26.054  22.517  30.526  0.00  0.00    +0.000 NA
ATOM     20  C   UNL     1      26.616  22.816  29.553  0.00  0.00    +0.000 C 
ENDBRANCH   1  20
TORSDOF 2
ENDMDL
