MODEL 1
REMARK VINA RESULT:      -6.2      0.000      0.000
REMARK  Name = 
REMARK  4 active torsions:
REMARK  status: ('A' for Active; 'I' for Inactive)
REMARK    1  A    between atoms: C_2  and  O_3
REMARK    2  A    between atoms: O_3  and  C_4
REMARK    3  A    between atoms: C_7  and  C_8
REMARK    4  A    between atoms: C_15  and  C_16
REMARK                            x       y       z     vdW  Elec       q    Type
REMARK                         _______ _______ _______ _____ _____    ______ ____
ROOT
ATOM      1  C   UNL     1      29.029  22.700  28.385  0.00  0.00    +0.000 A 
ATOM      2  C   UNL     1      30.008  22.316  27.496  0.00  0.00    +0.000 A 
ATOM      3  C   UNL     1      29.876  22.516  26.136  0.00  0.00    +0.000 A 
ATOM      4  C   UNL     1      28.756  23.112  25.590  0.00  0.00    +0.000 A 
ATOM      5  C   UNL     1      27.785  23.492  26.494  0.00  0.00    +0.000 A 
ATOM      6  C   UNL     1      27.902  23.298  27.856  0.00  0.00    +0.000 A 
ENDROOT
BRANCH   4   7
ATOM      7  C   UNL     1      28.607  23.328  24.155  0.00  0.00    +0.000 A 
ATOM      8  C   UNL     1      29.520  23.960  23.347  0.00  0.00    +0.000 A 
ATOM      9  C   UNL     1      28.997  23.950  22.077  0.00  0.00    +0.000 A 
ATOM     10  N   UNL     1      29.579  24.491  20.888  0.00  0.00    +0.000 NA
ATOM     11  O   UNL     1      27.844  23.352  22.113  0.00  0.00    +0.000 OA
ATOM     12  N   UNL     1      27.615  22.987  23.327  0.00  0.00    +0.000 NA
ENDBRANCH   4   7
BRANCH   6  13
ATOM     13  C   UNL     1      26.819  23.729  28.791  0.00  0.00    +0.000 C 
ATOM     14  C   UNL     1      25.660  24.223  27.950  0.00  0.00    +0.000 C 
ATOM     15  C   UNL     1      27.318  24.905  29.602  0.00  0.00    +0.000 C 
ATOM     16  C   UNL     1      26.419  22.572  29.673  0.00  0.00    +0.000 C 
ENDBRANCH   6  13
BRANCH   1  17
ATOM     17  O   UNL     1      29.124  22.516  29.759  0.00  0.00    +0.000 OA
BRANCH  17  19
ATOM     18  C   UNL     1      30.225  22.072  31.875  0.00  0.00    +0.000 C 
ATOM     19  C   UNL     1      30.330  22.540  30.451  0.00  0.00    +0.000 C 
ENDBRANCH  17  19
ENDBRANCH   1  17
TORSDOF 4
ENDMDL
MODEL 2
REMARK VINA RESULT:      -5.9      3.243      6.579
REMARK  Name = 
REMARK  4 active torsions:
REMARK  status: ('A' for Active; 'I' for Inactive)
REMARK    1  A    between atoms: C_2  and  O_3
REMARK    2  A    between atoms: O_3  and  C_4
REMARK    3  A    between atoms: C_7  and  C_8
REMARK    4  A    between atoms: C_15  and  C_16
REMARK                            x       y       z     vdW  Elec       q    Type
REMARK                         _______ _______ _______ _____ _____    ______ ____
ROOT
ATOM      1  C   UNL     1      28.209  23.198  24.601  0.00  0.00    +0.000 A 
ATOM      2  C   UNL     1      26.854  23.194  24.848  0.00  0.00    +0.000 A 
ATOM      3  C   UNL     1      26.346  23.310  26.126  0.00  0.00    +0.000 A 
ATOM      4  C   UNL     1      27.166  23.435  27.231  0.00  0.00    +0.000 A 
ATOM      5  C   UNL     1      28.521  23.438  26.967  0.00  0.00    +0.000 A 
ATOM      6  C   UNL     1      29.044  23.323  25.694  0.00  0.00    +0.000 A 
ENDROOT
BRANCH   4   7
ATOM      7  C   UNL     1      26.639  23.558  28.585  0.00  0.00    +0.000 A 
ATOM      8  C   UNL     1      26.252  24.731  29.184  0.00  0.00    +0.000 A 
ATOM      9  C   UNL     1      25.821  24.406  30.447  0.00  0.00    +0.000 A 
ATOM     10  N   UNL     1      25.320  25.289  31.455  0.00  0.00    +0.000 NA
ATOM     11  O   UNL     1      25.939  23.121  30.603  0.00  0.00    +0.000 OA
ATOM     12  N   UNL     1      26.418  22.625  29.515  0.00  0.00    +0.000 NA
ENDBRANCH   4   7
BRANCH   6  13
ATOM     13  C   UNL     1      30.521  23.332  25.465  0.00  0.00    +0.000 C 
ATOM     14  C   UNL     1      31.192  23.170  26.812  0.00  0.00    +0.000 C 
ATOM     15  C   UNL     1      30.919  24.689  24.925  0.00  0.00    +0.000 C 
ATOM     16  C   UNL     1      30.894  22.221  24.515  0.00  0.00    +0.000 C 
ENDBRANCH   6  13
BRANCH   1  17
ATOM     17  O   UNL     1      28.759  23.084  23.331  0.00  0.00    +0.000 OA
BRANCH  17  19
ATOM     18  C   UNL     1      29.213  24.698  21.576  0.00  0.00    +0.000 C 
ATOM     19  C   UNL     1      28.248  23.740  22.215  0.00  0.00    +0.000 C 
ENDBRANCH  17  19
ENDBRANCH   1  17
TORSDOF 4
ENDMDL
MODEL 3
REMARK VINA RESULT:      -5.8      1.667      3.133
REMARK  Name = 
REMARK  4 active torsions:
REMARK  status: ('A' for Active; 'I' for Inactive)
REMARK    1  A    between atoms: C_2  and  O_3
REMARK    2  A    between atoms: O_3  and  C_4
REMARK    3  A    between atoms: C_7  and  C_8
REMARK    4  A    between atoms: C_15  and  C_16
REMARK                            x       y       z     vdW  Elec       q    Type
REMARK                         _______ _______ _______ _____ _____    ______ ____
ROOT
ATOM      1  C   UNL     1      25.970  24.207  27.970  0.00  0.00    +0.000 A 
ATOM      2  C   UNL     1      25.199  24.634  26.911  0.00  0.00    +0.000 A 
ATOM      3  C   UNL     1      25.627  24.514  25.604  0.00  0.00    +0.000 A 
ATOM      4  C   UNL     1      26.852  23.960  25.283  0.00  0.00    +0.000 A 
ATOM      5  C   UNL     1      27.611  23.537  26.355  0.00  0.00    +0.000 A 
ATOM      6  C   UNL     1      27.197  23.650  27.667  0.00  0.00    +0.000 A 
ENDROOT
BRANCH   4   7
ATOM      7  C   UNL     1      27.313  23.830  23.905  0.00  0.00    +0.000 A 
ATOM      8  C   UNL     1      28.483  24.348  23.406  0.00  0.00    +0.000 A 
ATOM      9  C   UNL     1      28.533  24.000  22.078  0.00  0.00    +0.000 A 
ATOM     10  N   UNL     1      29.559  24.311  21.131  0.00  0.00    +0.000 NA
ATOM     11  O   UNL     1      27.466  23.316  21.792  0.00  0.00    +0.000 OA
ATOM     12  N   UNL     1      26.752  23.216  22.860  0.00  0.00    +0.000 NA
ENDBRANCH   4   7
BRANCH   6  13
ATOM     13  C   UNL     1      28.060  23.175  28.791  0.00  0.00    +0.000 C 
ATOM     14  C   UNL     1      28.514  24.395  29.564  0.00  0.00    +0.000 C 
ATOM     15  C   UNL     1      29.297  22.524  28.211  0.00  0.00    +0.000 C 
ATOM     16  C   UNL     1      27.281  22.218  29.660  0.00  0.00    +0.000 C 
ENDBRANCH   6  13
BRANCH   1  17
ATOM     17  O   UNL     1      25.575  24.309  29.297  0.00  0.00    +0.000 OA
BRANCH  17  19
ATOM     18  C   UNL     1      25.401  25.624  31.330  0.00  0.00    +0.000 C 
ATOM     19  C   UNL     1      25.100  25.488  29.865  0.00  0.00    +0.000 C 
ENDBRANCH  17  19
ENDBRANCH   1  17
TORSDOF 4
ENDMDL
MODEL 4
REMARK VINA RESULT:      -5.8     19.824     21.319
REMARK  Name = 
REMARK  4 active torsions:
REMARK  status: ('A' for Active; 'I' for Inactive)
REMARK    1  A    between atoms: C_2  and  O_3
REMARK    2  A    between atoms: O_3  and  C_4
REMARK    3  A    between atoms: C_7  and  C_8
REMARK    4  A    between atoms: C_15  and  C_16
REMARK                            x       y       z     vdW  Elec       q    Type
REMARK                         _______ _______ _______ _____ _____    ______ ____
ROOT
ATOM      1  C   UNL     1      18.725   9.240  39.143  0.00  0.00    +0.000 A 
ATOM      2  C   UNL     1      19.005   9.793  37.912  0.00  0.00    +0.000 A 
ATOM      3  C   UNL     1      18.053  10.487  37.193  0.00  0.00    +0.000 A 
ATOM      4  C   UNL     1      16.766  10.667  37.664  0.00  0.00    +0.000 A 
ATOM      5  C   UNL     1      16.503  10.108  38.898  0.00  0.00    +0.000 A 
ATOM      6  C   UNL     1      17.444   9.411  39.630  0.00  0.00    +0.000 A 
ENDROOT
BRANCH   4   7
ATOM      7  C   UNL     1      15.754  11.398  36.911  0.00  0.00    +0.000 A 
ATOM      8  C   UNL     1      14.542  11.814  37.404  0.00  0.00    +0.000 A 
ATOM      9  C   UNL     1      13.898  12.460  36.377  0.00  0.00    +0.000 A 
ATOM     10  N   UNL     1      12.604  13.069  36.402  0.00  0.00    +0.000 NA
ATOM     11  O   UNL     1      14.669  12.438  35.331  0.00  0.00    +0.000 OA
ATOM     12  N   UNL     1      15.755  11.817  35.643  0.00  0.00    +0.000 NA
ENDBRANCH   4   7
BRANCH   6  13
ATOM     13  C   UNL     1      17.105   8.826  40.962  0.00  0.00    +0.000 C 
ATOM     14  C   UNL     1      15.652   9.148  41.245  0.00  0.00    +0.000 C 
ATOM     15  C   UNL     1      17.932   9.522  42.022  0.00  0.00    +0.000 C 
ATOM     16  C   UNL     1      17.357   7.339  40.943  0.00  0.00    +0.000 C 
ENDBRANCH   6  13
BRANCH   1  17
ATOM     17  O   UNL     1      19.655   8.536  39.897  0.00  0.00    +0.000 OA
BRANCH  17  19
ATOM     18  C   UNL     1      21.385   9.959  40.831  0.00  0.00    +0.000 C 
ATOM     19  C   UNL     1      21.014   8.833  39.908  0.00  0.00    +0.000 C 
ENDBRANCH  17  19
ENDBRANCH   1  17
TORSDOF 4
ENDMDL
MODEL 5
REMARK VINA RESULT:      -5.7      2.966      6.070
REMARK  Name = 
REMARK  4 active torsions:
REMARK  status: ('A' for Active; 'I' for Inactive)
REMARK    1  A    between atoms: C_2  and  O_3
REMARK    2  A    between atoms: O_3  and  C_4
REMARK    3  A    between atoms: C_7  and  C_8
REMARK    4  A    between atoms: C_15  and  C_16
REMARK                            x       y       z     vdW  Elec       q    Type
REMARK                         _______ _______ _______ _____ _____    ______ ____
ROOT
ATOM      1  C   UNL     1      28.561  23.132  24.100  0.00  0.00    +0.000 A 
ATOM      2  C   UNL     1      29.851  22.668  24.238  0.00  0.00    +0.000 A 
ATOM      3  C   UNL     1      30.425  22.473  25.478  0.00  0.00    +0.000 A 
ATOM      4  C   UNL     1      29.740  22.732  26.651  0.00  0.00    +0.000 A 
ATOM      5  C   UNL     1      28.450  23.195  26.494  0.00  0.00    +0.000 A 
ATOM      6  C   UNL     1      27.862  23.395  25.261  0.00  0.00    +0.000 A 
ENDROOT
BRANCH   4   7
ATOM      7  C   UNL     1      30.339  22.529  27.965  0.00  0.00    +0.000 A 
ATOM      8  C   UNL     1      31.600  22.038  28.198  0.00  0.00    +0.000 A 
ATOM      9  C   UNL     1      31.766  22.006  29.561  0.00  0.00    +0.000 A 
ATOM     10  N   UNL     1      32.915  21.571  30.292  0.00  0.00    +0.000 NA
ATOM     11  O   UNL     1      30.678  22.449  30.117  0.00  0.00    +0.000 OA
ATOM     12  N   UNL     1      29.843  22.755  29.185  0.00  0.00    +0.000 NA
ENDBRANCH   4   7
BRANCH   6  13
ATOM     13  C   UNL     1      26.459  23.899  25.150  0.00  0.00    +0.000 C 
ATOM     14  C   UNL     1      26.529  25.352  24.729  0.00  0.00    +0.000 C 
ATOM     15  C   UNL     1      25.819  23.859  26.520  0.00  0.00    +0.000 C 
ATOM     16  C   UNL     1      25.697  23.062  24.152  0.00  0.00    +0.000 C 
ENDBRANCH   6  13
BRANCH   1  17
ATOM     17  O   UNL     1      27.948  23.341  22.871  0.00  0.00    +0.000 OA
BRANCH  17  19
ATOM     18  C   UNL     1      28.141  25.307  21.462  0.00  0.00    +0.000 C 
ATOM     19  C   UNL     1      28.597  23.911  21.780  0.00  0.00    +0.000 C 
ENDBRANCH  17  19
ENDBRANCH   1  17
TORSDOF 4
ENDMDL
MODEL 6
REMARK VINA RESULT:      -5.7      2.206      3.810
REMARK  Name = 
REMARK  4 active torsions:
REMARK  status: ('A' for Active; 'I' for Inactive)
REMARK    1  A    between atoms: C_2  and  O_3
REMARK    2  A    between atoms: O_3  and  C_4
REMARK    3  A    between atoms: C_7  and  C_8
REMARK    4  A    between atoms: C_15  and  C_16
REMARK                            x       y       z     vdW  Elec       q    Type
REMARK                         _______ _______ _______ _____ _____    ______ ____
ROOT
ATOM      1  C   UNL     1      26.823  24.013  25.963  0.00  0.00    +0.000 A 
ATOM      2  C   UNL     1      26.137  24.626  24.938  0.00  0.00    +0.000 A 
ATOM      3  C   UNL     1      26.746  24.937  23.738  0.00  0.00    +0.000 A 
ATOM      4  C   UNL     1      28.076  24.652  23.497  0.00  0.00    +0.000 A 
ATOM      5  C   UNL     1      28.749  24.037  24.533  0.00  0.00    +0.000 A 
ATOM      6  C   UNL     1      28.155  23.720  25.738  0.00  0.00    +0.000 A 
ENDROOT
BRANCH   4   7
ATOM      7  C   UNL     1      28.728  24.978  22.233  0.00  0.00    +0.000 A 
ATOM      8  C   UNL     1      28.839  26.237  21.697  0.00  0.00    +0.000 A 
ATOM      9  C   UNL     1      29.516  26.101  20.509  0.00  0.00    +0.000 A 
ATOM     10  N   UNL     1      29.875  27.132  19.585  0.00  0.00    +0.000 NA
ATOM     11  O   UNL     1      29.797  24.844  20.338  0.00  0.00    +0.000 OA
ATOM     12  N   UNL     1      29.336  24.186  21.345  0.00  0.00    +0.000 NA
ENDBRANCH   4   7
BRANCH   6  13
ATOM     13  C   UNL     1      28.930  23.053  26.827  0.00  0.00    +0.000 C 
ATOM     14  C   UNL     1      29.348  24.125  27.811  0.00  0.00    +0.000 C 
ATOM     15  C   UNL     1      30.195  22.470  26.235  0.00  0.00    +0.000 C 
ATOM     16  C   UNL     1      28.080  21.992  27.481  0.00  0.00    +0.000 C 
ENDBRANCH   6  13
BRANCH   1  17
ATOM     17  O   UNL     1      26.248  23.683  27.183  0.00  0.00    +0.000 OA
BRANCH  17  19
ATOM     18  C   UNL     1      26.119  25.789  28.382  0.00  0.00    +0.000 C 
ATOM     19  C   UNL     1      25.425  24.547  27.898  0.00  0.00    +0.000 C 
ENDBRANCH  17  19
ENDBRANCH   1  17
TORSDOF 4
ENDMDL
MODEL 7
REMARK VINA RESULT:      -5.6     21.161     23.707
REMARK  Name = 
REMARK  4 active torsions:
REMARK  status: ('A' for Active; 'I' for Inactive)
REMARK    1  A    between atoms: C_2  and  O_3
REMARK    2  A    between atoms: O_3  and  C_4
REMARK    3  A    between atoms: C_7  and  C_8
REMARK    4  A    between atoms: C_15  and  C_16
REMARK                            x       y       z     vdW  Elec       q    Type
REMARK                         _______ _______ _______ _____ _____    ______ ____
ROOT
ATOM      1  C   UNL     1      33.462   0.816  34.521  0.00  0.00    +0.000 A 
ATOM      2  C   UNL     1      33.341   1.751  33.517  0.00  0.00    +0.000 A 
ATOM      3  C   UNL     1      33.597   3.090  33.734  0.00  0.00    +0.000 A 
ATOM      4  C   UNL     1      33.988   3.569  34.969  0.00  0.00    +0.000 A 
ATOM      5  C   UNL     1      34.106   2.620  35.964  0.00  0.00    +0.000 A 
ATOM      6  C   UNL     1      33.853   1.278  35.763  0.00  0.00    +0.000 A 
ENDROOT
BRANCH   4   7
ATOM      7  C   UNL     1      34.260   4.982  35.208  0.00  0.00    +0.000 A 
ATOM      8  C   UNL     1      35.493   5.518  35.487  0.00  0.00    +0.000 A 
ATOM      9  C   UNL     1      35.310   6.871  35.641  0.00  0.00    +0.000 A 
ATOM     10  N   UNL     1      36.300   7.858  35.942  0.00  0.00    +0.000 NA
ATOM     11  O   UNL     1      34.050   7.136  35.468  0.00  0.00    +0.000 OA
ATOM     12  N   UNL     1      33.435   6.032  35.214  0.00  0.00    +0.000 NA
ENDBRANCH   4   7
BRANCH   6  13
ATOM     13  C   UNL     1      33.996   0.292  36.877  0.00  0.00    +0.000 C 
ATOM     14  C   UNL     1      34.074   1.074  38.171  0.00  0.00    +0.000 C 
ATOM     15  C   UNL     1      35.313  -0.437  36.713  0.00  0.00    +0.000 C 
ATOM     16  C   UNL     1      32.826  -0.661  36.866  0.00  0.00    +0.000 C 
ENDBRANCH   6  13
BRANCH   1  17
ATOM     17  O   UNL     1      33.214  -0.539  34.343  0.00  0.00    +0.000 OA
BRANCH  17  19
ATOM     18  C   UNL     1      33.588  -2.784  33.500  0.00  0.00    +0.000 C 
ATOM     19  C   UNL     1      33.839  -1.309  33.367  0.00  0.00    +0.000 C 
ENDBRANCH  17  19
ENDBRANCH   1  17
TORSDOF 4
ENDMDL
MODEL 8
REMARK VINA RESULT:      -5.6     19.507     21.613
REMARK  Name = 
REMARK  4 active torsions:
REMARK  status: ('A' for Active; 'I' for Inactive)
REMARK    1  A    between atoms: C_2  and  O_3
REMARK    2  A    between atoms: O_3  and  C_4
REMARK    3  A    between atoms: C_7  and  C_8
REMARK    4  A    between atoms: C_15  and  C_16
REMARK                            x       y       z     vdW  Elec       q    Type
REMARK                         _______ _______ _______ _____ _____    ______ ____
ROOT
ATOM      1  C   UNL     1      16.223   9.607  40.246  0.00  0.00    +0.000 A 
ATOM      2  C   UNL     1      14.955  10.070  39.969  0.00  0.00    +0.000 A 
ATOM      3  C   UNL     1      14.659  10.722  38.789  0.00  0.00    +0.000 A 
ATOM      4  C   UNL     1      15.616  10.947  37.818  0.00  0.00    +0.000 A 
ATOM      5  C   UNL     1      16.880  10.477  38.110  0.00  0.00    +0.000 A 
ATOM      6  C   UNL     1      17.192   9.823  39.285  0.00  0.00    +0.000 A 
ENDROOT
BRANCH   4   7
ATOM      7  C   UNL     1      15.313  11.635  36.568  0.00  0.00    +0.000 A 
ATOM      8  C   UNL     1      14.397  12.647  36.419  0.00  0.00    +0.000 A 
ATOM      9  C   UNL     1      14.422  13.010  35.094  0.00  0.00    +0.000 A 
ATOM     10  N   UNL     1      13.643  14.022  34.450  0.00  0.00    +0.000 NA
ATOM     11  O   UNL     1      15.295  12.268  34.482  0.00  0.00    +0.000 OA
ATOM     12  N   UNL     1      15.817  11.464  35.343  0.00  0.00    +0.000 NA
ENDBRANCH   4   7
BRANCH   6  13
ATOM     13  C   UNL     1      18.579   9.334  39.550  0.00  0.00    +0.000 C 
ATOM     14  C   UNL     1      19.452   9.798  38.404  0.00  0.00    +0.000 C 
ATOM     15  C   UNL     1      18.571   7.820  39.525  0.00  0.00    +0.000 C 
ATOM     16  C   UNL     1      19.062   9.868  40.876  0.00  0.00    +0.000 C 
ENDBRANCH   6  13
BRANCH   1  17
ATOM     17  O   UNL     1      16.560   8.947  41.420  0.00  0.00    +0.000 OA
BRANCH  17  19
ATOM     18  C   UNL     1      16.624   7.041  42.921  0.00  0.00    +0.000 C 
ATOM     19  C   UNL     1      15.864   7.844  41.904  0.00  0.00    +0.000 C 
ENDBRANCH  17  19
ENDBRANCH   1  17
TORSDOF 4
ENDMDL
MODEL 9
REMARK VINA RESULT:      -5.5     25.559     27.640
REMARK  Name = 
REMARK  4 active torsions:
REMARK  status: ('A' for Active; 'I' for Inactive)
REMARK    1  A    between atoms: C_2  and  O_3
REMARK    2  A    between atoms: O_3  and  C_4
REMARK    3  A    between atoms: C_7  and  C_8
REMARK    4  A    between atoms: C_15  and  C_16
REMARK                            x       y       z     vdW  Elec       q    Type
REMARK                         _______ _______ _______ _____ _____    ______ ____
ROOT
ATOM      1  C   UNL     1      33.679  -4.146  35.233  0.00  0.00    +0.000 A 
ATOM      2  C   UNL     1      33.828  -3.025  36.020  0.00  0.00    +0.000 A 
ATOM      3  C   UNL     1      33.879  -1.756  35.478  0.00  0.00    +0.000 A 
ATOM      4  C   UNL     1      33.786  -1.538  34.117  0.00  0.00    +0.000 A 
ATOM      5  C   UNL     1      33.637  -2.671  33.343  0.00  0.00    +0.000 A 
ATOM      6  C   UNL     1      33.584  -3.946  33.870  0.00  0.00    +0.000 A 
ENDROOT
BRANCH   4   7
ATOM      7  C   UNL     1      33.840  -0.202  33.535  0.00  0.00    +0.000 A 
ATOM      8  C   UNL     1      33.305   0.932  34.095  0.00  0.00    +0.000 A 
ATOM      9  C   UNL     1      33.576   1.964  33.230  0.00  0.00    +0.000 A 
ATOM     10  N   UNL     1      33.220   3.342  33.376  0.00  0.00    +0.000 NA
ATOM     11  O   UNL     1      34.231   1.488  32.214  0.00  0.00    +0.000 OA
ATOM     12  N   UNL     1      34.386   0.222  32.392  0.00  0.00    +0.000 NA
ENDBRANCH   4   7
BRANCH   6  13
ATOM     13  C   UNL     1      33.420  -5.139  32.985  0.00  0.00    +0.000 C 
ATOM     14  C   UNL     1      34.594  -6.061  33.242  0.00  0.00    +0.000 C 
ATOM     15  C   UNL     1      33.511  -4.689  31.543  0.00  0.00    +0.000 C 
ATOM     16  C   UNL     1      32.103  -5.813  33.279  0.00  0.00    +0.000 C 
ENDBRANCH   6  13
BRANCH   1  17
ATOM     17  O   UNL     1      33.622  -5.438  35.740  0.00  0.00    +0.000 OA
BRANCH  17  19
ATOM     18  C   UNL     1      31.562  -5.794  36.972  0.00  0.00    +0.000 C 
ATOM     19  C   UNL     1      33.064  -5.750  36.976  0.00  0.00    +0.000 C 
ENDBRANCH  17  19
ENDBRANCH   1  17
TORSDOF 4
ENDMDL
MODEL 10
REMARK VINA RESULT:      -5.4     21.116     22.533
REMARK  Name = 
REMARK  4 active torsions:
REMARK  status: ('A' for Active; 'I' for Inactive)
REMARK    1  A    between atoms: C_2  and  O_3
REMARK    2  A    between atoms: O_3  and  C_4
REMARK    3  A    between atoms: C_7  and  C_8
REMARK    4  A    between atoms: C_15  and  C_16
REMARK                            x       y       z     vdW  Elec       q    Type
REMARK                         _______ _______ _______ _____ _____    ______ ____
ROOT
ATOM      1  C   UNL     1      26.071   4.720  17.543  0.00  0.00    +0.000 A 
ATOM      2  C   UNL     1      25.429   4.094  18.589  0.00  0.00    +0.000 A 
ATOM      3  C   UNL     1      24.245   3.407  18.410  0.00  0.00    +0.000 A 
ATOM      4  C   UNL     1      23.636   3.308  17.173  0.00  0.00    +0.000 A 
ATOM      5  C   UNL     1      24.293   3.940  16.137  0.00  0.00    +0.000 A 
ATOM      6  C   UNL     1      25.477   4.630  16.299  0.00  0.00    +0.000 A 
ENDROOT
BRANCH   4   7
ATOM      7  C   UNL     1      22.386   2.585  16.974  0.00  0.00    +0.000 A 
ATOM      8  C   UNL     1      21.217   2.813  17.659  0.00  0.00    +0.000 A 
ATOM      9  C   UNL     1      20.293   1.923  17.169  0.00  0.00    +0.000 A 
ATOM     10  N   UNL     1      18.927   1.773  17.568  0.00  0.00    +0.000 NA
ATOM     11  O   UNL     1      20.863   1.203  16.250  0.00  0.00    +0.000 OA
ATOM     12  N   UNL     1      22.087   1.589  16.135  0.00  0.00    +0.000 NA
ENDBRANCH   4   7
BRANCH   6  13
ATOM     13  C   UNL     1      26.146   5.296  15.141  0.00  0.00    +0.000 C 
ATOM     14  C   UNL     1      25.318   5.005  13.908  0.00  0.00    +0.000 C 
ATOM     15  C   UNL     1      27.502   4.658  14.932  0.00  0.00    +0.000 C 
ATOM     16  C   UNL     1      26.260   6.778  15.403  0.00  0.00    +0.000 C 
ENDBRANCH   6  13
BRANCH   1  17
ATOM     17  O   UNL     1      27.263   5.420  17.682  0.00  0.00    +0.000 OA
BRANCH  17  19
ATOM     18  C   UNL     1      27.977   7.260  19.093  0.00  0.00    +0.000 C 
ATOM     19  C   UNL     1      27.799   5.779  18.915  0.00  0.00    +0.000 C 
ENDBRANCH  17  19
ENDBRANCH   1  17
TORSDOF 4
ENDMDL
