MODEL 1
REMARK VINA RESULT:      -8.1      0.000      0.000
REMARK  Name = 
REMARK  8 active torsions:
REMARK  status: ('A' for Active; 'I' for Inactive)
REMARK    1  A    between atoms: C_2  and  O_3
REMARK    2  A    between atoms: O_3  and  C_4
REMARK    3  A    between atoms: C_7  and  N_8
REMARK    4  A    between atoms: C_11  and  N_12
REMARK    5  A    between atoms: N_12  and  C_13
REMARK    6  A    between atoms: C_18  and  O_19
REMARK    7  A    between atoms: C_21  and  S_22
REMARK    8  A    between atoms: S_22  and  C_23
REMARK                            x       y       z     vdW  Elec       q    Type
REMARK                         _______ _______ _______ _____ _____    ______ ____
ROOT
ATOM      1  N   UNL     1      36.440   1.988  15.201  0.00  0.00    +0.000 N 
ATOM      2  C   UNL     1      35.547   3.024  14.865  0.00  0.00    +0.000 C 
ATOM      3  O   UNL     1      34.286   2.896  14.758  0.00  0.00    +0.000 OA
ATOM      4  C   UNL     1      36.322   4.275  14.655  0.00  0.00    +0.000 C 
ATOM      5  C   UNL     1      37.614   4.035  14.851  0.00  0.00    +0.000 C 
ATOM      6  C   UNL     1      37.720   2.623  15.190  0.00  0.00    +0.000 C 
ATOM      7  O   UNL     1      38.796   2.020  15.448  0.00  0.00    +0.000 OA
ENDROOT
BRANCH   1  11
ATOM      8  C   UNL     1      35.484  -2.062  16.073  0.00  0.00    +0.000 A 
ATOM      9  C   UNL     1      35.061  -1.032  16.887  0.00  0.00    +0.000 A 
ATOM     10  C   UNL     1      35.374   0.285  16.601  0.00  0.00    +0.000 A 
ATOM     11  C   UNL     1      36.121   0.619  15.490  0.00  0.00    +0.000 A 
ATOM     12  C   UNL     1      36.540  -0.410  14.681  0.00  0.00    +0.000 A 
ATOM     13  C   UNL     1      36.232  -1.720  14.961  0.00  0.00    +0.000 A 
BRANCH   8  14
ATOM     14  O   UNL     1      35.149  -3.375  16.396  0.00  0.00    +0.000 OA
BRANCH  14  16
ATOM     15  C   UNL     1      33.529  -4.329  14.948  0.00  0.00    +0.000 C 
ATOM     16  C   UNL     1      34.960  -4.370  15.438  0.00  0.00    +0.000 C 
ENDBRANCH  14  16
ENDBRANCH   8  14
ENDBRANCH   1  11
BRANCH   4  17
ATOM     17  N   UNL     1      35.717   5.488  14.312  0.00  0.00    +0.000 NA
BRANCH  17  18
ATOM     18  C   UNL     1      35.347   5.979  13.067  0.00  0.00    +0.000 A 
ATOM     19  C   UNL     1      35.950   5.772  11.859  0.00  0.00    +0.000 A 
ATOM     20  C   UNL     1      35.474   6.329  10.696  0.00  0.00    +0.000 A 
ATOM     21  C   UNL     1      34.343   7.137  10.705  0.00  0.00    +0.000 A 
ATOM     22  C   UNL     1      33.720   7.363  11.898  0.00  0.00    +0.000 A 
ATOM     23  C   UNL     1      34.211   6.798  13.044  0.00  0.00    +0.000 A 
BRANCH  23  24
ATOM     24  O   UNL     1      33.528   7.063  14.241  0.00  0.00    +0.000 OA
ATOM     25  C   UNL     1      33.659   8.270  14.925  0.00  0.00    +0.000 C 
ENDBRANCH  23  24
ENDBRANCH  17  18
ENDBRANCH   4  17
BRANCH   5  26
ATOM     26  S   UNL     1      38.966   5.218  14.721  0.00  0.00    +0.000 S 
BRANCH  26  27
ATOM     27  C   UNL     1      39.564   5.559  16.365  0.00  0.00    +0.000 A 
ATOM     28  C   UNL     1      40.787   6.135  16.629  0.00  0.00    +0.000 A 
ATOM     29  C   UNL     1      41.154   6.366  17.956  0.00  0.00    +0.000 A 
ATOM     30  C   UNL     1      40.350   6.044  19.000  0.00  0.00    +0.000 A 
ATOM     31  C   UNL     1      39.118   5.465  18.764  0.00  0.00    +0.000 A 
ATOM     32  C   UNL     1      38.756   5.236  17.434  0.00  0.00    +0.000 A 
ENDBRANCH  26  27
ENDBRANCH   5  26
TORSDOF 8
ENDMDL
MODEL 2
REMARK VINA RESULT:      -7.8      2.430      5.684
REMARK  Name = 
REMARK  8 active torsions:
REMARK  status: ('A' for Active; 'I' for Inactive)
REMARK    1  A    between atoms: C_2  and  O_3
REMARK    2  A    between atoms: O_3  and  C_4
REMARK    3  A    between atoms: C_7  and  N_8
REMARK    4  A    between atoms: C_11  and  N_12
REMARK    5  A    between atoms: N_12  and  C_13
REMARK    6  A    between atoms: C_18  and  O_19
REMARK    7  A    between atoms: C_21  and  S_22
REMARK    8  A    between atoms: S_22  and  C_23
REMARK                            x       y       z     vdW  Elec       q    Type
REMARK                         _______ _______ _______ _____ _____    ______ ____
ROOT
ATOM      1  N   UNL     1      37.042   3.589  15.976  0.00  0.00    +0.000 N 
ATOM      2  C   UNL     1      37.817   4.260  16.942  0.00  0.00    +0.000 C 
ATOM      3  O   UNL     1      38.194   3.763  18.051  0.00  0.00    +0.000 OA
ATOM      4  C   UNL     1      38.114   5.631  16.450  0.00  0.00    +0.000 C 
ATOM      5  C   UNL     1      37.561   5.803  15.254  0.00  0.00    +0.000 C 
ATOM      6  C   UNL     1      36.887   4.552  14.932  0.00  0.00    +0.000 C 
ATOM      7  O   UNL     1      36.245   4.328  13.871  0.00  0.00    +0.000 OA
ENDROOT
BRANCH   1  11
ATOM      8  C   UNL     1      35.564  -0.394  16.152  0.00  0.00    +0.000 A 
ATOM      9  C   UNL     1      36.697  -0.078  15.432  0.00  0.00    +0.000 A 
ATOM     10  C   UNL     1      37.177   1.219  15.376  0.00  0.00    +0.000 A 
ATOM     11  C   UNL     1      36.538   2.247  16.039  0.00  0.00    +0.000 A 
ATOM     12  C   UNL     1      35.409   1.928  16.755  0.00  0.00    +0.000 A 
ATOM     13  C   UNL     1      34.930   0.642  16.813  0.00  0.00    +0.000 A 
BRANCH   8  14
ATOM     14  O   UNL     1      35.113  -1.712  16.182  0.00  0.00    +0.000 OA
BRANCH  14  16
ATOM     15  C   UNL     1      34.577  -3.763  15.115  0.00  0.00    +0.000 C 
ATOM     16  C   UNL     1      35.638  -2.713  15.366  0.00  0.00    +0.000 C 
ENDBRANCH  14  16
ENDBRANCH   8  14
ENDBRANCH   1  11
BRANCH   4  17
ATOM     17  N   UNL     1      38.871   6.549  17.184  0.00  0.00    +0.000 NA
BRANCH  17  18
ATOM     18  C   UNL     1      38.507   7.349  18.257  0.00  0.00    +0.000 A 
ATOM     19  C   UNL     1      37.561   8.335  18.300  0.00  0.00    +0.000 A 
ATOM     20  C   UNL     1      37.305   9.059  19.439  0.00  0.00    +0.000 A 
ATOM     21  C   UNL     1      38.011   8.812  20.611  0.00  0.00    +0.000 A 
ATOM     22  C   UNL     1      38.963   7.834  20.600  0.00  0.00    +0.000 A 
ATOM     23  C   UNL     1      39.201   7.125  19.453  0.00  0.00    +0.000 A 
BRANCH  23  24
ATOM     24  O   UNL     1      40.189   6.130  19.501  0.00  0.00    +0.000 OA
ATOM     25  C   UNL     1      41.384   6.296  20.200  0.00  0.00    +0.000 C 
ENDBRANCH  23  24
ENDBRANCH  17  18
ENDBRANCH   4  17
BRANCH   5  26
ATOM     26  S   UNL     1      37.628   7.285  14.234  0.00  0.00    +0.000 S 
BRANCH  26  27
ATOM     27  C   UNL     1      36.233   8.312  14.656  0.00  0.00    +0.000 A 
ATOM     28  C   UNL     1      36.347   9.608  15.111  0.00  0.00    +0.000 A 
ATOM     29  C   UNL     1      35.188  10.326  15.405  0.00  0.00    +0.000 A 
ATOM     30  C   UNL     1      33.947   9.796  15.261  0.00  0.00    +0.000 A 
ATOM     31  C   UNL     1      33.803   8.500  14.806  0.00  0.00    +0.000 A 
ATOM     32  C   UNL     1      34.967   7.786  14.513  0.00  0.00    +0.000 A 
ENDBRANCH  26  27
ENDBRANCH   5  26
TORSDOF 8
ENDMDL
MODEL 3
REMARK VINA RESULT:      -7.6      3.401      8.435
REMARK  Name = 
REMARK  8 active torsions:
REMARK  status: ('A' for Active; 'I' for Inactive)
REMARK    1  A    between atoms: C_2  and  O_3
REMARK    2  A    between atoms: O_3  and  C_4
REMARK    3  A    between atoms: C_7  and  N_8
REMARK    4  A    between atoms: C_11  and  N_12
REMARK    5  A    between atoms: N_12  and  C_13
REMARK    6  A    between atoms: C_18  and  O_19
REMARK    7  A    between atoms: C_21  and  S_22
REMARK    8  A    between atoms: S_22  and  C_23
REMARK                            x       y       z     vdW  Elec       q    Type
REMARK                         _______ _______ _______ _____ _____    ______ ____
ROOT
ATOM      1  N   UNL     1      37.870   3.348  15.827  0.00  0.00    +0.000 N 
ATOM      2  C   UNL     1      36.957   2.335  16.179  0.00  0.00    +0.000 C 
ATOM      3  O   UNL     1      36.227   2.338  17.221  0.00  0.00    +0.000 OA
ATOM      4  C   UNL     1      36.994   1.274  15.138  0.00  0.00    +0.000 C 
ATOM      5  C   UNL     1      37.872   1.605  14.197  0.00  0.00    +0.000 C 
ATOM      6  C   UNL     1      38.434   2.888  14.598  0.00  0.00    +0.000 C 
ATOM      7  O   UNL     1      39.307   3.528  13.952  0.00  0.00    +0.000 OA
ENDROOT
BRANCH   1  11
ATOM      8  C   UNL     1      38.716   6.920  17.973  0.00  0.00    +0.000 A 
ATOM      9  C   UNL     1      38.951   5.677  18.524  0.00  0.00    +0.000 A 
ATOM     10  C   UNL     1      38.674   4.516  17.823  0.00  0.00    +0.000 A 
ATOM     11  C   UNL     1      38.153   4.557  16.546  0.00  0.00    +0.000 A 
ATOM     12  C   UNL     1      37.921   5.797  16.001  0.00  0.00    +0.000 A 
ATOM     13  C   UNL     1      38.194   6.953  16.693  0.00  0.00    +0.000 A 
BRANCH   8  14
ATOM     14  O   UNL     1      39.007   8.065  18.711  0.00  0.00    +0.000 OA
BRANCH  14  16
ATOM     15  C   UNL     1      37.635   8.931  20.443  0.00  0.00    +0.000 C 
ATOM     16  C   UNL     1      38.872   8.130  20.097  0.00  0.00    +0.000 C 
ENDBRANCH  14  16
ENDBRANCH   8  14
ENDBRANCH   1  11
BRANCH   4  17
ATOM     17  N   UNL     1      36.194   0.129  15.199  0.00  0.00    +0.000 NA
BRANCH  17  18
ATOM     18  C   UNL     1      36.557  -1.208  15.289  0.00  0.00    +0.000 A 
ATOM     19  C   UNL     1      36.435  -2.187  14.343  0.00  0.00    +0.000 A 
ATOM     20  C   UNL     1      36.834  -3.482  14.571  0.00  0.00    +0.000 A 
ATOM     21  C   UNL     1      37.385  -3.852  15.792  0.00  0.00    +0.000 A 
ATOM     22  C   UNL     1      37.519  -2.896  16.757  0.00  0.00    +0.000 A 
ATOM     23  C   UNL     1      37.115  -1.612  16.509  0.00  0.00    +0.000 A 
BRANCH  23  24
ATOM     24  O   UNL     1      37.279  -0.671  17.537  0.00  0.00    +0.000 OA
ATOM     25  C   UNL     1      36.769  -0.869  18.819  0.00  0.00    +0.000 C 
ENDBRANCH  23  24
ENDBRANCH  17  18
ENDBRANCH   4  17
BRANCH   5  26
ATOM     26  S   UNL     1      38.288   0.658  12.724  0.00  0.00    +0.000 S 
BRANCH  26  27
ATOM     27  C   UNL     1      39.327  -0.705  13.216  0.00  0.00    +0.000 A 
ATOM     28  C   UNL     1      39.501  -1.845  12.462  0.00  0.00    +0.000 A 
ATOM     29  C   UNL     1      40.346  -2.848  12.938  0.00  0.00    +0.000 A 
ATOM     30  C   UNL     1      41.006  -2.745  14.119  0.00  0.00    +0.000 A 
ATOM     31  C   UNL     1      40.850  -1.612  14.895  0.00  0.00    +0.000 A 
ATOM     32  C   UNL     1      40.003  -0.612  14.413  0.00  0.00    +0.000 A 
ENDBRANCH  26  27
ENDBRANCH   5  26
TORSDOF 8
ENDMDL
MODEL 4
REMARK VINA RESULT:      -7.6      4.956      8.697
REMARK  Name = 
REMARK  8 active torsions:
REMARK  status: ('A' for Active; 'I' for Inactive)
REMARK    1  A    between atoms: C_2  and  O_3
REMARK    2  A    between atoms: O_3  and  C_4
REMARK    3  A    between atoms: C_7  and  N_8
REMARK    4  A    between atoms: C_11  and  N_12
REMARK    5  A    between atoms: N_12  and  C_13
REMARK    6  A    between atoms: C_18  and  O_19
REMARK    7  A    between atoms: C_21  and  S_22
REMARK    8  A    between atoms: S_22  and  C_23
REMARK                            x       y       z     vdW  Elec       q    Type
REMARK                         _______ _______ _______ _____ _____    ______ ____
ROOT
ATOM      1  N   UNL     1      40.061  -2.204  14.476  0.00  0.00    +0.000 N 
ATOM      2  C   UNL     1      39.037  -1.400  13.941  0.00  0.00    +0.000 C 
ATOM      3  O   UNL     1      39.157  -0.643  12.925  0.00  0.00    +0.000 OA
ATOM      4  C   UNL     1      37.808  -1.582  14.757  0.00  0.00    +0.000 C 
ATOM      5  C   UNL     1      38.050  -2.446  15.738  0.00  0.00    +0.000 C 
ATOM      6  C   UNL     1      39.442  -2.850  15.591  0.00  0.00    +0.000 C 
ATOM      7  O   UNL     1      40.041  -3.667  16.340  0.00  0.00    +0.000 OA
ENDROOT
BRANCH   1  11
ATOM      8  C   UNL     1      44.058  -2.584  13.076  0.00  0.00    +0.000 A 
ATOM      9  C   UNL     1      43.727  -1.690  14.073  0.00  0.00    +0.000 A 
ATOM     10  C   UNL     1      42.425  -1.569  14.527  0.00  0.00    +0.000 A 
ATOM     11  C   UNL     1      41.408  -2.337  13.998  0.00  0.00    +0.000 A 
ATOM     12  C   UNL     1      41.742  -3.226  13.005  0.00  0.00    +0.000 A 
ATOM     13  C   UNL     1      43.033  -3.350  12.552  0.00  0.00    +0.000 A 
BRANCH   8  14
ATOM     14  O   UNL     1      45.380  -2.675  12.646  0.00  0.00    +0.000 OA
BRANCH  14  16
ATOM     15  C   UNL     1      46.485  -4.727  12.198  0.00  0.00    +0.000 C 
ATOM     16  C   UNL     1      45.787  -3.519  11.613  0.00  0.00    +0.000 C 
ENDBRANCH  14  16
ENDBRANCH   8  14
ENDBRANCH   1  11
BRANCH   4  17
ATOM     17  N   UNL     1      36.610  -0.918  14.477  0.00  0.00    +0.000 NA
BRANCH  17  18
ATOM     18  C   UNL     1      36.022   0.166  15.114  0.00  0.00    +0.000 A 
ATOM     19  C   UNL     1      35.464   0.219  16.360  0.00  0.00    +0.000 A 
ATOM     20  C   UNL     1      34.906   1.368  16.868  0.00  0.00    +0.000 A 
ATOM     21  C   UNL     1      34.888   2.539  16.120  0.00  0.00    +0.000 A 
ATOM     22  C   UNL     1      35.438   2.517  14.870  0.00  0.00    +0.000 A 
ATOM     23  C   UNL     1      35.987   1.362  14.385  0.00  0.00    +0.000 A 
BRANCH  23  24
ATOM     24  O   UNL     1      36.539   1.399  13.096  0.00  0.00    +0.000 OA
ATOM     25  C   UNL     1      37.391   2.420  12.676  0.00  0.00    +0.000 C 
ENDBRANCH  23  24
ENDBRANCH  17  18
ENDBRANCH   4  17
BRANCH   5  26
ATOM     26  S   UNL     1      36.892  -3.005  16.998  0.00  0.00    +0.000 S 
BRANCH  26  27
ATOM     27  C   UNL     1      35.619  -3.961  16.195  0.00  0.00    +0.000 A 
ATOM     28  C   UNL     1      34.461  -3.415  15.684  0.00  0.00    +0.000 A 
ATOM     29  C   UNL     1      33.533  -4.254  15.066  0.00  0.00    +0.000 A 
ATOM     30  C   UNL     1      33.726  -5.592  14.949  0.00  0.00    +0.000 A 
ATOM     31  C   UNL     1      34.878  -6.165  15.452  0.00  0.00    +0.000 A 
ATOM     32  C   UNL     1      35.803  -5.321  16.069  0.00  0.00    +0.000 A 
ENDBRANCH  26  27
ENDBRANCH   5  26
TORSDOF 8
ENDMDL
MODEL 5
REMARK VINA RESULT:      -7.4      1.636      5.491
REMARK  Name = 
REMARK  8 active torsions:
REMARK  status: ('A' for Active; 'I' for Inactive)
REMARK    1  A    between atoms: C_2  and  O_3
REMARK    2  A    between atoms: O_3  and  C_4
REMARK    3  A    between atoms: C_7  and  N_8
REMARK    4  A    between atoms: C_11  and  N_12
REMARK    5  A    between atoms: N_12  and  C_13
REMARK    6  A    between atoms: C_18  and  O_19
REMARK    7  A    between atoms: C_21  and  S_22
REMARK    8  A    between atoms: S_22  and  C_23
REMARK                            x       y       z     vdW  Elec       q    Type
REMARK                         _______ _______ _______ _____ _____    ______ ____
ROOT
ATOM      1  N   UNL     1      36.843   2.085  15.596  0.00  0.00    +0.000 N 
ATOM      2  C   UNL     1      37.218   3.103  16.493  0.00  0.00    +0.000 C 
ATOM      3  O   UNL     1      37.316   2.968  17.754  0.00  0.00    +0.000 OA
ATOM      4  C   UNL     1      37.476   4.348  15.723  0.00  0.00    +0.000 C 
ATOM      5  C   UNL     1      37.276   4.121  14.429  0.00  0.00    +0.000 C 
ATOM      6  C   UNL     1      36.880   2.723  14.318  0.00  0.00    +0.000 C 
ATOM      7  O   UNL     1      36.605   2.133  13.239  0.00  0.00    +0.000 OA
ENDROOT
BRANCH   1  11
ATOM      8  C   UNL     1      35.831  -1.939  16.528  0.00  0.00    +0.000 A 
ATOM      9  C   UNL     1      34.954  -0.902  16.770  0.00  0.00    +0.000 A 
ATOM     10  C   UNL     1      35.286   0.407  16.466  0.00  0.00    +0.000 A 
ATOM     11  C   UNL     1      36.508   0.725  15.909  0.00  0.00    +0.000 A 
ATOM     12  C   UNL     1      37.379  -0.311  15.670  0.00  0.00    +0.000 A 
ATOM     13  C   UNL     1      37.053  -1.612  15.970  0.00  0.00    +0.000 A 
BRANCH   8  14
ATOM     14  O   UNL     1      35.460  -3.242  16.851  0.00  0.00    +0.000 OA
BRANCH  14  16
ATOM     15  C   UNL     1      34.471  -4.029  14.842  0.00  0.00    +0.000 C 
ATOM     16  C   UNL     1      35.488  -4.290  15.931  0.00  0.00    +0.000 C 
ENDBRANCH  14  16
ENDBRANCH   8  14
ENDBRANCH   1  11
BRANCH   4  17
ATOM     17  N   UNL     1      37.872   5.544  16.332  0.00  0.00    +0.000 NA
BRANCH  17  18
ATOM     18  C   UNL     1      38.935   5.799  17.187  0.00  0.00    +0.000 A 
ATOM     19  C   UNL     1      38.962   5.734  18.551  0.00  0.00    +0.000 A 
ATOM     20  C   UNL     1      40.092   6.022  19.279  0.00  0.00    +0.000 A 
ATOM     21  C   UNL     1      41.270   6.396  18.642  0.00  0.00    +0.000 A 
ATOM     22  C   UNL     1      41.274   6.470  17.279  0.00  0.00    +0.000 A 
ATOM     23  C   UNL     1      40.137   6.180  16.576  0.00  0.00    +0.000 A 
BRANCH  23  24
ATOM     24  O   UNL     1      40.200   6.271  15.177  0.00  0.00    +0.000 OA
ATOM     25  C   UNL     1      41.041   5.464  14.413  0.00  0.00    +0.000 C 
ENDBRANCH  23  24
ENDBRANCH  17  18
ENDBRANCH   4  17
BRANCH   5  26
ATOM     26  S   UNL     1      37.455   5.302  13.082  0.00  0.00    +0.000 S 
BRANCH  26  27
ATOM     27  C   UNL     1      35.859   6.034  12.772  0.00  0.00    +0.000 A 
ATOM     28  C   UNL     1      34.909   6.238  13.749  0.00  0.00    +0.000 A 
ATOM     29  C   UNL     1      33.694   6.828  13.398  0.00  0.00    +0.000 A 
ATOM     30  C   UNL     1      33.410   7.209  12.128  0.00  0.00    +0.000 A 
ATOM     31  C   UNL     1      34.345   7.017  11.128  0.00  0.00    +0.000 A 
ATOM     32  C   UNL     1      35.558   6.426  11.485  0.00  0.00    +0.000 A 
ENDBRANCH  26  27
ENDBRANCH   5  26
TORSDOF 8
ENDMDL
MODEL 6
REMARK VINA RESULT:      -7.3     23.824     26.372
REMARK  Name = 
REMARK  8 active torsions:
REMARK  status: ('A' for Active; 'I' for Inactive)
REMARK    1  A    between atoms: C_2  and  O_3
REMARK    2  A    between atoms: O_3  and  C_4
REMARK    3  A    between atoms: C_7  and  N_8
REMARK    4  A    between atoms: C_11  and  N_12
REMARK    5  A    between atoms: N_12  and  C_13
REMARK    6  A    between atoms: C_18  and  O_19
REMARK    7  A    between atoms: C_21  and  S_22
REMARK    8  A    between atoms: S_22  and  C_23
REMARK                            x       y       z     vdW  Elec       q    Type
REMARK                         _______ _______ _______ _____ _____    ______ ____
ROOT
ATOM      1  N   UNL     1      15.736  -0.091  26.830  0.00  0.00    +0.000 N 
ATOM      2  C   UNL     1      15.642   0.164  28.212  0.00  0.00    +0.000 C 
ATOM      3  O   UNL     1      16.632   0.336  28.992  0.00  0.00    +0.000 OA
ATOM      4  C   UNL     1      14.206   0.196  28.597  0.00  0.00    +0.000 C 
ATOM      5  C   UNL     1      13.454  -0.024  27.524  0.00  0.00    +0.000 C 
ATOM      6  C   UNL     1      14.375  -0.207  26.410  0.00  0.00    +0.000 C 
ATOM      7  O   UNL     1      14.033  -0.437  25.219  0.00  0.00    +0.000 OA
ENDROOT
BRANCH   1  11
ATOM      8  C   UNL     1      19.274  -0.397  24.492  0.00  0.00    +0.000 A 
ATOM      9  C   UNL     1      18.740   0.829  24.832  0.00  0.00    +0.000 A 
ATOM     10  C   UNL     1      17.588   0.926  25.593  0.00  0.00    +0.000 A 
ATOM     11  C   UNL     1      16.929  -0.201  26.041  0.00  0.00    +0.000 A 
ATOM     12  C   UNL     1      17.464  -1.420  25.699  0.00  0.00    +0.000 A 
ATOM     13  C   UNL     1      18.607  -1.521  24.944  0.00  0.00    +0.000 A 
BRANCH   8  14
ATOM     14  O   UNL     1      20.434  -0.452  23.723  0.00  0.00    +0.000 OA
BRANCH  14  16
ATOM     15  C   UNL     1      20.580  -1.851  21.812  0.00  0.00    +0.000 C 
ATOM     16  C   UNL     1      20.424  -0.437  22.329  0.00  0.00    +0.000 C 
ENDBRANCH  14  16
ENDBRANCH   8  14
ENDBRANCH   1  11
BRANCH   4  17
ATOM     17  N   UNL     1      13.782   0.432  29.908  0.00  0.00    +0.000 NA
BRANCH  17  18
ATOM     18  C   UNL     1      13.512  -0.465  30.933  0.00  0.00    +0.000 A 
ATOM     19  C   UNL     1      12.721  -1.578  30.902  0.00  0.00    +0.000 A 
ATOM     20  C   UNL     1      12.538  -2.380  32.003  0.00  0.00    +0.000 A 
ATOM     21  C   UNL     1      13.160  -2.083  33.210  0.00  0.00    +0.000 A 
ATOM     22  C   UNL     1      13.956  -0.976  33.272  0.00  0.00    +0.000 A 
ATOM     23  C   UNL     1      14.124  -0.192  32.163  0.00  0.00    +0.000 A 
BRANCH  23  24
ATOM     24  O   UNL     1      14.956   0.932  32.285  0.00  0.00    +0.000 OA
ATOM     25  C   UNL     1      14.603   2.043  33.049  0.00  0.00    +0.000 C 
ENDBRANCH  23  24
ENDBRANCH  17  18
ENDBRANCH   4  17
BRANCH   5  26
ATOM     26  S   UNL     1      11.655  -0.085  27.458  0.00  0.00    +0.000 S 
BRANCH  26  27
ATOM     27  C   UNL     1      11.052   1.580  27.250  0.00  0.00    +0.000 A 
ATOM     28  C   UNL     1       9.718   1.921  27.305  0.00  0.00    +0.000 A 
ATOM     29  C   UNL     1       9.355   3.258  27.138  0.00  0.00    +0.000 A 
ATOM     30  C   UNL     1      10.267   4.239  26.923  0.00  0.00    +0.000 A 
ATOM     31  C   UNL     1      11.611   3.924  26.864  0.00  0.00    +0.000 A 
ATOM     32  C   UNL     1      11.968   2.585  27.032  0.00  0.00    +0.000 A 
ENDBRANCH  26  27
ENDBRANCH   5  26
TORSDOF 8
ENDMDL
MODEL 7
REMARK VINA RESULT:      -7.3      5.324      8.600
REMARK  Name = 
REMARK  8 active torsions:
REMARK  status: ('A' for Active; 'I' for Inactive)
REMARK    1  A    between atoms: C_2  and  O_3
REMARK    2  A    between atoms: O_3  and  C_4
REMARK    3  A    between atoms: C_7  and  N_8
REMARK    4  A    between atoms: C_11  and  N_12
REMARK    5  A    between atoms: N_12  and  C_13
REMARK    6  A    between atoms: C_18  and  O_19
REMARK    7  A    between atoms: C_21  and  S_22
REMARK    8  A    between atoms: S_22  and  C_23
REMARK                            x       y       z     vdW  Elec       q    Type
REMARK                         _______ _______ _______ _____ _____    ______ ____
ROOT
ATOM      1  N   UNL     1      40.686  -1.955  14.057  0.00  0.00    +0.000 N 
ATOM      2  C   UNL     1      39.864  -2.495  15.065  0.00  0.00    +0.000 C 
ATOM      3  O   UNL     1      40.240  -3.339  15.940  0.00  0.00    +0.000 OA
ATOM      4  C   UNL     1      38.501  -1.918  14.932  0.00  0.00    +0.000 C 
ATOM      5  C   UNL     1      38.474  -1.072  13.908  0.00  0.00    +0.000 C 
ATOM      6  C   UNL     1      39.817  -1.073  13.343  0.00  0.00    +0.000 C 
ATOM      7  O   UNL     1      40.184  -0.389  12.351  0.00  0.00    +0.000 OA
ENDROOT
BRANCH   1  11
ATOM      8  C   UNL     1      44.792  -2.789  13.334  0.00  0.00    +0.000 A 
ATOM      9  C   UNL     1      43.793  -3.409  12.610  0.00  0.00    +0.000 A 
ATOM     10  C   UNL     1      42.458  -3.135  12.848  0.00  0.00    +0.000 A 
ATOM     11  C   UNL     1      42.073  -2.232  13.818  0.00  0.00    +0.000 A 
ATOM     12  C   UNL     1      43.071  -1.618  14.536  0.00  0.00    +0.000 A 
ATOM     13  C   UNL     1      44.398  -1.886  14.304  0.00  0.00    +0.000 A 
BRANCH   8  14
ATOM     14  O   UNL     1      46.125  -3.093  13.065  0.00  0.00    +0.000 OA
BRANCH  14  16
ATOM     15  C   UNL     1      47.287  -4.759  14.292  0.00  0.00    +0.000 C 
ATOM     16  C   UNL     1      46.606  -4.399  12.989  0.00  0.00    +0.000 C 
ENDBRANCH  14  16
ENDBRANCH   8  14
ENDBRANCH   1  11
BRANCH   4  17
ATOM     17  N   UNL     1      37.451  -2.255  15.793  0.00  0.00    +0.000 NA
BRANCH  17  18
ATOM     18  C   UNL     1      36.916  -1.552  16.863  0.00  0.00    +0.000 A 
ATOM     19  C   UNL     1      36.050  -0.496  16.838  0.00  0.00    +0.000 A 
ATOM     20  C   UNL     1      35.601   0.114  17.985  0.00  0.00    +0.000 A 
ATOM     21  C   UNL     1      36.018  -0.329  19.235  0.00  0.00    +0.000 A 
ATOM     22  C   UNL     1      36.884  -1.382  19.292  0.00  0.00    +0.000 A 
ATOM     23  C   UNL     1      37.318  -1.974  18.137  0.00  0.00    +0.000 A 
BRANCH  23  24
ATOM     24  O   UNL     1      38.206  -3.054  18.257  0.00  0.00    +0.000 OA
ATOM     25  C   UNL     1      38.703  -3.479  19.488  0.00  0.00    +0.000 C 
ENDBRANCH  23  24
ENDBRANCH  17  18
ENDBRANCH   4  17
BRANCH   5  26
ATOM     26  S   UNL     1      37.062  -0.115  13.331  0.00  0.00    +0.000 S 
BRANCH  26  27
ATOM     27  C   UNL     1      37.068   1.451  14.183  0.00  0.00    +0.000 A 
ATOM     28  C   UNL     1      38.197   2.014  14.738  0.00  0.00    +0.000 A 
ATOM     29  C   UNL     1      38.092   3.251  15.376  0.00  0.00    +0.000 A 
ATOM     30  C   UNL     1      36.917   3.922  15.473  0.00  0.00    +0.000 A 
ATOM     31  C   UNL     1      35.770   3.380  14.926  0.00  0.00    +0.000 A 
ATOM     32  C   UNL     1      35.881   2.143  14.288  0.00  0.00    +0.000 A 
ENDBRANCH  26  27
ENDBRANCH   5  26
TORSDOF 8
ENDMDL
MODEL 8
REMARK VINA RESULT:      -7.3      2.148      5.719
REMARK  Name = 
REMARK  8 active torsions:
REMARK  status: ('A' for Active; 'I' for Inactive)
REMARK    1  A    between atoms: C_2  and  O_3
REMARK    2  A    between atoms: O_3  and  C_4
REMARK    3  A    between atoms: C_7  and  N_8
REMARK    4  A    between atoms: C_11  and  N_12
REMARK    5  A    between atoms: N_12  and  C_13
REMARK    6  A    between atoms: C_18  and  O_19
REMARK    7  A    between atoms: C_21  and  S_22
REMARK    8  A    between atoms: S_22  and  C_23
REMARK                            x       y       z     vdW  Elec       q    Type
REMARK                         _______ _______ _______ _____ _____    ______ ____
ROOT
ATOM      1  N   UNL     1      37.048   3.501  15.822  0.00  0.00    +0.000 N 
ATOM      2  C   UNL     1      37.782   4.243  16.768  0.00  0.00    +0.000 C 
ATOM      3  O   UNL     1      38.142   3.816  17.911  0.00  0.00    +0.000 OA
ATOM      4  C   UNL     1      38.060   5.591  16.208  0.00  0.00    +0.000 C 
ATOM      5  C   UNL     1      37.535   5.684  14.991  0.00  0.00    +0.000 C 
ATOM      6  C   UNL     1      36.897   4.402  14.723  0.00  0.00    +0.000 C 
ATOM      7  O   UNL     1      36.288   4.105  13.661  0.00  0.00    +0.000 OA
ENDROOT
BRANCH   1  11
ATOM      8  C   UNL     1      35.620  -0.486  16.204  0.00  0.00    +0.000 A 
ATOM      9  C   UNL     1      34.981   0.569  16.821  0.00  0.00    +0.000 A 
ATOM     10  C   UNL     1      35.447   1.866  16.695  0.00  0.00    +0.000 A 
ATOM     11  C   UNL     1      36.571   2.153  15.948  0.00  0.00    +0.000 A 
ATOM     12  C   UNL     1      37.206   1.099  15.335  0.00  0.00    +0.000 A 
ATOM     13  C   UNL     1      36.746  -0.190  15.457  0.00  0.00    +0.000 A 
BRANCH   8  14
ATOM     14  O   UNL     1      35.120  -1.777  16.357  0.00  0.00    +0.000 OA
BRANCH  14  16
ATOM     15  C   UNL     1      36.157  -3.911  16.368  0.00  0.00    +0.000 C 
ATOM     16  C   UNL     1      35.706  -2.726  17.193  0.00  0.00    +0.000 C 
ENDBRANCH  14  16
ENDBRANCH   8  14
ENDBRANCH   1  11
BRANCH   4  17
ATOM     17  N   UNL     1      38.778   6.566  16.908  0.00  0.00    +0.000 NA
BRANCH  17  18
ATOM     18  C   UNL     1      40.099   6.564  17.336  0.00  0.00    +0.000 A 
ATOM     19  C   UNL     1      41.235   6.457  16.585  0.00  0.00    +0.000 A 
ATOM     20  C   UNL     1      42.490   6.465  17.146  0.00  0.00    +0.000 A 
ATOM     21  C   UNL     1      42.652   6.584  18.522  0.00  0.00    +0.000 A 
ATOM     22  C   UNL     1      41.535   6.692  19.298  0.00  0.00    +0.000 A 
ATOM     23  C   UNL     1      40.296   6.681  18.718  0.00  0.00    +0.000 A 
BRANCH  23  24
ATOM     24  O   UNL     1      39.183   6.798  19.565  0.00  0.00    +0.000 OA
ATOM     25  C   UNL     1      39.123   7.736  20.595  0.00  0.00    +0.000 C 
ENDBRANCH  23  24
ENDBRANCH  17  18
ENDBRANCH   4  17
BRANCH   5  26
ATOM     26  S   UNL     1      37.595   7.110  13.892  0.00  0.00    +0.000 S 
BRANCH  26  27
ATOM     27  C   UNL     1      36.134   8.091  14.178  0.00  0.00    +0.000 A 
ATOM     28  C   UNL     1      34.883   7.555  14.392  0.00  0.00    +0.000 A 
ATOM     29  C   UNL     1      33.807   8.415  14.615  0.00  0.00    +0.000 A 
ATOM     30  C   UNL     1      33.946   9.765  14.629  0.00  0.00    +0.000 A 
ATOM     31  C   UNL     1      35.189  10.329  14.418  0.00  0.00    +0.000 A 
ATOM     32  C   UNL     1      36.261   9.463  14.196  0.00  0.00    +0.000 A 
ENDBRANCH  26  27
ENDBRANCH   5  26
TORSDOF 8
ENDMDL
MODEL 9
REMARK VINA RESULT:      -7.1      3.574      8.419
REMARK  Name = 
REMARK  8 active torsions:
REMARK  status: ('A' for Active; 'I' for Inactive)
REMARK    1  A    between atoms: C_2  and  O_3
REMARK    2  A    between atoms: O_3  and  C_4
REMARK    3  A    between atoms: C_7  and  N_8
REMARK    4  A    between atoms: C_11  and  N_12
REMARK    5  A    between atoms: N_12  and  C_13
REMARK    6  A    between atoms: C_18  and  O_19
REMARK    7  A    between atoms: C_21  and  S_22
REMARK    8  A    between atoms: S_22  and  C_23
REMARK                            x       y       z     vdW  Elec       q    Type
REMARK                         _______ _______ _______ _____ _____    ______ ____
ROOT
ATOM      1  N   UNL     1      38.488   4.196  16.183  0.00  0.00    +0.000 N 
ATOM      2  C   UNL     1      37.588   3.118  16.286  0.00  0.00    +0.000 C 
ATOM      3  O   UNL     1      36.773   2.935  17.246  0.00  0.00    +0.000 OA
ATOM      4  C   UNL     1      37.753   2.241  15.097  0.00  0.00    +0.000 C 
ATOM      5  C   UNL     1      38.694   2.741  14.303  0.00  0.00    +0.000 C 
ATOM      6  C   UNL     1      39.171   3.955  14.951  0.00  0.00    +0.000 C 
ATOM      7  O   UNL     1      40.070   4.712  14.496  0.00  0.00    +0.000 OA
ENDROOT
BRANCH   1  11
ATOM      8  C   UNL     1      39.017   7.393  18.936  0.00  0.00    +0.000 A 
ATOM      9  C   UNL     1      39.382   6.101  19.254  0.00  0.00    +0.000 A 
ATOM     10  C   UNL     1      39.208   5.062  18.357  0.00  0.00    +0.000 A 
ATOM     11  C   UNL     1      38.663   5.280  17.107  0.00  0.00    +0.000 A 
ATOM     12  C   UNL     1      38.302   6.567  16.794  0.00  0.00    +0.000 A 
ATOM     13  C   UNL     1      38.472   7.602  17.682  0.00  0.00    +0.000 A 
BRANCH   8  14
ATOM     14  O   UNL     1      39.207   8.411  19.868  0.00  0.00    +0.000 OA
BRANCH  14  16
ATOM     15  C   UNL     1      38.154  10.466  20.413  0.00  0.00    +0.000 C 
ATOM     16  C   UNL     1      38.165   8.966  20.610  0.00  0.00    +0.000 C 
ENDBRANCH  14  16
ENDBRANCH   8  14
ENDBRANCH   1  11
BRANCH   4  17
ATOM     17  N   UNL     1      36.995   1.082  14.903  0.00  0.00    +0.000 NA
BRANCH  17  18
ATOM     18  C   UNL     1      36.368   0.261  15.831  0.00  0.00    +0.000 A 
ATOM     19  C   UNL     1      35.078   0.314  16.278  0.00  0.00    +0.000 A 
ATOM     20  C   UNL     1      34.588  -0.567  17.212  0.00  0.00    +0.000 A 
ATOM     21  C   UNL     1      35.399  -1.562  17.746  0.00  0.00    +0.000 A 
ATOM     22  C   UNL     1      36.693  -1.639  17.319  0.00  0.00    +0.000 A 
ATOM     23  C   UNL     1      37.161  -0.751  16.388  0.00  0.00    +0.000 A 
BRANCH  23  24
ATOM     24  O   UNL     1      38.499  -0.880  15.985  0.00  0.00    +0.000 OA
ATOM     25  C   UNL     1      39.242  -2.035  16.220  0.00  0.00    +0.000 C 
ENDBRANCH  23  24
ENDBRANCH  17  18
ENDBRANCH   4  17
BRANCH   5  26
ATOM     26  S   UNL     1      39.267   2.055  12.740  0.00  0.00    +0.000 S 
BRANCH  26  27
ATOM     27  C   UNL     1      40.222   0.592  13.094  0.00  0.00    +0.000 A 
ATOM     28  C   UNL     1      41.322   0.580  13.925  0.00  0.00    +0.000 A 
ATOM     29  C   UNL     1      41.992  -0.625  14.141  0.00  0.00    +0.000 A 
ATOM     30  C   UNL     1      41.603  -1.789  13.563  0.00  0.00    +0.000 A 
ATOM     31  C   UNL     1      40.504  -1.805  12.726  0.00  0.00    +0.000 A 
ATOM     32  C   UNL     1      39.837  -0.597  12.514  0.00  0.00    +0.000 A 
ENDBRANCH  26  27
ENDBRANCH   5  26
TORSDOF 8
ENDMDL
MODEL 10
REMARK VINA RESULT:      -7.1      3.375      5.897
REMARK  Name = 
REMARK  8 active torsions:
REMARK  status: ('A' for Active; 'I' for Inactive)
REMARK    1  A    between atoms: C_2  and  O_3
REMARK    2  A    between atoms: O_3  and  C_4
REMARK    3  A    between atoms: C_7  and  N_8
REMARK    4  A    between atoms: C_11  and  N_12
REMARK    5  A    between atoms: N_12  and  C_13
REMARK    6  A    between atoms: C_18  and  O_19
REMARK    7  A    between atoms: C_21  and  S_22
REMARK    8  A    between atoms: S_22  and  C_23
REMARK                            x       y       z     vdW  Elec       q    Type
REMARK                         _______ _______ _______ _____ _____    ______ ____
ROOT
ATOM      1  N   UNL     1      36.368  -2.862  15.220  0.00  0.00    +0.000 N 
ATOM      2  C   UNL     1      36.202  -1.703  16.002  0.00  0.00    +0.000 C 
ATOM      3  O   UNL     1      35.456  -1.614  17.029  0.00  0.00    +0.000 OA
ATOM      4  C   UNL     1      37.035  -0.614  15.427  0.00  0.00    +0.000 C 
ATOM      5  C   UNL     1      37.681  -1.066  14.357  0.00  0.00    +0.000 C 
ATOM      6  C   UNL     1      37.287  -2.460  14.202  0.00  0.00    +0.000 C 
ATOM      7  O   UNL     1      37.695  -3.229  13.292  0.00  0.00    +0.000 OA
ENDROOT
BRANCH   1  11
ATOM      8  C   UNL     1      34.565  -6.666  15.817  0.00  0.00    +0.000 A 
ATOM      9  C   UNL     1      35.742  -6.321  16.448  0.00  0.00    +0.000 A 
ATOM     10  C   UNL     1      36.327  -5.082  16.252  0.00  0.00    +0.000 A 
ATOM     11  C   UNL     1      35.755  -4.145  15.417  0.00  0.00    +0.000 A 
ATOM     12  C   UNL     1      34.582  -4.492  14.790  0.00  0.00    +0.000 A 
ATOM     13  C   UNL     1      33.998  -5.721  14.982  0.00  0.00    +0.000 A 
BRANCH   8  14
ATOM     14  O   UNL     1      34.009  -7.924  16.040  0.00  0.00    +0.000 OA
BRANCH  14  16
ATOM     15  C   UNL     1      33.240  -9.261  14.236  0.00  0.00    +0.000 C 
ATOM     16  C   UNL     1      32.855  -8.370  15.398  0.00  0.00    +0.000 C 
ENDBRANCH  14  16
ENDBRANCH   8  14
ENDBRANCH   1  11
BRANCH   4  17
ATOM     17  N   UNL     1      37.089   0.668  15.983  0.00  0.00    +0.000 NA
BRANCH  17  18
ATOM     18  C   UNL     1      36.429   1.830  15.609  0.00  0.00    +0.000 A 
ATOM     19  C   UNL     1      35.084   2.042  15.487  0.00  0.00    +0.000 A 
ATOM     20  C   UNL     1      34.563   3.253  15.098  0.00  0.00    +0.000 A 
ATOM     21  C   UNL     1      35.399   4.326  14.809  0.00  0.00    +0.000 A 
ATOM     22  C   UNL     1      36.747   4.145  14.922  0.00  0.00    +0.000 A 
ATOM     23  C   UNL     1      37.244   2.930  15.310  0.00  0.00    +0.000 A 
BRANCH  23  24
ATOM     24  O   UNL     1      38.637   2.802  15.410  0.00  0.00    +0.000 OA
ATOM     25  C   UNL     1      39.511   3.438  14.530  0.00  0.00    +0.000 C 
ENDBRANCH  23  24
ENDBRANCH  17  18
ENDBRANCH   4  17
BRANCH   5  26
ATOM     26  S   UNL     1      38.814  -0.142  13.307  0.00  0.00    +0.000 S 
BRANCH  26  27
ATOM     27  C   UNL     1      40.480  -0.573  13.776  0.00  0.00    +0.000 A 
ATOM     28  C   UNL     1      40.848  -1.822  14.225  0.00  0.00    +0.000 A 
ATOM     29  C   UNL     1      42.183  -2.055  14.557  0.00  0.00    +0.000 A 
ATOM     30  C   UNL     1      43.136  -1.095  14.457  0.00  0.00    +0.000 A 
ATOM     31  C   UNL     1      42.795   0.167  14.010  0.00  0.00    +0.000 A 
ATOM     32  C   UNL     1      41.457   0.394  13.678  0.00  0.00    +0.000 A 
ENDBRANCH  26  27
ENDBRANCH   5  26
TORSDOF 8
ENDMDL
