MODEL 1
REMARK VINA RESULT:      -8.4      0.000      0.000
REMARK  Name = 
REMARK  8 active torsions:
REMARK  status: ('A' for Active; 'I' for Inactive)
REMARK    1  A    between atoms: C_2  and  C_3
REMARK    2  A    between atoms: C_3  and  C_4
REMARK    3  A    between atoms: C_4  and  C_5
REMARK    4  A    between atoms: C_8  and  N_9
REMARK    5  A    between atoms: C_12  and  N_13
REMARK    6  A    between atoms: N_13  and  C_14
REMARK    7  A    between atoms: C_21  and  S_22
REMARK    8  A    between atoms: S_22  and  C_23
REMARK                            x       y       z     vdW  Elec       q    Type
REMARK                         _______ _______ _______ _____ _____    ______ ____
ROOT
ATOM      1  N   UNL     1      36.577   2.109  15.170  0.00  0.00    +0.000 N 
ATOM      2  C   UNL     1      35.667   3.179  14.870  0.00  0.00    +0.000 C 
ATOM      3  O   UNL     1      34.420   3.080  14.775  0.00  0.00    +0.000 OA
ATOM      4  C   UNL     1      36.432   4.403  14.696  0.00  0.00    +0.000 C 
ATOM      5  C   UNL     1      37.716   4.089  14.880  0.00  0.00    +0.000 C 
ATOM      6  C   UNL     1      37.875   2.675  15.180  0.00  0.00    +0.000 C 
ATOM      7  O   UNL     1      38.927   2.033  15.409  0.00  0.00    +0.000 OA
ENDROOT
BRANCH   1  11
ATOM      8  C   UNL     1      35.488  -1.878  15.870  0.00  0.00    +0.000 A 
ATOM      9  C   UNL     1      36.289  -1.549  14.776  0.00  0.00    +0.000 A 
ATOM     10  C   UNL     1      36.643  -0.250  14.527  0.00  0.00    +0.000 A 
ATOM     11  C   UNL     1      36.197   0.746  15.379  0.00  0.00    +0.000 A 
ATOM     12  C   UNL     1      35.414   0.409  16.440  0.00  0.00    +0.000 A 
ATOM     13  C   UNL     1      35.038  -0.901  16.718  0.00  0.00    +0.000 A 
BRANCH   8  14
ATOM     14  C   UNL     1      35.178  -3.322  16.038  0.00  0.00    +0.000 C 
BRANCH  14  15
ATOM     15  C   UNL     1      35.276  -4.039  14.710  0.00  0.00    +0.000 C 
BRANCH  15  17
ATOM     16  C   UNL     1      32.945  -4.462  15.380  0.00  0.00    +0.000 C 
ATOM     17  C   UNL     1      33.921  -4.505  14.211  0.00  0.00    +0.000 C 
ENDBRANCH  15  17
ENDBRANCH  14  15
ENDBRANCH   8  14
ENDBRANCH   1  11
BRANCH   4  18
ATOM     18  N   UNL     1      35.983   5.729  14.389  0.00  0.00    +0.000 NA
BRANCH  18  19
ATOM     19  C   UNL     1      35.539   6.089  13.098  0.00  0.00    +0.000 A 
ATOM     20  C   UNL     1      36.191   5.752  11.931  0.00  0.00    +0.000 A 
ATOM     21  C   UNL     1      35.730   6.121  10.684  0.00  0.00    +0.000 A 
ATOM     22  C   UNL     1      34.573   6.854  10.623  0.00  0.00    +0.000 A 
ATOM     23  C   UNL     1      33.902   7.205  11.746  0.00  0.00    +0.000 A 
ATOM     24  C   UNL     1      34.372   6.831  12.988  0.00  0.00    +0.000 A 
ATOM     25  C   UNL     1      33.607   7.235  14.191  0.00  0.00    +0.000 C 
ENDBRANCH  18  19
ENDBRANCH   4  18
BRANCH   5  26
ATOM     26  S   UNL     1      39.087   5.233  14.779  0.00  0.00    +0.000 S 
BRANCH  26  27
ATOM     27  C   UNL     1      39.714   5.614  16.395  0.00  0.00    +0.000 A 
ATOM     28  C   UNL     1      40.951   6.171  16.621  0.00  0.00    +0.000 A 
ATOM     29  C   UNL     1      41.348   6.446  17.904  0.00  0.00    +0.000 A 
ATOM     30  C   UNL     1      40.524   6.173  18.963  0.00  0.00    +0.000 A 
ATOM     31  C   UNL     1      39.290   5.617  18.734  0.00  0.00    +0.000 A 
ATOM     32  C   UNL     1      38.849   5.323  17.468  0.00  0.00    +0.000 A 
ENDBRANCH  26  27
ENDBRANCH   5  26
TORSDOF 8
ENDMDL
MODEL 2
REMARK VINA RESULT:      -8.3      2.454      5.590
REMARK  Name = 
REMARK  8 active torsions:
REMARK  status: ('A' for Active; 'I' for Inactive)
REMARK    1  A    between atoms: C_2  and  C_3
REMARK    2  A    between atoms: C_3  and  C_4
REMARK    3  A    between atoms: C_4  and  C_5
REMARK    4  A    between atoms: C_8  and  N_9
REMARK    5  A    between atoms: C_12  and  N_13
REMARK    6  A    between atoms: N_13  and  C_14
REMARK    7  A    between atoms: C_21  and  S_22
REMARK    8  A    between atoms: S_22  and  C_23
REMARK                            x       y       z     vdW  Elec       q    Type
REMARK                         _______ _______ _______ _____ _____    ______ ____
ROOT
ATOM      1  N   UNL     1      37.070   3.723  15.922  0.00  0.00    +0.000 N 
ATOM      2  C   UNL     1      37.906   4.374  16.892  0.00  0.00    +0.000 C 
ATOM      3  O   UNL     1      38.322   3.869  17.962  0.00  0.00    +0.000 OA
ATOM      4  C   UNL     1      38.194   5.720  16.426  0.00  0.00    +0.000 C 
ATOM      5  C   UNL     1      37.573   5.868  15.253  0.00  0.00    +0.000 C 
ATOM      6  C   UNL     1      36.856   4.659  14.881  0.00  0.00    +0.000 C 
ATOM      7  O   UNL     1      36.169   4.435  13.857  0.00  0.00    +0.000 OA
ENDROOT
BRANCH   1  11
ATOM      8  C   UNL     1      35.556  -0.160  16.376  0.00  0.00    +0.000 A 
ATOM      9  C   UNL     1      36.712   0.062  15.627  0.00  0.00    +0.000 A 
ATOM     10  C   UNL     1      37.212   1.325  15.460  0.00  0.00    +0.000 A 
ATOM     11  C   UNL     1      36.556   2.394  16.046  0.00  0.00    +0.000 A 
ATOM     12  C   UNL     1      35.428   2.161  16.771  0.00  0.00    +0.000 A 
ATOM     13  C   UNL     1      34.896   0.890  16.958  0.00  0.00    +0.000 A 
BRANCH   8  14
ATOM     14  C   UNL     1      35.116  -1.575  16.491  0.00  0.00    +0.000 C 
BRANCH  14  15
ATOM     15  C   UNL     1      36.181  -2.401  17.179  0.00  0.00    +0.000 C 
BRANCH  15  17
ATOM     16  C   UNL     1      38.035  -1.886  18.715  0.00  0.00    +0.000 C 
ATOM     17  C   UNL     1      36.521  -1.861  18.556  0.00  0.00    +0.000 C 
ENDBRANCH  15  17
ENDBRANCH  14  15
ENDBRANCH   8  14
ENDBRANCH   1  11
BRANCH   4  18
ATOM     18  N   UNL     1      38.980   6.753  17.034  0.00  0.00    +0.000 NA
BRANCH  18  19
ATOM     19  C   UNL     1      38.543   7.446  18.184  0.00  0.00    +0.000 A 
ATOM     20  C   UNL     1      37.486   8.329  18.202  0.00  0.00    +0.000 A 
ATOM     21  C   UNL     1      37.084   8.993  19.344  0.00  0.00    +0.000 A 
ATOM     22  C   UNL     1      37.781   8.749  20.500  0.00  0.00    +0.000 A 
ATOM     23  C   UNL     1      38.826   7.888  20.524  0.00  0.00    +0.000 A 
ATOM     24  C   UNL     1      39.219   7.231  19.377  0.00  0.00    +0.000 A 
ATOM     25  C   UNL     1      40.366   6.296  19.447  0.00  0.00    +0.000 C 
ENDBRANCH  18  19
ENDBRANCH   4  18
BRANCH   5  26
ATOM     26  S   UNL     1      37.601   7.345  14.245  0.00  0.00    +0.000 S 
BRANCH  26  27
ATOM     27  C   UNL     1      36.244   8.413  14.649  0.00  0.00    +0.000 A 
ATOM     28  C   UNL     1      36.397   9.691  15.133  0.00  0.00    +0.000 A 
ATOM     29  C   UNL     1      35.290  10.453  15.404  0.00  0.00    +0.000 A 
ATOM     30  C   UNL     1      34.033   9.954  15.198  0.00  0.00    +0.000 A 
ATOM     31  C   UNL     1      33.882   8.678  14.715  0.00  0.00    +0.000 A 
ATOM     32  C   UNL     1      34.960   7.877  14.430  0.00  0.00    +0.000 A 
ENDBRANCH  26  27
ENDBRANCH   5  26
TORSDOF 8
ENDMDL
MODEL 3
REMARK VINA RESULT:      -8.0      1.897      7.428
REMARK  Name = 
REMARK  8 active torsions:
REMARK  status: ('A' for Active; 'I' for Inactive)
REMARK    1  A    between atoms: C_2  and  C_3
REMARK    2  A    between atoms: C_3  and  C_4
REMARK    3  A    between atoms: C_4  and  C_5
REMARK    4  A    between atoms: C_8  and  N_9
REMARK    5  A    between atoms: C_12  and  N_13
REMARK    6  A    between atoms: N_13  and  C_14
REMARK    7  A    between atoms: C_21  and  S_22
REMARK    8  A    between atoms: S_22  and  C_23
REMARK                            x       y       z     vdW  Elec       q    Type
REMARK                         _______ _______ _______ _____ _____    ______ ____
ROOT
ATOM      1  N   UNL     1      38.388   4.920  15.814  0.00  0.00    +0.000 N 
ATOM      2  C   UNL     1      37.285   5.672  15.283  0.00  0.00    +0.000 C 
ATOM      3  O   UNL     1      37.066   6.892  15.474  0.00  0.00    +0.000 OA
ATOM      4  C   UNL     1      36.459   4.781  14.484  0.00  0.00    +0.000 C 
ATOM      5  C   UNL     1      37.030   3.575  14.531  0.00  0.00    +0.000 C 
ATOM      6  C   UNL     1      38.236   3.594  15.342  0.00  0.00    +0.000 C 
ATOM      7  O   UNL     1      39.023   2.654  15.605  0.00  0.00    +0.000 OA
ENDROOT
BRANCH   1  11
ATOM      8  C   UNL     1      41.418   6.424  18.292  0.00  0.00    +0.000 A 
ATOM      9  C   UNL     1      40.222   5.960  18.842  0.00  0.00    +0.000 A 
ATOM     10  C   UNL     1      39.220   5.477  18.046  0.00  0.00    +0.000 A 
ATOM     11  C   UNL     1      39.401   5.451  16.673  0.00  0.00    +0.000 A 
ATOM     12  C   UNL     1      40.572   5.909  16.151  0.00  0.00    +0.000 A 
ATOM     13  C   UNL     1      41.608   6.405  16.935  0.00  0.00    +0.000 A 
BRANCH   8  14
ATOM     14  C   UNL     1      42.433   6.916  19.259  0.00  0.00    +0.000 C 
BRANCH  14  15
ATOM     15  C   UNL     1      42.194   6.310  20.624  0.00  0.00    +0.000 C 
BRANCH  15  17
ATOM     16  C   UNL     1      44.650   6.376  20.459  0.00  0.00    +0.000 C 
ATOM     17  C   UNL     1      43.482   6.150  21.410  0.00  0.00    +0.000 C 
ENDBRANCH  15  17
ENDBRANCH  14  15
ENDBRANCH   8  14
ENDBRANCH   1  11
BRANCH   4  18
ATOM     18  N   UNL     1      35.257   5.054  13.754  0.00  0.00    +0.000 NA
BRANCH  18  19
ATOM     19  C   UNL     1      35.225   5.974  12.684  0.00  0.00    +0.000 A 
ATOM     20  C   UNL     1      35.940   5.830  11.515  0.00  0.00    +0.000 A 
ATOM     21  C   UNL     1      35.888   6.750  10.487  0.00  0.00    +0.000 A 
ATOM     22  C   UNL     1      35.084   7.848  10.656  0.00  0.00    +0.000 A 
ATOM     23  C   UNL     1      34.365   8.027  11.790  0.00  0.00    +0.000 A 
ATOM     24  C   UNL     1      34.425   7.101  12.810  0.00  0.00    +0.000 A 
ATOM     25  C   UNL     1      33.621   7.333  14.033  0.00  0.00    +0.000 C 
ENDBRANCH  18  19
ENDBRANCH   4  18
BRANCH   5  26
ATOM     26  S   UNL     1      36.418   2.107  13.713  0.00  0.00    +0.000 S 
BRANCH  26  27
ATOM     27  C   UNL     1      36.008   0.848  14.894  0.00  0.00    +0.000 A 
ATOM     28  C   UNL     1      36.406  -0.463  14.780  0.00  0.00    +0.000 A 
ATOM     29  C   UNL     1      36.056  -1.366  15.750  0.00  0.00    +0.000 A 
ATOM     30  C   UNL     1      35.314  -0.976  16.832  0.00  0.00    +0.000 A 
ATOM     31  C   UNL     1      34.917   0.333  16.943  0.00  0.00    +0.000 A 
ATOM     32  C   UNL     1      35.242   1.274  15.997  0.00  0.00    +0.000 A 
ENDBRANCH  26  27
ENDBRANCH   5  26
TORSDOF 8
ENDMDL
MODEL 4
REMARK VINA RESULT:      -7.9      3.548      8.827
REMARK  Name = 
REMARK  8 active torsions:
REMARK  status: ('A' for Active; 'I' for Inactive)
REMARK    1  A    between atoms: C_2  and  C_3
REMARK    2  A    between atoms: C_3  and  C_4
REMARK    3  A    between atoms: C_4  and  C_5
REMARK    4  A    between atoms: C_8  and  N_9
REMARK    5  A    between atoms: C_12  and  N_13
REMARK    6  A    between atoms: N_13  and  C_14
REMARK    7  A    between atoms: C_21  and  S_22
REMARK    8  A    between atoms: S_22  and  C_23
REMARK                            x       y       z     vdW  Elec       q    Type
REMARK                         _______ _______ _______ _____ _____    ______ ____
ROOT
ATOM      1  N   UNL     1      38.284   4.067  16.144  0.00  0.00    +0.000 N 
ATOM      2  C   UNL     1      39.081   3.782  14.984  0.00  0.00    +0.000 C 
ATOM      3  O   UNL     1      40.110   4.405  14.627  0.00  0.00    +0.000 OA
ATOM      4  C   UNL     1      38.497   2.648  14.288  0.00  0.00    +0.000 C 
ATOM      5  C   UNL     1      37.421   2.274  14.985  0.00  0.00    +0.000 C 
ATOM      6  C   UNL     1      37.233   3.117  16.154  0.00  0.00    +0.000 C 
ATOM      7  O   UNL     1      36.338   3.061  17.029  0.00  0.00    +0.000 OA
ENDROOT
BRANCH   1  11
ATOM      8  C   UNL     1      39.048   7.242  18.773  0.00  0.00    +0.000 A 
ATOM      9  C   UNL     1      39.335   5.930  19.151  0.00  0.00    +0.000 A 
ATOM     10  C   UNL     1      39.081   4.882  18.309  0.00  0.00    +0.000 A 
ATOM     11  C   UNL     1      38.530   5.134  17.064  0.00  0.00    +0.000 A 
ATOM     12  C   UNL     1      38.254   6.420  16.711  0.00  0.00    +0.000 A 
ATOM     13  C   UNL     1      38.501   7.504  17.545  0.00  0.00    +0.000 A 
BRANCH   8  14
ATOM     14  C   UNL     1      39.377   8.293  19.771  0.00  0.00    +0.000 C 
BRANCH  14  15
ATOM     15  C   UNL     1      38.135   8.702  20.532  0.00  0.00    +0.000 C 
BRANCH  15  17
ATOM     16  C   UNL     1      38.228  11.078  19.895  0.00  0.00    +0.000 C 
ATOM     17  C   UNL     1      38.238  10.115  21.075  0.00  0.00    +0.000 C 
ENDBRANCH  15  17
ENDBRANCH  14  15
ENDBRANCH   8  14
ENDBRANCH   1  11
BRANCH   4  18
ATOM     18  N   UNL     1      38.923   1.990  13.087  0.00  0.00    +0.000 NA
BRANCH  18  19
ATOM     19  C   UNL     1      39.770   0.861  13.114  0.00  0.00    +0.000 A 
ATOM     20  C   UNL     1      40.632   0.562  14.147  0.00  0.00    +0.000 A 
ATOM     21  C   UNL     1      41.450  -0.550  14.142  0.00  0.00    +0.000 A 
ATOM     22  C   UNL     1      41.388  -1.380  13.052  0.00  0.00    +0.000 A 
ATOM     23  C   UNL     1      40.554  -1.123  12.016  0.00  0.00    +0.000 A 
ATOM     24  C   UNL     1      39.742  -0.008  12.032  0.00  0.00    +0.000 A 
ATOM     25  C   UNL     1      38.843   0.237  10.880  0.00  0.00    +0.000 C 
ENDBRANCH  18  19
ENDBRANCH   4  18
BRANCH   5  26
ATOM     26  S   UNL     1      36.334   0.919  14.564  0.00  0.00    +0.000 S 
BRANCH  26  27
ATOM     27  C   UNL     1      37.153  -0.640  14.776  0.00  0.00    +0.000 A 
ATOM     28  C   UNL     1      37.139  -1.644  13.836  0.00  0.00    +0.000 A 
ATOM     29  C   UNL     1      37.814  -2.812  14.079  0.00  0.00    +0.000 A 
ATOM     30  C   UNL     1      38.503  -2.990  15.248  0.00  0.00    +0.000 A 
ATOM     31  C   UNL     1      38.516  -1.987  16.184  0.00  0.00    +0.000 A 
ATOM     32  C   UNL     1      37.854  -0.800  15.987  0.00  0.00    +0.000 A 
ENDBRANCH  26  27
ENDBRANCH   5  26
TORSDOF 8
ENDMDL
MODEL 5
REMARK VINA RESULT:      -7.9      2.002      5.461
REMARK  Name = 
REMARK  8 active torsions:
REMARK  status: ('A' for Active; 'I' for Inactive)
REMARK    1  A    between atoms: C_2  and  C_3
REMARK    2  A    between atoms: C_3  and  C_4
REMARK    3  A    between atoms: C_4  and  C_5
REMARK    4  A    between atoms: C_8  and  N_9
REMARK    5  A    between atoms: C_12  and  N_13
REMARK    6  A    between atoms: N_13  and  C_14
REMARK    7  A    between atoms: C_21  and  S_22
REMARK    8  A    between atoms: S_22  and  C_23
REMARK                            x       y       z     vdW  Elec       q    Type
REMARK                         _______ _______ _______ _____ _____    ______ ____
ROOT
ATOM      1  N   UNL     1      36.753   3.669  15.503  0.00  0.00    +0.000 N 
ATOM      2  C   UNL     1      37.816   4.315  16.222  0.00  0.00    +0.000 C 
ATOM      3  O   UNL     1      38.574   3.772  17.060  0.00  0.00    +0.000 OA
ATOM      4  C   UNL     1      37.870   5.710  15.813  0.00  0.00    +0.000 C 
ATOM      5  C   UNL     1      36.905   5.888  14.909  0.00  0.00    +0.000 C 
ATOM      6  C   UNL     1      36.172   4.656  14.669  0.00  0.00    +0.000 C 
ATOM      7  O   UNL     1      35.211   4.449  13.892  0.00  0.00    +0.000 OA
ENDROOT
BRANCH   1  11
ATOM      8  C   UNL     1      35.658  -0.341  16.051  0.00  0.00    +0.000 A 
ATOM      9  C   UNL     1      36.624   0.003  15.104  0.00  0.00    +0.000 A 
ATOM     10  C   UNL     1      36.984   1.308  14.906  0.00  0.00    +0.000 A 
ATOM     11  C   UNL     1      36.376   2.298  15.659  0.00  0.00    +0.000 A 
ATOM     12  C   UNL     1      35.434   1.947  16.577  0.00  0.00    +0.000 A 
ATOM     13  C   UNL     1      35.048   0.631  16.801  0.00  0.00    +0.000 A 
BRANCH   8  14
ATOM     14  C   UNL     1      35.359  -1.790  16.180  0.00  0.00    +0.000 C 
BRANCH  14  15
ATOM     15  C   UNL     1      36.022  -2.565  15.062  0.00  0.00    +0.000 C 
BRANCH  15  17
ATOM     16  C   UNL     1      33.984  -3.898  15.425  0.00  0.00    +0.000 C 
ATOM     17  C   UNL     1      35.403  -3.938  14.875  0.00  0.00    +0.000 C 
ENDBRANCH  15  17
ENDBRANCH  14  15
ENDBRANCH   8  14
ENDBRANCH   1  11
BRANCH   4  18
ATOM     18  N   UNL     1      38.751   6.757  16.240  0.00  0.00    +0.000 NA
BRANCH  18  19
ATOM     19  C   UNL     1      39.370   6.743  17.509  0.00  0.00    +0.000 A 
ATOM     20  C   UNL     1      38.703   6.933  18.700  0.00  0.00    +0.000 A 
ATOM     21  C   UNL     1      39.338   6.915  19.925  0.00  0.00    +0.000 A 
ATOM     22  C   UNL     1      40.692   6.698  19.936  0.00  0.00    +0.000 A 
ATOM     23  C   UNL     1      41.385   6.506  18.788  0.00  0.00    +0.000 A 
ATOM     24  C   UNL     1      40.739   6.526  17.569  0.00  0.00    +0.000 A 
ATOM     25  C   UNL     1      41.534   6.310  16.337  0.00  0.00    +0.000 C 
ENDBRANCH  18  19
ENDBRANCH   4  18
BRANCH   5  26
ATOM     26  S   UNL     1      36.534   7.429  14.080  0.00  0.00    +0.000 S 
BRANCH  26  27
ATOM     27  C   UNL     1      35.462   8.439  15.069  0.00  0.00    +0.000 A 
ATOM     28  C   UNL     1      34.090   8.403  14.987  0.00  0.00    +0.000 A 
ATOM     29  C   UNL     1      33.339   9.209  15.802  0.00  0.00    +0.000 A 
ATOM     30  C   UNL     1      33.941  10.049  16.699  0.00  0.00    +0.000 A 
ATOM     31  C   UNL     1      35.311  10.083  16.780  0.00  0.00    +0.000 A 
ATOM     32  C   UNL     1      36.105   9.296  15.983  0.00  0.00    +0.000 A 
ENDBRANCH  26  27
ENDBRANCH   5  26
TORSDOF 8
ENDMDL
MODEL 6
REMARK VINA RESULT:      -7.8      2.035      5.441
REMARK  Name = 
REMARK  8 active torsions:
REMARK  status: ('A' for Active; 'I' for Inactive)
REMARK    1  A    between atoms: C_2  and  C_3
REMARK    2  A    between atoms: C_3  and  C_4
REMARK    3  A    between atoms: C_4  and  C_5
REMARK    4  A    between atoms: C_8  and  N_9
REMARK    5  A    between atoms: C_12  and  N_13
REMARK    6  A    between atoms: N_13  and  C_14
REMARK    7  A    between atoms: C_21  and  S_22
REMARK    8  A    between atoms: S_22  and  C_23
REMARK                            x       y       z     vdW  Elec       q    Type
REMARK                         _______ _______ _______ _____ _____    ______ ____
ROOT
ATOM      1  N   UNL     1      37.026   3.552  15.821  0.00  0.00    +0.000 N 
ATOM      2  C   UNL     1      37.760   4.253  16.838  0.00  0.00    +0.000 C 
ATOM      3  O   UNL     1      38.108   3.787  17.949  0.00  0.00    +0.000 OA
ATOM      4  C   UNL     1      38.036   5.600  16.363  0.00  0.00    +0.000 C 
ATOM      5  C   UNL     1      37.505   5.700  15.143  0.00  0.00    +0.000 C 
ATOM      6  C   UNL     1      36.862   4.458  14.745  0.00  0.00    +0.000 C 
ATOM      7  O   UNL     1      36.265   4.188  13.677  0.00  0.00    +0.000 OA
ENDROOT
BRANCH   1  11
ATOM      8  C   UNL     1      35.623  -0.375  16.250  0.00  0.00    +0.000 A 
ATOM      9  C   UNL     1      36.777  -0.116  15.508  0.00  0.00    +0.000 A 
ATOM     10  C   UNL     1      37.241   1.162  15.350  0.00  0.00    +0.000 A 
ATOM     11  C   UNL     1      36.550   2.208  15.937  0.00  0.00    +0.000 A 
ATOM     12  C   UNL     1      35.425   1.939  16.655  0.00  0.00    +0.000 A 
ATOM     13  C   UNL     1      34.930   0.653  16.833  0.00  0.00    +0.000 A 
BRANCH   8  14
ATOM     14  C   UNL     1      35.225  -1.803  16.356  0.00  0.00    +0.000 C 
BRANCH  14  15
ATOM     15  C   UNL     1      36.381  -2.701  15.976  0.00  0.00    +0.000 C 
BRANCH  15  17
ATOM     16  C   UNL     1      37.313  -3.488  13.837  0.00  0.00    +0.000 C 
ATOM     17  C   UNL     1      36.083  -3.520  14.734  0.00  0.00    +0.000 C 
ENDBRANCH  15  17
ENDBRANCH  14  15
ENDBRANCH   8  14
ENDBRANCH   1  11
BRANCH   4  18
ATOM     18  N   UNL     1      38.736   6.673  17.007  0.00  0.00    +0.000 NA
BRANCH  18  19
ATOM     19  C   UNL     1      40.129   6.630  17.231  0.00  0.00    +0.000 A 
ATOM     20  C   UNL     1      41.076   6.636  16.231  0.00  0.00    +0.000 A 
ATOM     21  C   UNL     1      42.432   6.592  16.483  0.00  0.00    +0.000 A 
ATOM     22  C   UNL     1      42.834   6.538  17.793  0.00  0.00    +0.000 A 
ATOM     23  C   UNL     1      41.935   6.530  18.806  0.00  0.00    +0.000 A 
ATOM     24  C   UNL     1      40.581   6.575  18.541  0.00  0.00    +0.000 A 
ATOM     25  C   UNL     1      39.632   6.566  19.679  0.00  0.00    +0.000 C 
ENDBRANCH  18  19
ENDBRANCH   4  18
BRANCH   5  26
ATOM     26  S   UNL     1      37.560   7.155  14.105  0.00  0.00    +0.000 S 
BRANCH  26  27
ATOM     27  C   UNL     1      36.188   8.227  14.444  0.00  0.00    +0.000 A 
ATOM     28  C   UNL     1      36.317   9.569  14.717  0.00  0.00    +0.000 A 
ATOM     29  C   UNL     1      35.199  10.326  14.952  0.00  0.00    +0.000 A 
ATOM     30  C   UNL     1      33.954   9.759  14.918  0.00  0.00    +0.000 A 
ATOM     31  C   UNL     1      33.827   8.420  14.646  0.00  0.00    +0.000 A 
ATOM     32  C   UNL     1      34.917   7.621  14.405  0.00  0.00    +0.000 A 
ENDBRANCH  26  27
ENDBRANCH   5  26
TORSDOF 8
ENDMDL
MODEL 7
REMARK VINA RESULT:      -7.7      1.652      2.497
REMARK  Name = 
REMARK  8 active torsions:
REMARK  status: ('A' for Active; 'I' for Inactive)
REMARK    1  A    between atoms: C_2  and  C_3
REMARK    2  A    between atoms: C_3  and  C_4
REMARK    3  A    between atoms: C_4  and  C_5
REMARK    4  A    between atoms: C_8  and  N_9
REMARK    5  A    between atoms: C_12  and  N_13
REMARK    6  A    between atoms: N_13  and  C_14
REMARK    7  A    between atoms: C_21  and  S_22
REMARK    8  A    between atoms: S_22  and  C_23
REMARK                            x       y       z     vdW  Elec       q    Type
REMARK                         _______ _______ _______ _____ _____    ______ ____
ROOT
ATOM      1  N   UNL     1      36.731   3.582  15.688  0.00  0.00    +0.000 N 
ATOM      2  C   UNL     1      36.060   4.484  14.794  0.00  0.00    +0.000 C 
ATOM      3  O   UNL     1      35.035   4.224  14.118  0.00  0.00    +0.000 OA
ATOM      4  C   UNL     1      36.766   5.755  14.802  0.00  0.00    +0.000 C 
ATOM      5  C   UNL     1      37.792   5.625  15.646  0.00  0.00    +0.000 C 
ATOM      6  C   UNL     1      37.826   4.296  16.233  0.00  0.00    +0.000 C 
ATOM      7  O   UNL     1      38.640   3.821  17.060  0.00  0.00    +0.000 OA
ENDROOT
BRANCH   1  11
ATOM      8  C   UNL     1      35.596  -0.409  16.288  0.00  0.00    +0.000 A 
ATOM      9  C   UNL     1      34.912   0.622  16.933  0.00  0.00    +0.000 A 
ATOM     10  C   UNL     1      35.278   1.929  16.756  0.00  0.00    +0.000 A 
ATOM     11  C   UNL     1      36.344   2.225  15.924  0.00  0.00    +0.000 A 
ATOM     12  C   UNL     1      37.003   1.208  15.304  0.00  0.00    +0.000 A 
ATOM     13  C   UNL     1      36.655  -0.129  15.464  0.00  0.00    +0.000 A 
BRANCH   8  14
ATOM     14  C   UNL     1      35.101  -1.785  16.553  0.00  0.00    +0.000 C 
BRANCH  14  15
ATOM     15  C   UNL     1      36.234  -2.670  17.022  0.00  0.00    +0.000 C 
BRANCH  15  17
ATOM     16  C   UNL     1      38.334  -2.304  18.252  0.00  0.00    +0.000 C 
ATOM     17  C   UNL     1      36.818  -2.199  18.341  0.00  0.00    +0.000 C 
ENDBRANCH  15  17
ENDBRANCH  14  15
ENDBRANCH   8  14
ENDBRANCH   1  11
BRANCH   4  18
ATOM     18  N   UNL     1      36.487   6.963  14.083  0.00  0.00    +0.000 NA
BRANCH  18  19
ATOM     19  C   UNL     1      35.790   6.959  12.856  0.00  0.00    +0.000 A 
ATOM     20  C   UNL     1      36.368   6.682  11.636  0.00  0.00    +0.000 A 
ATOM     21  C   UNL     1      35.657   6.688  10.453  0.00  0.00    +0.000 A 
ATOM     22  C   UNL     1      34.320   6.986  10.515  0.00  0.00    +0.000 A 
ATOM     23  C   UNL     1      33.714   7.264  11.694  0.00  0.00    +0.000 A 
ATOM     24  C   UNL     1      34.434   7.255  12.870  0.00  0.00    +0.000 A 
ATOM     25  C   UNL     1      33.732   7.562  14.138  0.00  0.00    +0.000 C 
ENDBRANCH  18  19
ENDBRANCH   4  18
BRANCH   5  26
ATOM     26  S   UNL     1      38.985   6.901  16.029  0.00  0.00    +0.000 S 
BRANCH  26  27
ATOM     27  C   UNL     1      39.026   7.227  17.772  0.00  0.00    +0.000 A 
ATOM     28  C   UNL     1      38.153   8.078  18.410  0.00  0.00    +0.000 A 
ATOM     29  C   UNL     1      38.249   8.259  19.765  0.00  0.00    +0.000 A 
ATOM     30  C   UNL     1      39.204   7.601  20.492  0.00  0.00    +0.000 A 
ATOM     31  C   UNL     1      40.074   6.752  19.854  0.00  0.00    +0.000 A 
ATOM     32  C   UNL     1      40.019   6.540  18.498  0.00  0.00    +0.000 A 
ENDBRANCH  26  27
ENDBRANCH   5  26
TORSDOF 8
ENDMDL
MODEL 8
REMARK VINA RESULT:      -7.7     23.185     26.053
REMARK  Name = 
REMARK  8 active torsions:
REMARK  status: ('A' for Active; 'I' for Inactive)
REMARK    1  A    between atoms: C_2  and  C_3
REMARK    2  A    between atoms: C_3  and  C_4
REMARK    3  A    between atoms: C_4  and  C_5
REMARK    4  A    between atoms: C_8  and  N_9
REMARK    5  A    between atoms: C_12  and  N_13
REMARK    6  A    between atoms: N_13  and  C_14
REMARK    7  A    between atoms: C_21  and  S_22
REMARK    8  A    between atoms: S_22  and  C_23
REMARK                            x       y       z     vdW  Elec       q    Type
REMARK                         _______ _______ _______ _____ _____    ______ ____
ROOT
ATOM      1  N   UNL     1      15.334  -0.132  27.057  0.00  0.00    +0.000 N 
ATOM      2  C   UNL     1      14.016  -0.372  26.538  0.00  0.00    +0.000 C 
ATOM      3  O   UNL     1      13.735  -0.681  25.356  0.00  0.00    +0.000 OA
ATOM      4  C   UNL     1      13.055  -0.198  27.616  0.00  0.00    +0.000 C 
ATOM      5  C   UNL     1      13.751   0.124  28.709  0.00  0.00    +0.000 C 
ATOM      6  C   UNL     1      15.176   0.180  28.429  0.00  0.00    +0.000 C 
ATOM      7  O   UNL     1      16.121   0.447  29.208  0.00  0.00    +0.000 OA
ENDROOT
BRANCH   1  11
ATOM      8  C   UNL     1      18.825  -0.220  24.738  0.00  0.00    +0.000 A 
ATOM      9  C   UNL     1      18.217  -1.409  25.141  0.00  0.00    +0.000 A 
ATOM     10  C   UNL     1      17.084  -1.397  25.908  0.00  0.00    +0.000 A 
ATOM     11  C   UNL     1      16.537  -0.182  26.286  0.00  0.00    +0.000 A 
ATOM     12  C   UNL     1      17.143   0.969  25.886  0.00  0.00    +0.000 A 
ATOM     13  C   UNL     1      18.295   0.988  25.107  0.00  0.00    +0.000 A 
BRANCH   8  14
ATOM     14  C   UNL     1      20.045  -0.363  23.902  0.00  0.00    +0.000 C 
BRANCH  14  15
ATOM     15  C   UNL     1      20.028   0.643  22.772  0.00  0.00    +0.000 C 
BRANCH  15  17
ATOM     16  C   UNL     1      20.523  -1.399  21.488  0.00  0.00    +0.000 C 
ATOM     17  C   UNL     1      20.711   0.112  21.525  0.00  0.00    +0.000 C 
ENDBRANCH  15  17
ENDBRANCH  14  15
ENDBRANCH   8  14
ENDBRANCH   1  11
BRANCH   4  18
ATOM     18  N   UNL     1      11.628  -0.328  27.602  0.00  0.00    +0.000 NA
BRANCH  18  19
ATOM     19  C   UNL     1      10.814   0.451  26.751  0.00  0.00    +0.000 A 
ATOM     20  C   UNL     1      10.716   1.824  26.815  0.00  0.00    +0.000 A 
ATOM     21  C   UNL     1       9.909   2.557  25.968  0.00  0.00    +0.000 A 
ATOM     22  C   UNL     1       9.181   1.870  25.031  0.00  0.00    +0.000 A 
ATOM     23  C   UNL     1       9.249   0.520  24.935  0.00  0.00    +0.000 A 
ATOM     24  C   UNL     1      10.059  -0.201  25.787  0.00  0.00    +0.000 A 
ATOM     25  C   UNL     1      10.107  -1.676  25.647  0.00  0.00    +0.000 C 
ENDBRANCH  18  19
ENDBRANCH   4  18
BRANCH   5  26
ATOM     26  S   UNL     1      13.052   0.448  30.323  0.00  0.00    +0.000 S 
BRANCH  26  27
ATOM     27  C   UNL     1      13.618  -0.743  31.509  0.00  0.00    +0.000 A 
ATOM     28  C   UNL     1      13.035  -1.975  31.692  0.00  0.00    +0.000 A 
ATOM     29  C   UNL     1      13.549  -2.840  32.623  0.00  0.00    +0.000 A 
ATOM     30  C   UNL     1      14.639  -2.490  33.372  0.00  0.00    +0.000 A 
ATOM     31  C   UNL     1      15.221  -1.260  33.189  0.00  0.00    +0.000 A 
ATOM     32  C   UNL     1      14.740  -0.360  32.270  0.00  0.00    +0.000 A 
ENDBRANCH  26  27
ENDBRANCH   5  26
TORSDOF 8
ENDMDL
MODEL 9
REMARK VINA RESULT:      -7.7     23.387     26.679
REMARK  Name = 
REMARK  8 active torsions:
REMARK  status: ('A' for Active; 'I' for Inactive)
REMARK    1  A    between atoms: C_2  and  C_3
REMARK    2  A    between atoms: C_3  and  C_4
REMARK    3  A    between atoms: C_4  and  C_5
REMARK    4  A    between atoms: C_8  and  N_9
REMARK    5  A    between atoms: C_12  and  N_13
REMARK    6  A    between atoms: N_13  and  C_14
REMARK    7  A    between atoms: C_21  and  S_22
REMARK    8  A    between atoms: S_22  and  C_23
REMARK                            x       y       z     vdW  Elec       q    Type
REMARK                         _______ _______ _______ _____ _____    ______ ____
ROOT
ATOM      1  N   UNL     1      15.177  -0.145  27.137  0.00  0.00    +0.000 N 
ATOM      2  C   UNL     1      15.139   0.152  28.542  0.00  0.00    +0.000 C 
ATOM      3  O   UNL     1      16.124   0.457  29.257  0.00  0.00    +0.000 OA
ATOM      4  C   UNL     1      13.764   0.042  29.001  0.00  0.00    +0.000 C 
ATOM      5  C   UNL     1      13.026  -0.297  27.942  0.00  0.00    +0.000 C 
ATOM      6  C   UNL     1      13.845  -0.428  26.749  0.00  0.00    +0.000 C 
ATOM      7  O   UNL     1      13.496  -0.730  25.583  0.00  0.00    +0.000 OA
ENDROOT
BRANCH   1  11
ATOM      8  C   UNL     1      18.615  -0.147  24.737  0.00  0.00    +0.000 A 
ATOM      9  C   UNL     1      18.033  -1.351  25.135  0.00  0.00    +0.000 A 
ATOM     10  C   UNL     1      16.917  -1.367  25.928  0.00  0.00    +0.000 A 
ATOM     11  C   UNL     1      16.363  -0.166  26.337  0.00  0.00    +0.000 A 
ATOM     12  C   UNL     1      16.944   1.000  25.943  0.00  0.00    +0.000 A 
ATOM     13  C   UNL     1      18.077   1.047  25.138  0.00  0.00    +0.000 A 
BRANCH   8  14
ATOM     14  C   UNL     1      19.817  -0.260  23.871  0.00  0.00    +0.000 C 
BRANCH  14  15
ATOM     15  C   UNL     1      19.914  -1.652  23.286  0.00  0.00    +0.000 C 
BRANCH  15  17
ATOM     16  C   UNL     1      20.615  -0.295  21.354  0.00  0.00    +0.000 C 
ATOM     17  C   UNL     1      20.711  -1.673  21.995  0.00  0.00    +0.000 C 
ENDBRANCH  15  17
ENDBRANCH  14  15
ENDBRANCH   8  14
ENDBRANCH   1  11
BRANCH   4  18
ATOM     18  N   UNL     1      13.216   0.242  30.310  0.00  0.00    +0.000 NA
BRANCH  18  19
ATOM     19  C   UNL     1      13.432  -0.677  31.360  0.00  0.00    +0.000 A 
ATOM     20  C   UNL     1      12.918  -1.955  31.390  0.00  0.00    +0.000 A 
ATOM     21  C   UNL     1      13.147  -2.829  32.433  0.00  0.00    +0.000 A 
ATOM     22  C   UNL     1      13.920  -2.388  33.476  0.00  0.00    +0.000 A 
ATOM     23  C   UNL     1      14.445  -1.139  33.485  0.00  0.00    +0.000 A 
ATOM     24  C   UNL     1      14.209  -0.273  32.436  0.00  0.00    +0.000 A 
ATOM     25  C   UNL     1      14.802   1.083  32.485  0.00  0.00    +0.000 C 
ENDBRANCH  18  19
ENDBRANCH   4  18
BRANCH   5  26
ATOM     26  S   UNL     1      11.257  -0.562  27.955  0.00  0.00    +0.000 S 
BRANCH  26  27
ATOM     27  C   UNL     1      10.449   0.500  26.786  0.00  0.00    +0.000 A 
ATOM     28  C   UNL     1      10.660   1.857  26.715  0.00  0.00    +0.000 A 
ATOM     29  C   UNL     1      10.003   2.599  25.767  0.00  0.00    +0.000 A 
ATOM     30  C   UNL     1       9.139   2.001  24.890  0.00  0.00    +0.000 A 
ATOM     31  C   UNL     1       8.930   0.646  24.962  0.00  0.00    +0.000 A 
ATOM     32  C   UNL     1       9.564  -0.137  25.894  0.00  0.00    +0.000 A 
ENDBRANCH  26  27
ENDBRANCH   5  26
TORSDOF 8
ENDMDL
MODEL 10
REMARK VINA RESULT:      -7.7      5.519      8.574
REMARK  Name = 
REMARK  8 active torsions:
REMARK  status: ('A' for Active; 'I' for Inactive)
REMARK    1  A    between atoms: C_2  and  C_3
REMARK    2  A    between atoms: C_3  and  C_4
REMARK    3  A    between atoms: C_4  and  C_5
REMARK    4  A    between atoms: C_8  and  N_9
REMARK    5  A    between atoms: C_12  and  N_13
REMARK    6  A    between atoms: N_13  and  C_14
REMARK    7  A    between atoms: C_21  and  S_22
REMARK    8  A    between atoms: S_22  and  C_23
REMARK                            x       y       z     vdW  Elec       q    Type
REMARK                         _______ _______ _______ _____ _____    ______ ____
ROOT
ATOM      1  N   UNL     1      40.675  -1.931  14.227  0.00  0.00    +0.000 N 
ATOM      2  C   UNL     1      39.920  -2.717  15.162  0.00  0.00    +0.000 C 
ATOM      3  O   UNL     1      40.379  -3.612  15.912  0.00  0.00    +0.000 OA
ATOM      4  C   UNL     1      38.528  -2.301  15.098  0.00  0.00    +0.000 C 
ATOM      5  C   UNL     1      38.453  -1.329  14.186  0.00  0.00    +0.000 C 
ATOM      6  C   UNL     1      39.757  -1.049  13.606  0.00  0.00    +0.000 C 
ATOM      7  O   UNL     1      40.064  -0.209  12.729  0.00  0.00    +0.000 OA
ENDROOT
BRANCH   1  11
ATOM      8  C   UNL     1      44.794  -2.255  13.514  0.00  0.00    +0.000 A 
ATOM      9  C   UNL     1      43.890  -3.029  12.786  0.00  0.00    +0.000 A 
ATOM     10  C   UNL     1      42.544  -2.942  13.015  0.00  0.00    +0.000 A 
ATOM     11  C   UNL     1      42.078  -2.072  13.986  0.00  0.00    +0.000 A 
ATOM     12  C   UNL     1      42.973  -1.326  14.690  0.00  0.00    +0.000 A 
ATOM     13  C   UNL     1      44.345  -1.392  14.480  0.00  0.00    +0.000 A 
BRANCH   8  14
ATOM     14  C   UNL     1      46.228  -2.431  13.169  0.00  0.00    +0.000 C 
BRANCH  14  15
ATOM     15  C   UNL     1      47.018  -2.836  14.394  0.00  0.00    +0.000 C 
BRANCH  15  17
ATOM     16  C   UNL     1      46.522  -4.442  16.193  0.00  0.00    +0.000 C 
ATOM     17  C   UNL     1      46.859  -4.311  14.714  0.00  0.00    +0.000 C 
ENDBRANCH  15  17
ENDBRANCH  14  15
ENDBRANCH   8  14
ENDBRANCH   1  11
BRANCH   4  18
ATOM     18  N   UNL     1      37.393  -2.780  15.831  0.00  0.00    +0.000 NA
BRANCH  18  19
ATOM     19  C   UNL     1      36.786  -2.016  16.851  0.00  0.00    +0.000 A 
ATOM     20  C   UNL     1      37.477  -1.232  17.750  0.00  0.00    +0.000 A 
ATOM     21  C   UNL     1      36.853  -0.498  18.737  0.00  0.00    +0.000 A 
ATOM     22  C   UNL     1      35.485  -0.566  18.813  0.00  0.00    +0.000 A 
ATOM     23  C   UNL     1      34.769  -1.324  17.949  0.00  0.00    +0.000 A 
ATOM     24  C   UNL     1      35.404  -2.054  16.966  0.00  0.00    +0.000 A 
ATOM     25  C   UNL     1      34.582  -2.870  16.041  0.00  0.00    +0.000 C 
ENDBRANCH  18  19
ENDBRANCH   4  18
BRANCH   5  26
ATOM     26  S   UNL     1      36.961  -0.463  13.715  0.00  0.00    +0.000 S 
BRANCH  26  27
ATOM     27  C   UNL     1      36.659   0.911  14.796  0.00  0.00    +0.000 A 
ATOM     28  C   UNL     1      35.454   1.144  15.416  0.00  0.00    +0.000 A 
ATOM     29  C   UNL     1      35.315   2.225  16.248  0.00  0.00    +0.000 A 
ATOM     30  C   UNL     1      36.365   3.075  16.469  0.00  0.00    +0.000 A 
ATOM     31  C   UNL     1      37.567   2.840  15.849  0.00  0.00    +0.000 A 
ATOM     32  C   UNL     1      37.754   1.773  15.006  0.00  0.00    +0.000 A 
ENDBRANCH  26  27
ENDBRANCH   5  26
TORSDOF 8
ENDMDL
