MODEL 1
REMARK VINA RESULT:      -7.4      0.000      0.000
REMARK  Name = 
REMARK  6 active torsions:
REMARK  status: ('A' for Active; 'I' for Inactive)
REMARK    1  A    between atoms: C_2  and  O_3
REMARK    2  A    between atoms: O_3  and  C_4
REMARK    3  A    between atoms: C_6  and  C_7
REMARK    4  A    between atoms: N_14  and  C_15
REMARK    5  A    between atoms: C_23  and  O_24
REMARK    6  A    between atoms: C_26  and  O_27
REMARK                            x       y       z     vdW  Elec       q    Type
REMARK                         _______ _______ _______ _____ _____    ______ ____
ROOT
ATOM      1  C   UNL     1      38.526  -1.414  13.984  0.00  0.00    +0.000 A 
ATOM      2  N   UNL     1      37.558  -2.218  14.454  0.00  0.00    +0.000 NA
ATOM      3  C   UNL     1      36.543  -1.740  15.232  0.00  0.00    +0.000 A 
ATOM      4  C   UNL     1      36.526  -0.405  15.532  0.00  0.00    +0.000 A 
ATOM      5  C   UNL     1      35.407  -0.217  16.317  0.00  0.00    +0.000 A 
ATOM      6  C   UNL     1      34.984   1.111  16.885  0.00  0.00    +0.000 C 
ATOM      7  N   UNL     1      34.802  -1.406  16.463  0.00  0.00    +0.000 NA
ATOM      8  N   UNL     1      35.485  -2.325  15.809  0.00  0.00    +0.000 N 
ATOM      9  C   UNL     1      37.522   0.425  15.048  0.00  0.00    +0.000 A 
ATOM     10  C   UNL     1      37.516   1.758  15.341  0.00  0.00    +0.000 A 
ATOM     11  C   UNL     1      38.511   2.584  14.858  0.00  0.00    +0.000 A 
ATOM     12  C   UNL     1      39.542   2.115  14.070  0.00  0.00    +0.000 A 
ATOM     13  C   UNL     1      39.551   0.768  13.774  0.00  0.00    +0.000 A 
ATOM     14  C   UNL     1      38.554  -0.061  14.257  0.00  0.00    +0.000 A 
ENDROOT
BRANCH   1  17
ATOM     15  C   UNL     1      40.530  -2.760  11.121  0.00  0.00    +0.000 A 
ATOM     16  C   UNL     1      39.453  -2.176  11.796  0.00  0.00    +0.000 A 
ATOM     17  C   UNL     1      39.571  -2.007  13.160  0.00  0.00    +0.000 A 
ATOM     18  C   UNL     1      40.725  -2.407  13.811  0.00  0.00    +0.000 A 
ATOM     19  C   UNL     1      41.781  -2.980  13.157  0.00  0.00    +0.000 A 
ATOM     20  C   UNL     1      41.676  -3.155  11.795  0.00  0.00    +0.000 A 
ATOM     21  O   UNL     1      42.753  -3.734  11.143  0.00  0.00    +0.000 OA
BRANCH  15  22
ATOM     22  O   UNL     1      40.510  -2.973   9.754  0.00  0.00    +0.000 OA
BRANCH  22  24
ATOM     23  C   UNL     1      40.749  -2.540   7.430  0.00  0.00    +0.000 C 
ATOM     24  C   UNL     1      40.623  -1.937   8.813  0.00  0.00    +0.000 C 
ENDBRANCH  22  24
ENDBRANCH  15  22
ENDBRANCH   1  17
BRANCH   8  25
ATOM     25  C   UNL     1      35.166  -3.730  15.717  0.00  0.00    +0.000 A 
ATOM     26  C   UNL     1      35.938  -4.688  16.306  0.00  0.00    +0.000 A 
ATOM     27  C   UNL     1      35.577  -6.016  16.180  0.00  0.00    +0.000 A 
ATOM     28  C   UNL     1      34.446  -6.408  15.469  0.00  0.00    +0.000 A 
ATOM     29  C   UNL     1      33.661  -5.420  14.870  0.00  0.00    +0.000 A 
ATOM     30  C   UNL     1      34.043  -4.106  15.011  0.00  0.00    +0.000 A 
ENDBRANCH   8  25
BRANCH  11  31
ATOM     31  O   UNL     1      38.511   3.953  15.153  0.00  0.00    +0.000 OA
ATOM     32  C   UNL     1      38.056   4.374  16.426  0.00  0.00    +0.000 C 
ENDBRANCH  11  31
BRANCH  12  33
ATOM     33  O   UNL     1      40.537   2.978  13.596  0.00  0.00    +0.000 OA
ATOM     34  C   UNL     1      40.560   3.423  12.258  0.00  0.00    +0.000 C 
ENDBRANCH  12  33
TORSDOF 6
ENDMDL
MODEL 2
REMARK VINA RESULT:      -7.4      0.933      2.121
REMARK  Name = 
REMARK  6 active torsions:
REMARK  status: ('A' for Active; 'I' for Inactive)
REMARK    1  A    between atoms: C_2  and  O_3
REMARK    2  A    between atoms: O_3  and  C_4
REMARK    3  A    between atoms: C_6  and  C_7
REMARK    4  A    between atoms: N_14  and  C_15
REMARK    5  A    between atoms: C_23  and  O_24
REMARK    6  A    between atoms: C_26  and  O_27
REMARK                            x       y       z     vdW  Elec       q    Type
REMARK                         _______ _______ _______ _____ _____    ______ ____
ROOT
ATOM      1  C   UNL     1      38.561  -1.135  14.118  0.00  0.00    +0.000 A 
ATOM      2  N   UNL     1      37.611  -1.974  14.562  0.00  0.00    +0.000 NA
ATOM      3  C   UNL     1      36.560  -1.534  15.314  0.00  0.00    +0.000 A 
ATOM      4  C   UNL     1      36.488  -0.201  15.616  0.00  0.00    +0.000 A 
ATOM      5  C   UNL     1      35.343  -0.055  16.372  0.00  0.00    +0.000 A 
ATOM      6  C   UNL     1      34.859   1.255  16.931  0.00  0.00    +0.000 C 
ATOM      7  N   UNL     1      34.778  -1.265  16.501  0.00  0.00    +0.000 NA
ATOM      8  N   UNL     1      35.510  -2.158  15.864  0.00  0.00    +0.000 N 
ATOM      9  C   UNL     1      37.466   0.665  15.158  0.00  0.00    +0.000 A 
ATOM     10  C   UNL     1      37.405   1.996  15.452  0.00  0.00    +0.000 A 
ATOM     11  C   UNL     1      38.381   2.858  14.995  0.00  0.00    +0.000 A 
ATOM     12  C   UNL     1      39.448   2.428  14.234  0.00  0.00    +0.000 A 
ATOM     13  C   UNL     1      39.513   1.082  13.936  0.00  0.00    +0.000 A 
ATOM     14  C   UNL     1      38.534   0.217  14.393  0.00  0.00    +0.000 A 
ENDROOT
BRANCH   1  17
ATOM     15  C   UNL     1      41.866  -2.456  12.951  0.00  0.00    +0.000 A 
ATOM     16  C   UNL     1      40.912  -1.922  13.823  0.00  0.00    +0.000 A 
ATOM     17  C   UNL     1      39.648  -1.689  13.320  0.00  0.00    +0.000 A 
ATOM     18  C   UNL     1      39.362  -1.984  11.999  0.00  0.00    +0.000 A 
ATOM     19  C   UNL     1      40.291  -2.506  11.141  0.00  0.00    +0.000 A 
ATOM     20  C   UNL     1      41.557  -2.743  11.630  0.00  0.00    +0.000 A 
ATOM     21  O   UNL     1      42.488  -3.274  10.752  0.00  0.00    +0.000 OA
BRANCH  15  22
ATOM     22  O   UNL     1      43.160  -2.725  13.358  0.00  0.00    +0.000 OA
BRANCH  22  24
ATOM     23  C   UNL     1      44.537  -1.675  14.986  0.00  0.00    +0.000 C 
ATOM     24  C   UNL     1      44.136  -1.728  13.526  0.00  0.00    +0.000 C 
ENDBRANCH  22  24
ENDBRANCH  15  22
ENDBRANCH   1  17
BRANCH   8  25
ATOM     25  C   UNL     1      35.244  -3.573  15.763  0.00  0.00    +0.000 A 
ATOM     26  C   UNL     1      36.059  -4.506  16.333  0.00  0.00    +0.000 A 
ATOM     27  C   UNL     1      35.747  -5.846  16.199  0.00  0.00    +0.000 A 
ATOM     28  C   UNL     1      34.624  -6.275  15.498  0.00  0.00    +0.000 A 
ATOM     29  C   UNL     1      33.794  -5.312  14.917  0.00  0.00    +0.000 A 
ATOM     30  C   UNL     1      34.127  -3.986  15.066  0.00  0.00    +0.000 A 
ENDBRANCH   8  25
BRANCH  11  31
ATOM     31  O   UNL     1      38.325   4.225  15.292  0.00  0.00    +0.000 OA
ATOM     32  C   UNL     1      38.554   4.642  16.626  0.00  0.00    +0.000 C 
ENDBRANCH  11  31
BRANCH  12  33
ATOM     33  O   UNL     1      40.423   3.326  13.786  0.00  0.00    +0.000 OA
ATOM     34  C   UNL     1      40.519   3.706  12.431  0.00  0.00    +0.000 C 
ENDBRANCH  12  33
TORSDOF 6
ENDMDL
MODEL 3
REMARK VINA RESULT:      -7.4      3.507      6.438
REMARK  Name = 
REMARK  6 active torsions:
REMARK  status: ('A' for Active; 'I' for Inactive)
REMARK    1  A    between atoms: C_2  and  O_3
REMARK    2  A    between atoms: O_3  and  C_4
REMARK    3  A    between atoms: C_6  and  C_7
REMARK    4  A    between atoms: N_14  and  C_15
REMARK    5  A    between atoms: C_23  and  O_24
REMARK    6  A    between atoms: C_26  and  O_27
REMARK                            x       y       z     vdW  Elec       q    Type
REMARK                         _______ _______ _______ _____ _____    ______ ____
ROOT
ATOM      1  C   UNL     1      38.761   0.621  14.388  0.00  0.00    +0.000 A 
ATOM      2  N   UNL     1      39.808  -0.203  14.215  0.00  0.00    +0.000 NA
ATOM      3  C   UNL     1      39.908  -1.385  14.890  0.00  0.00    +0.000 A 
ATOM      4  C   UNL     1      38.909  -1.725  15.760  0.00  0.00    +0.000 A 
ATOM      5  C   UNL     1      39.276  -2.948  16.285  0.00  0.00    +0.000 A 
ATOM      6  C   UNL     1      38.466  -3.713  17.296  0.00  0.00    +0.000 C 
ATOM      7  N   UNL     1      40.448  -3.297  15.733  0.00  0.00    +0.000 NA
ATOM      8  N   UNL     1      40.831  -2.357  14.891  0.00  0.00    +0.000 N 
ATOM      9  C   UNL     1      37.830  -0.878  15.938  0.00  0.00    +0.000 A 
ATOM     10  C   UNL     1      36.827  -1.206  16.804  0.00  0.00    +0.000 A 
ATOM     11  C   UNL     1      35.751  -0.359  16.981  0.00  0.00    +0.000 A 
ATOM     12  C   UNL     1      35.636   0.839  16.306  0.00  0.00    +0.000 A 
ATOM     13  C   UNL     1      36.649   1.173  15.431  0.00  0.00    +0.000 A 
ATOM     14  C   UNL     1      37.727   0.325  15.253  0.00  0.00    +0.000 A 
ENDROOT
BRANCH   1  17
ATOM     15  C   UNL     1      38.077   3.263  11.823  0.00  0.00    +0.000 A 
ATOM     16  C   UNL     1      38.019   2.018  12.456  0.00  0.00    +0.000 A 
ATOM     17  C   UNL     1      38.733   1.864  13.627  0.00  0.00    +0.000 A 
ATOM     18  C   UNL     1      39.471   2.920  14.133  0.00  0.00    +0.000 A 
ATOM     19  C   UNL     1      39.532   4.140  13.517  0.00  0.00    +0.000 A 
ATOM     20  C   UNL     1      38.823   4.307  12.348  0.00  0.00    +0.000 A 
ATOM     21  O   UNL     1      38.892   5.548  11.734  0.00  0.00    +0.000 OA
BRANCH  15  22
ATOM     22  O   UNL     1      37.397   3.518  10.645  0.00  0.00    +0.000 OA
BRANCH  22  24
ATOM     23  C   UNL     1      36.598   2.022   8.980  0.00  0.00    +0.000 C 
ATOM     24  C   UNL     1      37.734   2.922   9.418  0.00  0.00    +0.000 C 
ENDBRANCH  22  24
ENDBRANCH  15  22
ENDBRANCH   1  17
BRANCH   8  25
ATOM     25  C   UNL     1      42.036  -2.353  14.097  0.00  0.00    +0.000 A 
ATOM     26  C   UNL     1      42.133  -3.045  12.925  0.00  0.00    +0.000 A 
ATOM     27  C   UNL     1      43.316  -2.999  12.211  0.00  0.00    +0.000 A 
ATOM     28  C   UNL     1      44.415  -2.267  12.652  0.00  0.00    +0.000 A 
ATOM     29  C   UNL     1      44.306  -1.560  13.853  0.00  0.00    +0.000 A 
ATOM     30  C   UNL     1      43.118  -1.623  14.543  0.00  0.00    +0.000 A 
ENDBRANCH   8  25
BRANCH  11  31
ATOM     31  O   UNL     1      34.718  -0.689  17.867  0.00  0.00    +0.000 OA
ATOM     32  C   UNL     1      33.771  -1.665  17.473  0.00  0.00    +0.000 C 
ENDBRANCH  11  31
BRANCH  12  33
ATOM     33  O   UNL     1      34.533   1.677  16.507  0.00  0.00    +0.000 OA
ATOM     34  C   UNL     1      34.419   2.925  15.860  0.00  0.00    +0.000 C 
ENDBRANCH  12  33
TORSDOF 6
ENDMDL
MODEL 4
REMARK VINA RESULT:      -7.4     28.542     32.127
REMARK  Name = 
REMARK  6 active torsions:
REMARK  status: ('A' for Active; 'I' for Inactive)
REMARK    1  A    between atoms: C_2  and  O_3
REMARK    2  A    between atoms: O_3  and  C_4
REMARK    3  A    between atoms: C_6  and  C_7
REMARK    4  A    between atoms: N_14  and  C_15
REMARK    5  A    between atoms: C_23  and  O_24
REMARK    6  A    between atoms: C_26  and  O_27
REMARK                            x       y       z     vdW  Elec       q    Type
REMARK                         _______ _______ _______ _____ _____    ______ ____
ROOT
ATOM      1  C   UNL     1      26.281  15.264  38.319  0.00  0.00    +0.000 A 
ATOM      2  N   UNL     1      26.594  14.193  39.068  0.00  0.00    +0.000 NA
ATOM      3  C   UNL     1      25.988  13.955  40.268  0.00  0.00    +0.000 A 
ATOM      4  C   UNL     1      25.040  14.839  40.705  0.00  0.00    +0.000 A 
ATOM      5  C   UNL     1      24.612  14.349  41.922  0.00  0.00    +0.000 A 
ATOM      6  C   UNL     1      23.561  15.005  42.776  0.00  0.00    +0.000 C 
ATOM      7  N   UNL     1      25.293  13.221  42.174  0.00  0.00    +0.000 NA
ATOM      8  N   UNL     1      26.124  12.981  41.178  0.00  0.00    +0.000 N 
ATOM      9  C   UNL     1      24.716  15.942  39.935  0.00  0.00    +0.000 A 
ATOM     10  C   UNL     1      23.771  16.830  40.360  0.00  0.00    +0.000 A 
ATOM     11  C   UNL     1      23.450  17.931  39.591  0.00  0.00    +0.000 A 
ATOM     12  C   UNL     1      24.053  18.184  38.376  0.00  0.00    +0.000 A 
ATOM     13  C   UNL     1      25.009  17.287  37.944  0.00  0.00    +0.000 A 
ATOM     14  C   UNL     1      25.332  16.184  38.715  0.00  0.00    +0.000 A 
ENDROOT
BRANCH   1  17
ATOM     15  C   UNL     1      27.222  15.271  34.694  0.00  0.00    +0.000 A 
ATOM     16  C   UNL     1      26.451  15.043  35.839  0.00  0.00    +0.000 A 
ATOM     17  C   UNL     1      26.977  15.442  37.051  0.00  0.00    +0.000 A 
ATOM     18  C   UNL     1      28.222  16.044  37.103  0.00  0.00    +0.000 A 
ATOM     19  C   UNL     1      28.980  16.268  35.987  0.00  0.00    +0.000 A 
ATOM     20  C   UNL     1      28.467  15.875  34.770  0.00  0.00    +0.000 A 
ATOM     21  O   UNL     1      29.244  16.110  33.647  0.00  0.00    +0.000 OA
BRANCH  15  22
ATOM     22  O   UNL     1      26.784  14.908  33.433  0.00  0.00    +0.000 OA
BRANCH  22  24
ATOM     23  C   UNL     1      24.801  15.906  32.586  0.00  0.00    +0.000 C 
ATOM     24  C   UNL     1      25.437  14.646  33.132  0.00  0.00    +0.000 C 
ENDBRANCH  22  24
ENDBRANCH  15  22
ENDBRANCH   1  17
BRANCH   8  25
ATOM     25  C   UNL     1      27.033  11.866  41.067  0.00  0.00    +0.000 A 
ATOM     26  C   UNL     1      28.372  12.040  40.876  0.00  0.00    +0.000 A 
ATOM     27  C   UNL     1      29.189  10.929  40.778  0.00  0.00    +0.000 A 
ATOM     28  C   UNL     1      28.686   9.634  40.867  0.00  0.00    +0.000 A 
ATOM     29  C   UNL     1      27.312   9.466  41.063  0.00  0.00    +0.000 A 
ATOM     30  C   UNL     1      26.523  10.588  41.158  0.00  0.00    +0.000 A 
ENDBRANCH   8  25
BRANCH  11  31
ATOM     31  O   UNL     1      22.481  18.846  40.021  0.00  0.00    +0.000 OA
ATOM     32  C   UNL     1      21.963  18.723  41.332  0.00  0.00    +0.000 C 
ENDBRANCH  11  31
BRANCH  12  33
ATOM     33  O   UNL     1      23.706  19.308  37.619  0.00  0.00    +0.000 OA
ATOM     34  C   UNL     1      24.135  19.469  36.285  0.00  0.00    +0.000 C 
ENDBRANCH  12  33
TORSDOF 6
ENDMDL
MODEL 5
REMARK VINA RESULT:      -7.2      2.804      6.373
REMARK  Name = 
REMARK  6 active torsions:
REMARK  status: ('A' for Active; 'I' for Inactive)
REMARK    1  A    between atoms: C_2  and  O_3
REMARK    2  A    between atoms: O_3  and  C_4
REMARK    3  A    between atoms: C_6  and  C_7
REMARK    4  A    between atoms: N_14  and  C_15
REMARK    5  A    between atoms: C_23  and  O_24
REMARK    6  A    between atoms: C_26  and  O_27
REMARK                            x       y       z     vdW  Elec       q    Type
REMARK                         _______ _______ _______ _____ _____    ______ ____
ROOT
ATOM      1  C   UNL     1      38.098  -1.909  14.424  0.00  0.00    +0.000 A 
ATOM      2  N   UNL     1      39.002  -2.070  13.443  0.00  0.00    +0.000 NA
ATOM      3  C   UNL     1      39.620  -1.004  12.857  0.00  0.00    +0.000 A 
ATOM      4  C   UNL     1      39.299   0.254  13.289  0.00  0.00    +0.000 A 
ATOM      5  C   UNL     1      40.066   1.113  12.528  0.00  0.00    +0.000 A 
ATOM      6  C   UNL     1      40.042   2.612  12.660  0.00  0.00    +0.000 C 
ATOM      7  N   UNL     1      40.802   0.371  11.686  0.00  0.00    +0.000 NA
ATOM      8  N   UNL     1      40.535  -0.905  11.882  0.00  0.00    +0.000 N 
ATOM      9  C   UNL     1      38.369   0.421  14.300  0.00  0.00    +0.000 A 
ATOM     10  C   UNL     1      38.041   1.671  14.740  0.00  0.00    +0.000 A 
ATOM     11  C   UNL     1      37.111   1.835  15.748  0.00  0.00    +0.000 A 
ATOM     12  C   UNL     1      36.480   0.767  16.350  0.00  0.00    +0.000 A 
ATOM     13  C   UNL     1      36.809  -0.497  15.906  0.00  0.00    +0.000 A 
ATOM     14  C   UNL     1      37.740  -0.663  14.896  0.00  0.00    +0.000 A 
ENDROOT
BRANCH   1  17
ATOM     15  C   UNL     1      35.876  -4.845  15.111  0.00  0.00    +0.000 A 
ATOM     16  C   UNL     1      36.364  -3.705  14.465  0.00  0.00    +0.000 A 
ATOM     17  C   UNL     1      37.486  -3.102  14.996  0.00  0.00    +0.000 A 
ATOM     18  C   UNL     1      38.087  -3.629  16.126  0.00  0.00    +0.000 A 
ATOM     19  C   UNL     1      37.614  -4.743  16.762  0.00  0.00    +0.000 A 
ATOM     20  C   UNL     1      36.494  -5.354  16.242  0.00  0.00    +0.000 A 
ATOM     21  O   UNL     1      36.026  -6.484  16.895  0.00  0.00    +0.000 OA
BRANCH  15  22
ATOM     22  O   UNL     1      34.758  -5.521  14.657  0.00  0.00    +0.000 OA
BRANCH  22  24
ATOM     23  C   UNL     1      32.815  -4.372  15.401  0.00  0.00    +0.000 C 
ATOM     24  C   UNL     1      33.597  -4.871  14.204  0.00  0.00    +0.000 C 
ENDBRANCH  22  24
ENDBRANCH  15  22
ENDBRANCH   1  17
BRANCH   8  25
ATOM     25  C   UNL     1      41.116  -2.023  11.179  0.00  0.00    +0.000 A 
ATOM     26  C   UNL     1      42.251  -2.641  11.615  0.00  0.00    +0.000 A 
ATOM     27  C   UNL     1      42.757  -3.707  10.895  0.00  0.00    +0.000 A 
ATOM     28  C   UNL     1      42.142  -4.172   9.736  0.00  0.00    +0.000 A 
ATOM     29  C   UNL     1      40.979  -3.533   9.297  0.00  0.00    +0.000 A 
ATOM     30  C   UNL     1      40.498  -2.475  10.032  0.00  0.00    +0.000 A 
ENDBRANCH   8  25
BRANCH  11  31
ATOM     31  O   UNL     1      36.770   3.114  16.204  0.00  0.00    +0.000 OA
ATOM     32  C   UNL     1      37.495   4.227  15.714  0.00  0.00    +0.000 C 
ENDBRANCH  11  31
BRANCH  12  33
ATOM     33  O   UNL     1      35.541   0.966  17.369  0.00  0.00    +0.000 OA
ATOM     34  C   UNL     1      35.534   0.178  18.539  0.00  0.00    +0.000 C 
ENDBRANCH  12  33
TORSDOF 6
ENDMDL
MODEL 6
REMARK VINA RESULT:      -7.1      3.108      6.654
REMARK  Name = 
REMARK  6 active torsions:
REMARK  status: ('A' for Active; 'I' for Inactive)
REMARK    1  A    between atoms: C_2  and  O_3
REMARK    2  A    between atoms: O_3  and  C_4
REMARK    3  A    between atoms: C_6  and  C_7
REMARK    4  A    between atoms: N_14  and  C_15
REMARK    5  A    between atoms: C_23  and  O_24
REMARK    6  A    between atoms: C_26  and  O_27
REMARK                            x       y       z     vdW  Elec       q    Type
REMARK                         _______ _______ _______ _____ _____    ______ ____
ROOT
ATOM      1  C   UNL     1      39.345  -1.514  14.886  0.00  0.00    +0.000 A 
ATOM      2  N   UNL     1      40.594  -1.676  14.421  0.00  0.00    +0.000 NA
ATOM      3  C   UNL     1      41.311  -0.632  13.911  0.00  0.00    +0.000 A 
ATOM      4  C   UNL     1      40.728   0.605  13.880  0.00  0.00    +0.000 A 
ATOM      5  C   UNL     1      41.671   1.445  13.324  0.00  0.00    +0.000 A 
ATOM      6  C   UNL     1      41.462   2.917  13.093  0.00  0.00    +0.000 C 
ATOM      7  N   UNL     1      42.759   0.712  13.044  0.00  0.00    +0.000 NA
ATOM      8  N   UNL     1      42.545  -0.540  13.397  0.00  0.00    +0.000 N 
ATOM      9  C   UNL     1      39.440   0.774  14.360  0.00  0.00    +0.000 A 
ATOM     10  C   UNL     1      38.848   2.003  14.335  0.00  0.00    +0.000 A 
ATOM     11  C   UNL     1      37.563   2.170  14.814  0.00  0.00    +0.000 A 
ATOM     12  C   UNL     1      36.828   1.124  15.332  0.00  0.00    +0.000 A 
ATOM     13  C   UNL     1      37.424  -0.119  15.358  0.00  0.00    +0.000 A 
ATOM     14  C   UNL     1      38.711  -0.287  14.878  0.00  0.00    +0.000 A 
ENDROOT
BRANCH   1  17
ATOM     15  C   UNL     1      36.935  -4.324  15.454  0.00  0.00    +0.000 A 
ATOM     16  C   UNL     1      37.503  -3.199  14.849  0.00  0.00    +0.000 A 
ATOM     17  C   UNL     1      38.651  -2.682  15.414  0.00  0.00    +0.000 A 
ATOM     18  C   UNL     1      39.200  -3.277  16.536  0.00  0.00    +0.000 A 
ATOM     19  C   UNL     1      38.649  -4.377  17.133  0.00  0.00    +0.000 A 
ATOM     20  C   UNL     1      37.502  -4.903  16.579  0.00  0.00    +0.000 A 
ATOM     21  O   UNL     1      36.954  -6.019  17.191  0.00  0.00    +0.000 OA
BRANCH  15  22
ATOM     22  O   UNL     1      35.785  -4.917  14.964  0.00  0.00    +0.000 OA
BRANCH  22  24
ATOM     23  C   UNL     1      33.621  -4.895  13.982  0.00  0.00    +0.000 C 
ATOM     24  C   UNL     1      34.514  -4.327  15.065  0.00  0.00    +0.000 C 
ENDBRANCH  22  24
ENDBRANCH  15  22
ENDBRANCH   1  17
BRANCH   8  25
ATOM     25  C   UNL     1      43.468  -1.641  13.263  0.00  0.00    +0.000 A 
ATOM     26  C   UNL     1      44.510  -1.822  14.125  0.00  0.00    +0.000 A 
ATOM     27  C   UNL     1      45.358  -2.898  13.941  0.00  0.00    +0.000 A 
ATOM     28  C   UNL     1      45.182  -3.806  12.900  0.00  0.00    +0.000 A 
ATOM     29  C   UNL     1      44.111  -3.612  12.022  0.00  0.00    +0.000 A 
ATOM     30  C   UNL     1      43.283  -2.534  12.228  0.00  0.00    +0.000 A 
ENDBRANCH   8  25
BRANCH  11  31
ATOM     31  O   UNL     1      36.949   3.428  14.791  0.00  0.00    +0.000 OA
ATOM     32  C   UNL     1      36.525   3.956  13.548  0.00  0.00    +0.000 C 
ENDBRANCH  11  31
BRANCH  12  33
ATOM     33  O   UNL     1      35.527   1.325  15.809  0.00  0.00    +0.000 OA
ATOM     34  C   UNL     1      35.189   1.108  17.161  0.00  0.00    +0.000 C 
ENDBRANCH  12  33
TORSDOF 6
ENDMDL
MODEL 7
REMARK VINA RESULT:      -7.1      3.357      6.233
REMARK  Name = 
REMARK  6 active torsions:
REMARK  status: ('A' for Active; 'I' for Inactive)
REMARK    1  A    between atoms: C_2  and  O_3
REMARK    2  A    between atoms: O_3  and  C_4
REMARK    3  A    between atoms: C_6  and  C_7
REMARK    4  A    between atoms: N_14  and  C_15
REMARK    5  A    between atoms: C_23  and  O_24
REMARK    6  A    between atoms: C_26  and  O_27
REMARK                            x       y       z     vdW  Elec       q    Type
REMARK                         _______ _______ _______ _____ _____    ______ ____
ROOT
ATOM      1  C   UNL     1      39.535  -0.780  14.115  0.00  0.00    +0.000 A 
ATOM      2  N   UNL     1      39.113   0.206  13.307  0.00  0.00    +0.000 NA
ATOM      3  C   UNL     1      37.989   0.929  13.583  0.00  0.00    +0.000 A 
ATOM      4  C   UNL     1      37.283   0.628  14.716  0.00  0.00    +0.000 A 
ATOM      5  C   UNL     1      36.218   1.505  14.732  0.00  0.00    +0.000 A 
ATOM      6  C   UNL     1      35.166   1.540  15.807  0.00  0.00    +0.000 C 
ATOM      7  N   UNL     1      36.310   2.283  13.643  0.00  0.00    +0.000 NA
ATOM      8  N   UNL     1      37.376   1.938  12.949  0.00  0.00    +0.000 N 
ATOM      9  C   UNL     1      37.717  -0.387  15.551  0.00  0.00    +0.000 A 
ATOM     10  C   UNL     1      37.022  -0.697  16.684  0.00  0.00    +0.000 A 
ATOM     11  C   UNL     1      37.455  -1.711  17.515  0.00  0.00    +0.000 A 
ATOM     12  C   UNL     1      38.590  -2.449  17.248  0.00  0.00    +0.000 A 
ATOM     13  C   UNL     1      39.294  -2.138  16.103  0.00  0.00    +0.000 A 
ATOM     14  C   UNL     1      38.860  -1.122  15.270  0.00  0.00    +0.000 A 
ENDROOT
BRANCH   1  17
ATOM     15  C   UNL     1      43.067  -1.998  13.855  0.00  0.00    +0.000 A 
ATOM     16  C   UNL     1      41.983  -1.234  14.298  0.00  0.00    +0.000 A 
ATOM     17  C   UNL     1      40.747  -1.501  13.746  0.00  0.00    +0.000 A 
ATOM     18  C   UNL     1      40.613  -2.494  12.791  0.00  0.00    +0.000 A 
ATOM     19  C   UNL     1      41.670  -3.244  12.353  0.00  0.00    +0.000 A 
ATOM     20  C   UNL     1      42.909  -2.988  12.897  0.00  0.00    +0.000 A 
ATOM     21  O   UNL     1      43.972  -3.756  12.446  0.00  0.00    +0.000 OA
BRANCH  15  22
ATOM     22  O   UNL     1      44.346  -1.808  14.346  0.00  0.00    +0.000 OA
BRANCH  22  24
ATOM     23  C   UNL     1      45.166  -0.330  16.017  0.00  0.00    +0.000 C 
ATOM     24  C   UNL     1      44.915  -0.538  14.538  0.00  0.00    +0.000 C 
ENDBRANCH  22  24
ENDBRANCH  15  22
ENDBRANCH   1  17
BRANCH   8  25
ATOM     25  C   UNL     1      37.827   2.531  11.713  0.00  0.00    +0.000 A 
ATOM     26  C   UNL     1      37.481   2.022  10.496  0.00  0.00    +0.000 A 
ATOM     27  C   UNL     1      37.947   2.639   9.350  0.00  0.00    +0.000 A 
ATOM     28  C   UNL     1      38.760   3.768   9.399  0.00  0.00    +0.000 A 
ATOM     29  C   UNL     1      39.108   4.283  10.650  0.00  0.00    +0.000 A 
ATOM     30  C   UNL     1      38.632   3.651  11.774  0.00  0.00    +0.000 A 
ENDBRANCH   8  25
BRANCH  11  31
ATOM     31  O   UNL     1      36.747  -2.033  18.679  0.00  0.00    +0.000 OA
ATOM     32  C   UNL     1      36.083  -0.998  19.380  0.00  0.00    +0.000 C 
ENDBRANCH  11  31
BRANCH  12  33
ATOM     33  O   UNL     1      39.004  -3.471  18.110  0.00  0.00    +0.000 OA
ATOM     34  C   UNL     1      38.543  -4.796  17.968  0.00  0.00    +0.000 C 
ENDBRANCH  12  33
TORSDOF 6
ENDMDL
MODEL 8
REMARK VINA RESULT:      -7.0      2.565      3.620
REMARK  Name = 
REMARK  6 active torsions:
REMARK  status: ('A' for Active; 'I' for Inactive)
REMARK    1  A    between atoms: C_2  and  O_3
REMARK    2  A    between atoms: O_3  and  C_4
REMARK    3  A    between atoms: C_6  and  C_7
REMARK    4  A    between atoms: N_14  and  C_15
REMARK    5  A    between atoms: C_23  and  O_24
REMARK    6  A    between atoms: C_26  and  O_27
REMARK                            x       y       z     vdW  Elec       q    Type
REMARK                         _______ _______ _______ _____ _____    ______ ____
ROOT
ATOM      1  C   UNL     1      39.242  -0.323  14.442  0.00  0.00    +0.000 A 
ATOM      2  N   UNL     1      38.895  -1.155  15.439  0.00  0.00    +0.000 NA
ATOM      3  C   UNL     1      37.775  -0.944  16.192  0.00  0.00    +0.000 A 
ATOM      4  C   UNL     1      36.998   0.146  15.912  0.00  0.00    +0.000 A 
ATOM      5  C   UNL     1      35.957   0.101  16.817  0.00  0.00    +0.000 A 
ATOM      6  C   UNL     1      34.846   1.113  16.881  0.00  0.00    +0.000 C 
ATOM      7  N   UNL     1      36.134  -0.981  17.592  0.00  0.00    +0.000 NA
ATOM      8  N   UNL     1      37.229  -1.612  17.217  0.00  0.00    +0.000 N 
ATOM      9  C   UNL     1      37.354   1.003  14.885  0.00  0.00    +0.000 A 
ATOM     10  C   UNL     1      36.586   2.094  14.596  0.00  0.00    +0.000 A 
ATOM     11  C   UNL     1      36.943   2.948  13.571  0.00  0.00    +0.000 A 
ATOM     12  C   UNL     1      38.071   2.747  12.802  0.00  0.00    +0.000 A 
ATOM     13  C   UNL     1      38.848   1.646  13.093  0.00  0.00    +0.000 A 
ATOM     14  C   UNL     1      38.492   0.789  14.119  0.00  0.00    +0.000 A 
ENDROOT
BRANCH   1  17
ATOM     15  C   UNL     1      42.801  -0.695  13.338  0.00  0.00    +0.000 A 
ATOM     16  C   UNL     1      41.722  -0.360  14.162  0.00  0.00    +0.000 A 
ATOM     17  C   UNL     1      40.452  -0.623  13.689  0.00  0.00    +0.000 A 
ATOM     18  C   UNL     1      40.282  -1.200  12.442  0.00  0.00    +0.000 A 
ATOM     19  C   UNL     1      41.334  -1.529  11.632  0.00  0.00    +0.000 A 
ATOM     20  C   UNL     1      42.606  -1.272  12.092  0.00  0.00    +0.000 A 
ATOM     21  O   UNL     1      43.663  -1.612  11.262  0.00  0.00    +0.000 OA
BRANCH  15  22
ATOM     22  O   UNL     1      44.111  -0.472  13.720  0.00  0.00    +0.000 OA
BRANCH  22  24
ATOM     23  C   UNL     1      45.081  -0.267  15.880  0.00  0.00    +0.000 C 
ATOM     24  C   UNL     1      44.751  -1.202  14.736  0.00  0.00    +0.000 C 
ENDBRANCH  22  24
ENDBRANCH  15  22
ENDBRANCH   1  17
BRANCH   8  25
ATOM     25  C   UNL     1      37.766  -2.819  17.796  0.00  0.00    +0.000 A 
ATOM     26  C   UNL     1      37.748  -4.012  17.134  0.00  0.00    +0.000 A 
ATOM     27  C   UNL     1      38.280  -5.131  17.746  0.00  0.00    +0.000 A 
ATOM     28  C   UNL     1      38.836  -5.080  19.021  0.00  0.00    +0.000 A 
ATOM     29  C   UNL     1      38.852  -3.853  19.692  0.00  0.00    +0.000 A 
ATOM     30  C   UNL     1      38.316  -2.756  19.060  0.00  0.00    +0.000 A 
ENDBRANCH   8  25
BRANCH  11  31
ATOM     31  O   UNL     1      36.160   4.069  13.269  0.00  0.00    +0.000 OA
ATOM     32  C   UNL     1      35.323   4.606  14.276  0.00  0.00    +0.000 C 
ENDBRANCH  11  31
BRANCH  12  33
ATOM     33  O   UNL     1      38.406   3.632  11.770  0.00  0.00    +0.000 OA
ATOM     34  C   UNL     1      39.623   3.526  11.066  0.00  0.00    +0.000 C 
ENDBRANCH  12  33
TORSDOF 6
ENDMDL
MODEL 9
REMARK VINA RESULT:      -6.9      2.871      6.828
REMARK  Name = 
REMARK  6 active torsions:
REMARK  status: ('A' for Active; 'I' for Inactive)
REMARK    1  A    between atoms: C_2  and  O_3
REMARK    2  A    between atoms: O_3  and  C_4
REMARK    3  A    between atoms: C_6  and  C_7
REMARK    4  A    between atoms: N_14  and  C_15
REMARK    5  A    between atoms: C_23  and  O_24
REMARK    6  A    between atoms: C_26  and  O_27
REMARK                            x       y       z     vdW  Elec       q    Type
REMARK                         _______ _______ _______ _____ _____    ______ ____
ROOT
ATOM      1  C   UNL     1      38.955   1.982  14.709  0.00  0.00    +0.000 A 
ATOM      2  N   UNL     1      38.203   1.025  15.277  0.00  0.00    +0.000 NA
ATOM      3  C   UNL     1      38.567  -0.290  15.238  0.00  0.00    +0.000 A 
ATOM      4  C   UNL     1      39.730  -0.626  14.600  0.00  0.00    +0.000 A 
ATOM      5  C   UNL     1      39.835  -1.997  14.720  0.00  0.00    +0.000 A 
ATOM      6  C   UNL     1      40.971  -2.810  14.162  0.00  0.00    +0.000 C 
ATOM      7  N   UNL     1      38.766  -2.433  15.404  0.00  0.00    +0.000 NA
ATOM      8  N   UNL     1      38.001  -1.406  15.718  0.00  0.00    +0.000 N 
ATOM      9  C   UNL     1      40.506   0.359  14.015  0.00  0.00    +0.000 A 
ATOM     10  C   UNL     1      41.668   0.037  13.376  0.00  0.00    +0.000 A 
ATOM     11  C   UNL     1      42.441   1.022  12.792  0.00  0.00    +0.000 A 
ATOM     12  C   UNL     1      42.086   2.354  12.825  0.00  0.00    +0.000 A 
ATOM     13  C   UNL     1      40.911   2.682  13.469  0.00  0.00    +0.000 A 
ATOM     14  C   UNL     1      40.136   1.696  14.054  0.00  0.00    +0.000 A 
ENDROOT
BRANCH   1  17
ATOM     15  C   UNL     1      38.391   5.535  15.751  0.00  0.00    +0.000 A 
ATOM     16  C   UNL     1      38.912   4.237  15.778  0.00  0.00    +0.000 A 
ATOM     17  C   UNL     1      38.493   3.361  14.798  0.00  0.00    +0.000 A 
ATOM     18  C   UNL     1      37.590   3.778  13.835  0.00  0.00    +0.000 A 
ATOM     19  C   UNL     1      37.076   5.045  13.805  0.00  0.00    +0.000 A 
ATOM     20  C   UNL     1      37.486   5.930  14.778  0.00  0.00    +0.000 A 
ATOM     21  O   UNL     1      36.960   7.211  14.735  0.00  0.00    +0.000 OA
BRANCH  15  22
ATOM     22  O   UNL     1      38.748   6.487  16.689  0.00  0.00    +0.000 OA
BRANCH  22  24
ATOM     23  C   UNL     1      39.450   5.923  18.888  0.00  0.00    +0.000 C 
ATOM     24  C   UNL     1      38.321   6.447  18.027  0.00  0.00    +0.000 C 
ENDBRANCH  22  24
ENDBRANCH  15  22
ENDBRANCH   1  17
BRANCH   8  25
ATOM     25  C   UNL     1      36.759  -1.452  16.452  0.00  0.00    +0.000 A 
ATOM     26  C   UNL     1      35.640  -2.045  15.946  0.00  0.00    +0.000 A 
ATOM     27  C   UNL     1      34.482  -2.055  16.701  0.00  0.00    +0.000 A 
ATOM     28  C   UNL     1      34.422  -1.478  17.966  0.00  0.00    +0.000 A 
ATOM     29  C   UNL     1      35.575  -0.874  18.477  0.00  0.00    +0.000 A 
ATOM     30  C   UNL     1      36.712  -0.878  17.705  0.00  0.00    +0.000 A 
ENDBRANCH   8  25
BRANCH  11  31
ATOM     31  O   UNL     1      43.635   0.699  12.136  0.00  0.00    +0.000 OA
ATOM     32  C   UNL     1      44.813   0.543  12.904  0.00  0.00    +0.000 C 
ENDBRANCH  11  31
BRANCH  12  33
ATOM     33  O   UNL     1      42.890   3.329  12.223  0.00  0.00    +0.000 OA
ATOM     34  C   UNL     1      42.840   4.682  12.617  0.00  0.00    +0.000 C 
ENDBRANCH  12  33
TORSDOF 6
ENDMDL
MODEL 10
REMARK VINA RESULT:      -6.8      4.190      7.865
REMARK  Name = 
REMARK  6 active torsions:
REMARK  status: ('A' for Active; 'I' for Inactive)
REMARK    1  A    between atoms: C_2  and  O_3
REMARK    2  A    between atoms: O_3  and  C_4
REMARK    3  A    between atoms: C_6  and  C_7
REMARK    4  A    between atoms: N_14  and  C_15
REMARK    5  A    between atoms: C_23  and  O_24
REMARK    6  A    between atoms: C_26  and  O_27
REMARK                            x       y       z     vdW  Elec       q    Type
REMARK                         _______ _______ _______ _____ _____    ______ ____
ROOT
ATOM      1  C   UNL     1      38.844   2.939  14.164  0.00  0.00    +0.000 A 
ATOM      2  N   UNL     1      39.143   3.856  15.100  0.00  0.00    +0.000 NA
ATOM      3  C   UNL     1      38.874   5.181  14.917  0.00  0.00    +0.000 A 
ATOM      4  C   UNL     1      38.286   5.571  13.744  0.00  0.00    +0.000 A 
ATOM      5  C   UNL     1      38.139   6.940  13.841  0.00  0.00    +0.000 A 
ATOM      6  C   UNL     1      37.530   7.804  12.771  0.00  0.00    +0.000 C 
ATOM      7  N   UNL     1      38.628   7.322  15.031  0.00  0.00    +0.000 NA
ATOM      8  N   UNL     1      39.072   6.264  15.681  0.00  0.00    +0.000 N 
ATOM      9  C   UNL     1      37.977   4.628  12.780  0.00  0.00    +0.000 A 
ATOM     10  C   UNL     1      37.390   5.004  11.607  0.00  0.00    +0.000 A 
ATOM     11  C   UNL     1      37.083   4.062  10.645  0.00  0.00    +0.000 A 
ATOM     12  C   UNL     1      37.348   2.719  10.817  0.00  0.00    +0.000 A 
ATOM     13  C   UNL     1      37.942   2.336  12.001  0.00  0.00    +0.000 A 
ATOM     14  C   UNL     1      38.250   3.280  12.965  0.00  0.00    +0.000 A 
ENDROOT
BRANCH   1  17
ATOM     15  C   UNL     1      38.690  -0.660  15.186  0.00  0.00    +0.000 A 
ATOM     16  C   UNL     1      38.255   0.650  14.965  0.00  0.00    +0.000 A 
ATOM     17  C   UNL     1      39.165   1.545  14.442  0.00  0.00    +0.000 A 
ATOM     18  C   UNL     1      40.454   1.134  14.153  0.00  0.00    +0.000 A 
ATOM     19  C   UNL     1      40.886  -0.146  14.367  0.00  0.00    +0.000 A 
ATOM     20  C   UNL     1      39.987  -1.050  14.890  0.00  0.00    +0.000 A 
ATOM     21  O   UNL     1      40.436  -2.344  15.101  0.00  0.00    +0.000 OA
BRANCH  15  22
ATOM     22  O   UNL     1      37.855  -1.632  15.708  0.00  0.00    +0.000 OA
BRANCH  22  24
ATOM     23  C   UNL     1      37.798  -1.796  18.078  0.00  0.00    +0.000 C 
ATOM     24  C   UNL     1      37.033  -1.418  16.827  0.00  0.00    +0.000 C 
ENDBRANCH  22  24
ENDBRANCH  15  22
ENDBRANCH   1  17
BRANCH   8  25
ATOM     25  C   UNL     1      39.672   6.251  16.993  0.00  0.00    +0.000 A 
ATOM     26  C   UNL     1      38.930   6.095  18.127  0.00  0.00    +0.000 A 
ATOM     27  C   UNL     1      39.567   6.091  19.354  0.00  0.00    +0.000 A 
ATOM     28  C   UNL     1      40.946   6.240  19.469  0.00  0.00    +0.000 A 
ATOM     29  C   UNL     1      41.698   6.398  18.301  0.00  0.00    +0.000 A 
ATOM     30  C   UNL     1      41.040   6.399  17.094  0.00  0.00    +0.000 A 
ENDBRANCH   8  25
BRANCH  11  31
ATOM     31  O   UNL     1      36.480   4.440   9.439  0.00  0.00    +0.000 OA
ATOM     32  C   UNL     1      35.882   5.720   9.350  0.00  0.00    +0.000 C 
ENDBRANCH  11  31
BRANCH  12  33
ATOM     33  O   UNL     1      37.026   1.788   9.823  0.00  0.00    +0.000 OA
ATOM     34  C   UNL     1      37.965   1.375   8.856  0.00  0.00    +0.000 C 
ENDBRANCH  12  33
TORSDOF 6
ENDMDL
