MODEL 1
REMARK VINA RESULT:      -5.7      0.000      0.000
REMARK  Name = 
REMARK  4 active torsions:
REMARK  status: ('A' for Active; 'I' for Inactive)
REMARK    1  A    between atoms: C_4  and  N_5
REMARK    2  A    between atoms: C_6  and  C_8
REMARK    3  A    between atoms: C_8  and  C_9
REMARK    4  A    between atoms: C_15  and  C_16
REMARK                            x       y       z     vdW  Elec       q    Type
REMARK                         _______ _______ _______ _____ _____    ______ ____
ROOT
ATOM      1  C   UNL     1      22.426  27.960  29.118  0.00  0.00    +0.000 C 
ATOM      2  C   UNL     1      23.427  26.850  28.884  0.00  0.00    +0.000 A 
ATOM      3  S   UNL     1      23.789  26.147  27.409  0.00  0.00    +0.000 S 
ATOM      4  C   UNL     1      25.007  24.965  27.955  0.00  0.00    +0.000 A 
ATOM      5  C   UNL     1      25.038  25.232  29.279  0.00  0.00    +0.000 A 
ATOM      6  C   UNL     1      24.225  26.197  29.764  0.00  0.00    +0.000 A 
ATOM      7  C   UNL     1      24.134  26.614  31.217  0.00  0.00    +0.000 C 
ENDROOT
BRANCH   4   8
ATOM      8  N   UNL     1      25.593  24.138  27.005  0.00  0.00    +0.000 NA
ATOM      9  C   UNL     1      26.338  24.193  25.887  0.00  0.00    +0.000 C 
ATOM     10  O   UNL     1      26.748  25.283  25.428  0.00  0.00    +0.000 OA
BRANCH   9  11
ATOM     11  C   UNL     1      26.730  22.990  25.112  0.00  0.00    +0.000 C 
BRANCH  11  12
ATOM     12  C   UNL     1      28.180  22.820  25.237  0.00  0.00    +0.000 A 
ATOM     13  C   UNL     1      28.648  22.474  26.510  0.00  0.00    +0.000 A 
ATOM     14  C   UNL     1      30.007  22.329  26.731  0.00  0.00    +0.000 A 
ATOM     15  C   UNL     1      30.882  22.533  25.679  0.00  0.00    +0.000 A 
ATOM     16  C   UNL     1      30.453  22.876  24.411  0.00  0.00    +0.000 A 
ATOM     17  C   UNL     1      29.068  23.010  24.237  0.00  0.00    +0.000 A 
ENDBRANCH  11  12
ENDBRANCH   9  11
ENDBRANCH   4   8
BRANCH   5  18
ATOM     18  C   UNL     1      26.089  24.630  30.155  0.00  0.00    +0.000 C 
ATOM     19  N   UNL     1      27.366  25.265  30.241  0.00  0.00    +0.000 NA
ATOM     20  O   UNL     1      25.933  23.597  30.833  0.00  0.00    +0.000 OA
ENDBRANCH   5  18
TORSDOF 4
ENDMDL
MODEL 2
REMARK VINA RESULT:      -5.4      4.475      6.411
REMARK  Name = 
REMARK  4 active torsions:
REMARK  status: ('A' for Active; 'I' for Inactive)
REMARK    1  A    between atoms: C_4  and  N_5
REMARK    2  A    between atoms: C_6  and  C_8
REMARK    3  A    between atoms: C_8  and  C_9
REMARK    4  A    between atoms: C_15  and  C_16
REMARK                            x       y       z     vdW  Elec       q    Type
REMARK                         _______ _______ _______ _____ _____    ______ ____
ROOT
ATOM      1  C   UNL     1      27.483  28.858  23.737  0.00  0.00    +0.000 C 
ATOM      2  C   UNL     1      28.018  27.444  23.701  0.00  0.00    +0.000 A 
ATOM      3  S   UNL     1      28.461  26.526  25.029  0.00  0.00    +0.000 S 
ATOM      4  C   UNL     1      28.973  25.042  24.184  0.00  0.00    +0.000 A 
ATOM      5  C   UNL     1      28.740  25.393  22.900  0.00  0.00    +0.000 A 
ATOM      6  C   UNL     1      28.253  26.628  22.644  0.00  0.00    +0.000 A 
ATOM      7  C   UNL     1      27.942  27.176  21.268  0.00  0.00    +0.000 C 
ENDROOT
BRANCH   4   8
ATOM      8  N   UNL     1      29.433  23.976  24.947  0.00  0.00    +0.000 NA
ATOM      9  C   UNL     1      30.434  23.080  24.995  0.00  0.00    +0.000 C 
ATOM     10  O   UNL     1      31.361  23.090  24.155  0.00  0.00    +0.000 OA
BRANCH   9  11
ATOM     11  C   UNL     1      30.524  22.017  26.027  0.00  0.00    +0.000 C 
BRANCH  11  12
ATOM     12  C   UNL     1      29.732  22.437  27.185  0.00  0.00    +0.000 A 
ATOM     13  C   UNL     1      30.415  23.181  28.155  0.00  0.00    +0.000 A 
ATOM     14  C   UNL     1      29.756  23.589  29.303  0.00  0.00    +0.000 A 
ATOM     15  C   UNL     1      28.426  23.248  29.469  0.00  0.00    +0.000 A 
ATOM     16  C   UNL     1      27.724  22.514  28.532  0.00  0.00    +0.000 A 
ATOM     17  C   UNL     1      28.434  22.125  27.386  0.00  0.00    +0.000 A 
ENDBRANCH  11  12
ENDBRANCH   9  11
ENDBRANCH   4   8
BRANCH   5  18
ATOM     18  C   UNL     1      28.814  24.377  21.805  0.00  0.00    +0.000 C 
ATOM     19  N   UNL     1      27.823  23.351  21.744  0.00  0.00    +0.000 NA
ATOM     20  O   UNL     1      29.691  24.359  20.921  0.00  0.00    +0.000 OA
ENDBRANCH   5  18
TORSDOF 4
ENDMDL
MODEL 3
REMARK VINA RESULT:      -5.4     17.474     18.710
REMARK  Name = 
REMARK  4 active torsions:
REMARK  status: ('A' for Active; 'I' for Inactive)
REMARK    1  A    between atoms: C_4  and  N_5
REMARK    2  A    between atoms: C_6  and  C_8
REMARK    3  A    between atoms: C_8  and  C_9
REMARK    4  A    between atoms: C_15  and  C_16
REMARK                            x       y       z     vdW  Elec       q    Type
REMARK                         _______ _______ _______ _____ _____    ______ ____
ROOT
ATOM      1  C   UNL     1      16.357   9.457  40.709  0.00  0.00    +0.000 C 
ATOM      2  C   UNL     1      17.157   9.806  39.473  0.00  0.00    +0.000 A 
ATOM      3  S   UNL     1      18.781   9.485  39.230  0.00  0.00    +0.000 S 
ATOM      4  C   UNL     1      18.963  10.186  37.601  0.00  0.00    +0.000 A 
ATOM      5  C   UNL     1      17.702  10.615  37.371  0.00  0.00    +0.000 A 
ATOM      6  C   UNL     1      16.770  10.427  38.332  0.00  0.00    +0.000 A 
ATOM      7  C   UNL     1      15.320  10.851  38.236  0.00  0.00    +0.000 C 
ENDROOT
BRANCH   4   8
ATOM      8  N   UNL     1      20.213  10.129  36.997  0.00  0.00    +0.000 NA
ATOM      9  C   UNL     1      21.492   9.816  37.267  0.00  0.00    +0.000 C 
ATOM     10  O   UNL     1      21.837   9.390  38.392  0.00  0.00    +0.000 OA
BRANCH   9  11
ATOM     11  C   UNL     1      22.588   9.949  36.276  0.00  0.00    +0.000 C 
BRANCH  11  12
ATOM     12  C   UNL     1      23.743  10.547  36.950  0.00  0.00    +0.000 A 
ATOM     13  C   UNL     1      24.871   9.726  37.073  0.00  0.00    +0.000 A 
ATOM     14  C   UNL     1      25.997  10.194  37.730  0.00  0.00    +0.000 A 
ATOM     15  C   UNL     1      25.983  11.472  38.257  0.00  0.00    +0.000 A 
ATOM     16  C   UNL     1      24.886  12.307  38.154  0.00  0.00    +0.000 A 
ATOM     17  C   UNL     1      23.770  11.789  37.479  0.00  0.00    +0.000 A 
ENDBRANCH  11  12
ENDBRANCH   9  11
ENDBRANCH   4   8
BRANCH   5  18
ATOM     18  C   UNL     1      17.293  11.093  36.015  0.00  0.00    +0.000 C 
ATOM     19  N   UNL     1      17.017  10.131  34.996  0.00  0.00    +0.000 NA
ATOM     20  O   UNL     1      17.169  12.291  35.700  0.00  0.00    +0.000 OA
ENDBRANCH   5  18
TORSDOF 4
ENDMDL
MODEL 4
REMARK VINA RESULT:      -5.2      5.338      7.348
REMARK  Name = 
REMARK  4 active torsions:
REMARK  status: ('A' for Active; 'I' for Inactive)
REMARK    1  A    between atoms: C_4  and  N_5
REMARK    2  A    between atoms: C_6  and  C_8
REMARK    3  A    between atoms: C_8  and  C_9
REMARK    4  A    between atoms: C_15  and  C_16
REMARK                            x       y       z     vdW  Elec       q    Type
REMARK                         _______ _______ _______ _____ _____    ______ ____
ROOT
ATOM      1  C   UNL     1      30.021  30.795  24.218  0.00  0.00    +0.000 C 
ATOM      2  C   UNL     1      29.670  29.540  23.451  0.00  0.00    +0.000 A 
ATOM      3  S   UNL     1      29.379  28.031  24.114  0.00  0.00    +0.000 S 
ATOM      4  C   UNL     1      29.056  27.124  22.614  0.00  0.00    +0.000 A 
ATOM      5  C   UNL     1      29.197  28.104  21.694  0.00  0.00    +0.000 A 
ATOM      6  C   UNL     1      29.517  29.347  22.117  0.00  0.00    +0.000 A 
ATOM      7  C   UNL     1      29.715  30.551  21.221  0.00  0.00    +0.000 C 
ENDROOT
BRANCH   4   8
ATOM      8  N   UNL     1      28.755  25.771  22.714  0.00  0.00    +0.000 NA
ATOM      9  C   UNL     1      28.984  24.600  22.095  0.00  0.00    +0.000 C 
ATOM     10  O   UNL     1      29.719  24.528  21.085  0.00  0.00    +0.000 OA
BRANCH   9  11
ATOM     11  C   UNL     1      28.395  23.315  22.544  0.00  0.00    +0.000 C 
BRANCH  11  12
ATOM     12  C   UNL     1      28.907  23.021  23.885  0.00  0.00    +0.000 A 
ATOM     13  C   UNL     1      27.953  22.975  24.908  0.00  0.00    +0.000 A 
ATOM     14  C   UNL     1      28.351  22.742  26.214  0.00  0.00    +0.000 A 
ATOM     15  C   UNL     1      29.695  22.559  26.482  0.00  0.00    +0.000 A 
ATOM     16  C   UNL     1      30.662  22.600  25.496  0.00  0.00    +0.000 A 
ATOM     17  C   UNL     1      30.211  22.838  24.189  0.00  0.00    +0.000 A 
ENDBRANCH  11  12
ENDBRANCH   9  11
ENDBRANCH   4   8
BRANCH   5  18
ATOM     18  C   UNL     1      28.804  27.878  20.269  0.00  0.00    +0.000 C 
ATOM     19  N   UNL     1      29.793  27.428  19.342  0.00  0.00    +0.000 NA
ATOM     20  O   UNL     1      27.655  28.051  19.820  0.00  0.00    +0.000 OA
ENDBRANCH   5  18
TORSDOF 4
ENDMDL
MODEL 5
REMARK VINA RESULT:      -5.1      1.696      2.108
REMARK  Name = 
REMARK  4 active torsions:
REMARK  status: ('A' for Active; 'I' for Inactive)
REMARK    1  A    between atoms: C_4  and  N_5
REMARK    2  A    between atoms: C_6  and  C_8
REMARK    3  A    between atoms: C_8  and  C_9
REMARK    4  A    between atoms: C_15  and  C_16
REMARK                            x       y       z     vdW  Elec       q    Type
REMARK                         _______ _______ _______ _____ _____    ______ ____
ROOT
ATOM      1  C   UNL     1      23.038  27.197  26.607  0.00  0.00    +0.000 C 
ATOM      2  C   UNL     1      24.047  26.245  27.209  0.00  0.00    +0.000 A 
ATOM      3  S   UNL     1      25.092  25.251  26.359  0.00  0.00    +0.000 S 
ATOM      4  C   UNL     1      25.914  24.469  27.733  0.00  0.00    +0.000 A 
ATOM      5  C   UNL     1      25.295  25.073  28.772  0.00  0.00    +0.000 A 
ATOM      6  C   UNL     1      24.331  25.984  28.509  0.00  0.00    +0.000 A 
ATOM      7  C   UNL     1      23.540  26.744  29.553  0.00  0.00    +0.000 C 
ENDROOT
BRANCH   4   8
ATOM      8  N   UNL     1      26.902  23.531  27.462  0.00  0.00    +0.000 NA
ATOM      9  C   UNL     1      28.157  23.202  27.813  0.00  0.00    +0.000 C 
ATOM     10  O   UNL     1      28.779  23.843  28.690  0.00  0.00    +0.000 OA
BRANCH   9  11
ATOM     11  C   UNL     1      28.903  22.074  27.204  0.00  0.00    +0.000 C 
BRANCH  11  12
ATOM     12  C   UNL     1      29.779  22.615  26.162  0.00  0.00    +0.000 A 
ATOM     13  C   UNL     1      31.073  22.962  26.571  0.00  0.00    +0.000 A 
ATOM     14  C   UNL     1      31.958  23.518  25.662  0.00  0.00    +0.000 A 
ATOM     15  C   UNL     1      31.542  23.721  24.359  0.00  0.00    +0.000 A 
ATOM     16  C   UNL     1      30.272  23.390  23.924  0.00  0.00    +0.000 A 
ATOM     17  C   UNL     1      29.412  22.830  24.880  0.00  0.00    +0.000 A 
ENDBRANCH  11  12
ENDBRANCH   9  11
ENDBRANCH   4   8
BRANCH   5  18
ATOM     18  C   UNL     1      25.801  24.902  30.168  0.00  0.00    +0.000 C 
ATOM     19  N   UNL     1      25.876  23.587  30.721  0.00  0.00    +0.000 NA
ATOM     20  O   UNL     1      26.175  25.837  30.900  0.00  0.00    +0.000 OA
ENDBRANCH   5  18
TORSDOF 4
ENDMDL
MODEL 6
REMARK VINA RESULT:      -5.0     34.250     35.522
REMARK  Name = 
REMARK  4 active torsions:
REMARK  status: ('A' for Active; 'I' for Inactive)
REMARK    1  A    between atoms: C_4  and  N_5
REMARK    2  A    between atoms: C_6  and  C_8
REMARK    3  A    between atoms: C_8  and  C_9
REMARK    4  A    between atoms: C_15  and  C_16
REMARK                            x       y       z     vdW  Elec       q    Type
REMARK                         _______ _______ _______ _____ _____    ______ ____
ROOT
ATOM      1  C   UNL     1      14.062 -13.598  24.330  0.00  0.00    +0.000 C 
ATOM      2  C   UNL     1      14.223 -12.261  25.017  0.00  0.00    +0.000 A 
ATOM      3  S   UNL     1      15.666 -11.590  25.537  0.00  0.00    +0.000 S 
ATOM      4  C   UNL     1      15.035 -10.070  26.222  0.00  0.00    +0.000 A 
ATOM      5  C   UNL     1      13.715 -10.211  25.972  0.00  0.00    +0.000 A 
ATOM      6  C   UNL     1      13.290 -11.338  25.357  0.00  0.00    +0.000 A 
ATOM      7  C   UNL     1      11.851 -11.653  25.010  0.00  0.00    +0.000 C 
ENDROOT
BRANCH   4   8
ATOM      8  N   UNL     1      15.939  -9.177  26.784  0.00  0.00    +0.000 NA
ATOM      9  C   UNL     1      16.516  -7.986  26.549  0.00  0.00    +0.000 C 
ATOM     10  O   UNL     1      16.230  -7.310  25.535  0.00  0.00    +0.000 OA
BRANCH   9  11
ATOM     11  C   UNL     1      17.526  -7.379  27.451  0.00  0.00    +0.000 C 
BRANCH  11  12
ATOM     12  C   UNL     1      18.773  -7.220  26.700  0.00  0.00    +0.000 A 
ATOM     13  C   UNL     1      19.534  -8.382  26.524  0.00  0.00    +0.000 A 
ATOM     14  C   UNL     1      20.747  -8.319  25.859  0.00  0.00    +0.000 A 
ATOM     15  C   UNL     1      21.186  -7.099  25.380  0.00  0.00    +0.000 A 
ATOM     16  C   UNL     1      20.460  -5.933  25.537  0.00  0.00    +0.000 A 
ATOM     17  C   UNL     1      19.238  -6.047  26.217  0.00  0.00    +0.000 A 
ENDBRANCH  11  12
ENDBRANCH   9  11
ENDBRANCH   4   8
BRANCH   5  18
ATOM     18  C   UNL     1      12.772  -9.069  26.175  0.00  0.00    +0.000 C 
ATOM     19  N   UNL     1      12.740  -8.018  25.208  0.00  0.00    +0.000 NA
ATOM     20  O   UNL     1      11.993  -8.963  27.141  0.00  0.00    +0.000 OA
ENDBRANCH   5  18
TORSDOF 4
ENDMDL
MODEL 7
REMARK VINA RESULT:      -5.0      2.501      3.055
REMARK  Name = 
REMARK  4 active torsions:
REMARK  status: ('A' for Active; 'I' for Inactive)
REMARK    1  A    between atoms: C_4  and  N_5
REMARK    2  A    between atoms: C_6  and  C_8
REMARK    3  A    between atoms: C_8  and  C_9
REMARK    4  A    between atoms: C_15  and  C_16
REMARK                            x       y       z     vdW  Elec       q    Type
REMARK                         _______ _______ _______ _____ _____    ______ ____
ROOT
ATOM      1  C   UNL     1      26.520  27.898  31.146  0.00  0.00    +0.000 C 
ATOM      2  C   UNL     1      26.487  26.599  30.372  0.00  0.00    +0.000 A 
ATOM      3  S   UNL     1      26.248  26.442  28.723  0.00  0.00    +0.000 S 
ATOM      4  C   UNL     1      26.336  24.666  28.597  0.00  0.00    +0.000 A 
ATOM      5  C   UNL     1      26.561  24.334  29.887  0.00  0.00    +0.000 A 
ATOM      6  C   UNL     1      26.636  25.323  30.806  0.00  0.00    +0.000 A 
ATOM      7  C   UNL     1      26.876  25.123  32.287  0.00  0.00    +0.000 C 
ENDROOT
BRANCH   4   8
ATOM      8  N   UNL     1      26.183  24.088  27.343  0.00  0.00    +0.000 NA
ATOM      9  C   UNL     1      26.797  23.238  26.501  0.00  0.00    +0.000 C 
ATOM     10  O   UNL     1      27.866  22.668  26.813  0.00  0.00    +0.000 OA
BRANCH   9  11
ATOM     11  C   UNL     1      26.273  22.909  25.152  0.00  0.00    +0.000 C 
BRANCH  11  12
ATOM     12  C   UNL     1      27.058  23.653  24.164  0.00  0.00    +0.000 A 
ATOM     13  C   UNL     1      26.625  24.956  23.894  0.00  0.00    +0.000 A 
ATOM     14  C   UNL     1      27.284  25.720  22.945  0.00  0.00    +0.000 A 
ATOM     15  C   UNL     1      28.364  25.174  22.277  0.00  0.00    +0.000 A 
ATOM     16  C   UNL     1      28.816  23.890  22.519  0.00  0.00    +0.000 A 
ATOM     17  C   UNL     1      28.117  23.156  23.489  0.00  0.00    +0.000 A 
ENDBRANCH  11  12
ENDBRANCH   9  11
ENDBRANCH   4   8
BRANCH   5  18
ATOM     18  C   UNL     1      26.930  22.935  30.263  0.00  0.00    +0.000 C 
ATOM     19  N   UNL     1      25.898  22.031  30.663  0.00  0.00    +0.000 NA
ATOM     20  O   UNL     1      28.091  22.486  30.251  0.00  0.00    +0.000 OA
ENDBRANCH   5  18
TORSDOF 4
ENDMDL
MODEL 8
REMARK VINA RESULT:      -5.0     23.845     24.951
REMARK  Name = 
REMARK  4 active torsions:
REMARK  status: ('A' for Active; 'I' for Inactive)
REMARK    1  A    between atoms: C_4  and  N_5
REMARK    2  A    between atoms: C_6  and  C_8
REMARK    3  A    between atoms: C_8  and  C_9
REMARK    4  A    between atoms: C_15  and  C_16
REMARK                            x       y       z     vdW  Elec       q    Type
REMARK                         _______ _______ _______ _____ _____    ______ ____
ROOT
ATOM      1  C   UNL     1      16.687   9.416  40.500  0.00  0.00    +0.000 C 
ATOM      2  C   UNL     1      17.281   8.053  40.775  0.00  0.00    +0.000 A 
ATOM      3  S   UNL     1      18.455   7.288  39.860  0.00  0.00    +0.000 S 
ATOM      4  C   UNL     1      18.602   5.780  40.799  0.00  0.00    +0.000 A 
ATOM      5  C   UNL     1      17.705   6.009  41.783  0.00  0.00    +0.000 A 
ATOM      6  C   UNL     1      17.019   7.174  41.774  0.00  0.00    +0.000 A 
ATOM      7  C   UNL     1      15.978   7.582  42.795  0.00  0.00    +0.000 C 
ENDROOT
BRANCH   4   8
ATOM      8  N   UNL     1      19.511   4.822  40.366  0.00  0.00    +0.000 NA
ATOM      9  C   UNL     1      20.834   4.610  40.256  0.00  0.00    +0.000 C 
ATOM     10  O   UNL     1      21.666   5.453  40.658  0.00  0.00    +0.000 OA
BRANCH   9  11
ATOM     11  C   UNL     1      21.413   3.382  39.658  0.00  0.00    +0.000 C 
BRANCH  11  12
ATOM     12  C   UNL     1      22.484   2.906  40.537  0.00  0.00    +0.000 A 
ATOM     13  C   UNL     1      22.075   2.164  41.652  0.00  0.00    +0.000 A 
ATOM     14  C   UNL     1      23.016   1.706  42.559  0.00  0.00    +0.000 A 
ATOM     15  C   UNL     1      24.351   1.995  42.344  0.00  0.00    +0.000 A 
ATOM     16  C   UNL     1      24.787   2.726  41.254  0.00  0.00    +0.000 A 
ATOM     17  C   UNL     1      23.797   3.167  40.363  0.00  0.00    +0.000 A 
ENDBRANCH  11  12
ENDBRANCH   9  11
ENDBRANCH   4   8
BRANCH   5  18
ATOM     18  C   UNL     1      17.620   5.100  42.967  0.00  0.00    +0.000 C 
ATOM     19  N   UNL     1      18.515   5.304  44.061  0.00  0.00    +0.000 NA
ATOM     20  O   UNL     1      16.809   4.161  43.076  0.00  0.00    +0.000 OA
ENDBRANCH   5  18
TORSDOF 4
ENDMDL
MODEL 9
REMARK VINA RESULT:      -4.9     21.359     23.495
REMARK  Name = 
REMARK  4 active torsions:
REMARK  status: ('A' for Active; 'I' for Inactive)
REMARK    1  A    between atoms: C_4  and  N_5
REMARK    2  A    between atoms: C_6  and  C_8
REMARK    3  A    between atoms: C_8  and  C_9
REMARK    4  A    between atoms: C_15  and  C_16
REMARK                            x       y       z     vdW  Elec       q    Type
REMARK                         _______ _______ _______ _____ _____    ______ ____
ROOT
ATOM      1  C   UNL     1      27.603   6.583  12.242  0.00  0.00    +0.000 C 
ATOM      2  C   UNL     1      27.223   6.303  13.679  0.00  0.00    +0.000 A 
ATOM      3  S   UNL     1      25.800   5.591  14.199  0.00  0.00    +0.000 S 
ATOM      4  C   UNL     1      26.099   5.620  15.956  0.00  0.00    +0.000 A 
ATOM      5  C   UNL     1      27.324   6.189  15.991  0.00  0.00    +0.000 A 
ATOM      6  C   UNL     1      27.906   6.547  14.824  0.00  0.00    +0.000 A 
ATOM      7  C   UNL     1      29.266   7.197  14.690  0.00  0.00    +0.000 C 
ENDROOT
BRANCH   4   8
ATOM      8  N   UNL     1      25.124   5.100  16.798  0.00  0.00    +0.000 NA
ATOM      9  C   UNL     1      24.975   4.573  18.026  0.00  0.00    +0.000 C 
ATOM     10  O   UNL     1      25.942   4.470  18.814  0.00  0.00    +0.000 OA
BRANCH   9  11
ATOM     11  C   UNL     1      23.678   4.074  18.544  0.00  0.00    +0.000 C 
BRANCH  11  12
ATOM     12  C   UNL     1      23.507   2.691  18.092  0.00  0.00    +0.000 A 
ATOM     13  C   UNL     1      22.195   2.302  17.797  0.00  0.00    +0.000 A 
ATOM     14  C   UNL     1      21.933   1.001  17.400  0.00  0.00    +0.000 A 
ATOM     15  C   UNL     1      22.983   0.106  17.303  0.00  0.00    +0.000 A 
ATOM     16  C   UNL     1      24.289   0.458  17.588  0.00  0.00    +0.000 A 
ATOM     17  C   UNL     1      24.504   1.786  17.986  0.00  0.00    +0.000 A 
ENDBRANCH  11  12
ENDBRANCH   9  11
ENDBRANCH   4   8
BRANCH   5  18
ATOM     18  C   UNL     1      28.110   6.232  17.262  0.00  0.00    +0.000 C 
ATOM     19  N   UNL     1      27.848   7.274  18.204  0.00  0.00    +0.000 NA
ATOM     20  O   UNL     1      28.993   5.410  17.571  0.00  0.00    +0.000 OA
ENDBRANCH   5  18
TORSDOF 4
ENDMDL
MODEL 10
REMARK VINA RESULT:      -4.9     23.155     25.398
REMARK  Name = 
REMARK  4 active torsions:
REMARK  status: ('A' for Active; 'I' for Inactive)
REMARK    1  A    between atoms: C_4  and  N_5
REMARK    2  A    between atoms: C_6  and  C_8
REMARK    3  A    between atoms: C_8  and  C_9
REMARK    4  A    between atoms: C_15  and  C_16
REMARK                            x       y       z     vdW  Elec       q    Type
REMARK                         _______ _______ _______ _____ _____    ______ ____
ROOT
ATOM      1  C   UNL     1      28.249  -1.204  14.506  0.00  0.00    +0.000 C 
ATOM      2  C   UNL     1      27.145  -0.431  15.195  0.00  0.00    +0.000 A 
ATOM      3  S   UNL     1      27.168   1.202  15.560  0.00  0.00    +0.000 S 
ATOM      4  C   UNL     1      25.571   1.335  16.340  0.00  0.00    +0.000 A 
ATOM      5  C   UNL     1      25.136   0.060  16.239  0.00  0.00    +0.000 A 
ATOM      6  C   UNL     1      25.942  -0.854  15.655  0.00  0.00    +0.000 A 
ATOM      7  C   UNL     1      25.610  -2.320  15.468  0.00  0.00    +0.000 C 
ENDROOT
BRANCH   4   8
ATOM      8  N   UNL     1      25.171   2.579  16.812  0.00  0.00    +0.000 NA
ATOM      9  C   UNL     1      24.621   3.161  17.892  0.00  0.00    +0.000 C 
ATOM     10  O   UNL     1      24.337   2.500  18.916  0.00  0.00    +0.000 OA
BRANCH   9  11
ATOM     11  C   UNL     1      24.306   4.609  17.964  0.00  0.00    +0.000 C 
BRANCH  11  12
ATOM     12  C   UNL     1      25.559   5.356  17.831  0.00  0.00    +0.000 A 
ATOM     13  C   UNL     1      26.492   5.173  18.858  0.00  0.00    +0.000 A 
ATOM     14  C   UNL     1      27.690   5.869  18.835  0.00  0.00    +0.000 A 
ATOM     15  C   UNL     1      27.939   6.738  17.790  0.00  0.00    +0.000 A 
ATOM     16  C   UNL     1      27.039   6.943  16.761  0.00  0.00    +0.000 A 
ATOM     17  C   UNL     1      25.841   6.215  16.828  0.00  0.00    +0.000 A 
ENDBRANCH  11  12
ENDBRANCH   9  11
ENDBRANCH   4   8
BRANCH   5  18
ATOM     18  C   UNL     1      23.721  -0.294  16.568  0.00  0.00    +0.000 C 
ATOM     19  N   UNL     1      22.714  -0.121  15.570  0.00  0.00    +0.000 NA
ATOM     20  O   UNL     1      23.346  -0.740  17.669  0.00  0.00    +0.000 OA
ENDBRANCH   5  18
TORSDOF 4
ENDMDL
