MODEL 1
REMARK VINA RESULT:      -7.8      0.000      0.000
REMARK  Name = 
REMARK  8 active torsions:
REMARK  status: ('A' for Active; 'I' for Inactive)
REMARK    1  A    between atoms: C_5  and  N_6
REMARK    2  A    between atoms: C_7  and  C_9
REMARK    3  A    between atoms: C_9  and  C_10
REMARK    4  A    between atoms: C_9  and  N_17
REMARK    5  A    between atoms: C_10  and  C_11
REMARK    6  A    between atoms: C_18  and  O_20
REMARK    7  A    between atoms: O_20  and  C_21
REMARK    8  A    between atoms: C_21  and  C_22
REMARK                            x       y       z     vdW  Elec       q    Type
REMARK                         _______ _______ _______ _____ _____    ______ ____
ROOT
ATOM      1  C   UNL     1      37.497   3.262  15.018  0.00  0.00    +0.000 C 
ENDROOT
BRANCH   1   3
ATOM      2  N   UNL     1      39.087   4.293  16.771  0.00  0.00    +0.000 NA
ATOM      3  C   UNL     1      38.047   4.481  15.906  0.00  0.00    +0.000 C 
ATOM      4  O   UNL     1      37.466   5.568  15.744  0.00  0.00    +0.000 OA
BRANCH   2   9
ATOM      5  C   UNL     1      40.988   8.576  20.037  0.00  0.00    +0.000 C 
ATOM      6  C   UNL     1      40.502   7.454  19.160  0.00  0.00    +0.000 A 
ATOM      7  C   UNL     1      39.540   6.587  19.637  0.00  0.00    +0.000 A 
ATOM      8  C   UNL     1      39.085   5.541  18.822  0.00  0.00    +0.000 A 
ATOM      9  C   UNL     1      39.576   5.356  17.553  0.00  0.00    +0.000 A 
ATOM     10  C   UNL     1      40.536   6.229  17.089  0.00  0.00    +0.000 A 
ATOM     11  C   UNL     1      41.103   6.063  15.704  0.00  0.00    +0.000 C 
ATOM     12  C   UNL     1      40.980   7.256  17.896  0.00  0.00    +0.000 A 
ENDBRANCH   2   9
ENDBRANCH   1   3
BRANCH   1  13
ATOM     13  N   UNL     1      37.046   2.286  16.177  0.00  0.00    +0.000 NA
ATOM     14  C   UNL     1      35.621   2.153  16.270  0.00  0.00    +0.000 C 
ATOM     15  O   UNL     1      34.880   2.782  15.476  0.00  0.00    +0.000 OA
BRANCH  14  16
ATOM     16  O   UNL     1      35.015   1.345  17.218  0.00  0.00    +0.000 OA
BRANCH  16  17
ATOM     17  C   UNL     1      34.844  -0.039  17.011  0.00  0.00    +0.000 C 
BRANCH  17  18
ATOM     18  C   UNL     1      35.990  -0.748  17.634  0.00  0.00    +0.000 A 
ATOM     19  C   UNL     1      36.173  -0.917  18.982  0.00  0.00    +0.000 A 
ATOM     20  C   UNL     1      37.251  -1.578  19.501  0.00  0.00    +0.000 A 
ATOM     21  C   UNL     1      38.212  -2.110  18.688  0.00  0.00    +0.000 A 
ATOM     22  C   UNL     1      38.062  -1.959  17.326  0.00  0.00    +0.000 A 
ATOM     23  C   UNL     1      36.979  -1.296  16.815  0.00  0.00    +0.000 A 
ENDBRANCH  17  18
ENDBRANCH  16  17
ENDBRANCH  14  16
ENDBRANCH   1  13
BRANCH   1  24
ATOM     24  C   UNL     1      38.977   2.559  14.775  0.00  0.00    +0.000 C 
BRANCH  24  25
ATOM     25  C   UNL     1      38.793   1.232  14.239  0.00  0.00    +0.000 A 
ATOM     26  C   UNL     1      37.807   0.853  13.350  0.00  0.00    +0.000 A 
ATOM     27  C   UNL     1      37.659  -0.407  12.856  0.00  0.00    +0.000 A 
ATOM     28  C   UNL     1      38.523  -1.411  13.232  0.00  0.00    +0.000 A 
ATOM     29  C   UNL     1      39.524  -1.077  14.119  0.00  0.00    +0.000 A 
ATOM     30  C   UNL     1      39.653   0.209  14.606  0.00  0.00    +0.000 A 
ENDBRANCH  24  25
ENDBRANCH   1  24
TORSDOF 8
ENDMDL
MODEL 2
REMARK VINA RESULT:      -7.5      2.489      7.887
REMARK  Name = 
REMARK  8 active torsions:
REMARK  status: ('A' for Active; 'I' for Inactive)
REMARK    1  A    between atoms: C_5  and  N_6
REMARK    2  A    between atoms: C_7  and  C_9
REMARK    3  A    between atoms: C_9  and  C_10
REMARK    4  A    between atoms: C_9  and  N_17
REMARK    5  A    between atoms: C_10  and  C_11
REMARK    6  A    between atoms: C_18  and  O_20
REMARK    7  A    between atoms: O_20  and  C_21
REMARK    8  A    between atoms: C_21  and  C_22
REMARK                            x       y       z     vdW  Elec       q    Type
REMARK                         _______ _______ _______ _____ _____    ______ ____
ROOT
ATOM      1  C   UNL     1      37.311   3.047  14.957  0.00  0.00    +0.000 C 
ENDROOT
BRANCH   1   3
ATOM      2  N   UNL     1      37.145   0.684  15.981  0.00  0.00    +0.000 NA
ATOM      3  C   UNL     1      36.973   1.480  14.884  0.00  0.00    +0.000 C 
ATOM      4  O   UNL     1      36.559   1.070  13.786  0.00  0.00    +0.000 OA
BRANCH   2   9
ATOM      5  C   UNL     1      35.834  -4.872  15.793  0.00  0.00    +0.000 C 
ATOM      6  C   UNL     1      36.201  -3.414  15.838  0.00  0.00    +0.000 A 
ATOM      7  C   UNL     1      35.220  -2.473  16.077  0.00  0.00    +0.000 A 
ATOM      8  C   UNL     1      35.559  -1.114  16.119  0.00  0.00    +0.000 A 
ATOM      9  C   UNL     1      36.851  -0.691  15.927  0.00  0.00    +0.000 A 
ATOM     10  C   UNL     1      37.822  -1.641  15.689  0.00  0.00    +0.000 A 
ATOM     11  C   UNL     1      39.252  -1.223  15.472  0.00  0.00    +0.000 C 
ATOM     12  C   UNL     1      37.481  -2.977  15.649  0.00  0.00    +0.000 A 
ENDBRANCH   2   9
ENDBRANCH   1   3
BRANCH   1  13
ATOM     13  N   UNL     1      37.617   3.171  16.503  0.00  0.00    +0.000 NA
ATOM     14  C   UNL     1      38.459   4.289  16.817  0.00  0.00    +0.000 C 
ATOM     15  O   UNL     1      38.868   5.042  15.900  0.00  0.00    +0.000 OA
BRANCH  14  16
ATOM     16  O   UNL     1      38.849   4.579  18.114  0.00  0.00    +0.000 OA
BRANCH  16  17
ATOM     17  C   UNL     1      38.942   5.906  18.580  0.00  0.00    +0.000 C 
BRANCH  17  18
ATOM     18  C   UNL     1      40.371   6.207  18.849  0.00  0.00    +0.000 A 
ATOM     19  C   UNL     1      41.329   6.402  17.887  0.00  0.00    +0.000 A 
ATOM     20  C   UNL     1      42.633   6.674  18.192  0.00  0.00    +0.000 A 
ATOM     21  C   UNL     1      43.050   6.765  19.491  0.00  0.00    +0.000 A 
ATOM     22  C   UNL     1      42.114   6.573  20.485  0.00  0.00    +0.000 A 
ATOM     23  C   UNL     1      40.810   6.302  20.170  0.00  0.00    +0.000 A 
ENDBRANCH  17  18
ENDBRANCH  16  17
ENDBRANCH  14  16
ENDBRANCH   1  13
BRANCH   1  24
ATOM     24  C   UNL     1      35.735   3.548  15.059  0.00  0.00    +0.000 C 
BRANCH  24  25
ATOM     25  C   UNL     1      35.504   4.599  14.097  0.00  0.00    +0.000 A 
ATOM     26  C   UNL     1      36.197   4.774  12.916  0.00  0.00    +0.000 A 
ATOM     27  C   UNL     1      35.955   5.772  12.023  0.00  0.00    +0.000 A 
ATOM     28  C   UNL     1      34.964   6.698  12.260  0.00  0.00    +0.000 A 
ATOM     29  C   UNL     1      34.246   6.561  13.429  0.00  0.00    +0.000 A 
ATOM     30  C   UNL     1      34.511   5.539  14.320  0.00  0.00    +0.000 A 
ENDBRANCH  24  25
ENDBRANCH   1  24
TORSDOF 8
ENDMDL
MODEL 3
REMARK VINA RESULT:      -7.3      3.587      5.603
REMARK  Name = 
REMARK  8 active torsions:
REMARK  status: ('A' for Active; 'I' for Inactive)
REMARK    1  A    between atoms: C_5  and  N_6
REMARK    2  A    between atoms: C_7  and  C_9
REMARK    3  A    between atoms: C_9  and  C_10
REMARK    4  A    between atoms: C_9  and  N_17
REMARK    5  A    between atoms: C_10  and  C_11
REMARK    6  A    between atoms: C_18  and  O_20
REMARK    7  A    between atoms: O_20  and  C_21
REMARK    8  A    between atoms: C_21  and  C_22
REMARK                            x       y       z     vdW  Elec       q    Type
REMARK                         _______ _______ _______ _____ _____    ______ ____
ROOT
ATOM      1  C   UNL     1      36.422   2.544  16.172  0.00  0.00    +0.000 C 
ENDROOT
BRANCH   1   3
ATOM      2  N   UNL     1      36.241   4.632  14.667  0.00  0.00    +0.000 NA
ATOM      3  C   UNL     1      35.715   3.427  15.034  0.00  0.00    +0.000 C 
ATOM      4  O   UNL     1      34.686   2.937  14.536  0.00  0.00    +0.000 OA
BRANCH   2   9
ATOM      5  C   UNL     1      33.666   7.840  10.704  0.00  0.00    +0.000 C 
ATOM      6  C   UNL     1      34.359   6.988  11.732  0.00  0.00    +0.000 A 
ATOM      7  C   UNL     1      33.906   6.991  13.035  0.00  0.00    +0.000 A 
ATOM      8  C   UNL     1      34.549   6.199  13.994  0.00  0.00    +0.000 A 
ATOM      9  C   UNL     1      35.628   5.414  13.669  0.00  0.00    +0.000 A 
ATOM     10  C   UNL     1      36.071   5.419  12.364  0.00  0.00    +0.000 A 
ATOM     11  C   UNL     1      37.251   4.575  11.963  0.00  0.00    +0.000 C 
ATOM     12  C   UNL     1      35.433   6.202  11.425  0.00  0.00    +0.000 A 
ENDBRANCH   2   9
ENDBRANCH   1   3
BRANCH   1  13
ATOM     13  N   UNL     1      36.931   1.341  15.281  0.00  0.00    +0.000 NA
ATOM     14  C   UNL     1      38.313   1.462  14.918  0.00  0.00    +0.000 C 
ATOM     15  O   UNL     1      38.979   2.453  15.308  0.00  0.00    +0.000 OA
BRANCH  14  16
ATOM     16  O   UNL     1      38.958   0.515  14.140  0.00  0.00    +0.000 OA
BRANCH  16  17
ATOM     17  C   UNL     1      39.833  -0.435  14.704  0.00  0.00    +0.000 C 
BRANCH  17  18
ATOM     18  C   UNL     1      39.044  -1.641  15.062  0.00  0.00    +0.000 A 
ATOM     19  C   UNL     1      39.257  -2.420  16.170  0.00  0.00    +0.000 A 
ATOM     20  C   UNL     1      38.500  -3.523  16.450  0.00  0.00    +0.000 A 
ATOM     21  C   UNL     1      37.479  -3.907  15.625  0.00  0.00    +0.000 A 
ATOM     22  C   UNL     1      37.236  -3.147  14.501  0.00  0.00    +0.000 A 
ATOM     23  C   UNL     1      38.000  -2.044  14.229  0.00  0.00    +0.000 A 
ENDBRANCH  17  18
ENDBRANCH  16  17
ENDBRANCH  14  16
ENDBRANCH   1  13
BRANCH   1  24
ATOM     24  C   UNL     1      35.035   1.798  16.684  0.00  0.00    +0.000 C 
BRANCH  24  25
ATOM     25  C   UNL     1      35.372   0.548  17.321  0.00  0.00    +0.000 A 
ATOM     26  C   UNL     1      36.177   0.404  18.434  0.00  0.00    +0.000 A 
ATOM     27  C   UNL     1      36.475  -0.788  19.019  0.00  0.00    +0.000 A 
ATOM     28  C   UNL     1      35.966  -1.963  18.511  0.00  0.00    +0.000 A 
ATOM     29  C   UNL     1      35.157  -1.866  17.400  0.00  0.00    +0.000 A 
ATOM     30  C   UNL     1      34.870  -0.644  16.824  0.00  0.00    +0.000 A 
ENDBRANCH  24  25
ENDBRANCH   1  24
TORSDOF 8
ENDMDL
MODEL 4
REMARK VINA RESULT:      -7.3      1.716      2.226
REMARK  Name = 
REMARK  8 active torsions:
REMARK  status: ('A' for Active; 'I' for Inactive)
REMARK    1  A    between atoms: C_5  and  N_6
REMARK    2  A    between atoms: C_7  and  C_9
REMARK    3  A    between atoms: C_9  and  C_10
REMARK    4  A    between atoms: C_9  and  N_17
REMARK    5  A    between atoms: C_10  and  C_11
REMARK    6  A    between atoms: C_18  and  O_20
REMARK    7  A    between atoms: O_20  and  C_21
REMARK    8  A    between atoms: C_21  and  C_22
REMARK                            x       y       z     vdW  Elec       q    Type
REMARK                         _______ _______ _______ _____ _____    ______ ____
ROOT
ATOM      1  C   UNL     1      38.317   2.313  14.344  0.00  0.00    +0.000 C 
ENDROOT
BRANCH   1   3
ATOM      2  N   UNL     1      37.975   3.977  16.287  0.00  0.00    +0.000 NA
ATOM      3  C   UNL     1      38.765   3.555  15.256  0.00  0.00    +0.000 C 
ATOM      4  O   UNL     1      39.852   4.078  14.954  0.00  0.00    +0.000 OA
BRANCH   2   9
ATOM      5  C   UNL     1      39.573   8.311  19.646  0.00  0.00    +0.000 C 
ATOM      6  C   UNL     1      39.145   7.185  18.746  0.00  0.00    +0.000 A 
ATOM      7  C   UNL     1      39.352   5.880  19.144  0.00  0.00    +0.000 A 
ATOM      8  C   UNL     1      38.954   4.829  18.307  0.00  0.00    +0.000 A 
ATOM      9  C   UNL     1      38.360   5.065  17.092  0.00  0.00    +0.000 A 
ATOM     10  C   UNL     1      38.159   6.373  16.706  0.00  0.00    +0.000 A 
ATOM     11  C   UNL     1      37.512   6.679  15.381  0.00  0.00    +0.000 C 
ATOM     12  C   UNL     1      38.553   7.403  17.534  0.00  0.00    +0.000 A 
ENDBRANCH   2   9
ENDBRANCH   1   3
BRANCH   1  13
ATOM     13  N   UNL     1      37.620   1.423  15.450  0.00  0.00    +0.000 NA
ATOM     14  C   UNL     1      36.269   1.077  15.116  0.00  0.00    +0.000 C 
ATOM     15  O   UNL     1      35.767   1.480  14.038  0.00  0.00    +0.000 OA
BRANCH  14  16
ATOM     16  O   UNL     1      35.477   0.303  15.948  0.00  0.00    +0.000 OA
BRANCH  16  17
ATOM     17  C   UNL     1      36.036  -0.514  16.952  0.00  0.00    +0.000 C 
BRANCH  17  18
ATOM     18  C   UNL     1      36.269  -1.864  16.380  0.00  0.00    +0.000 A 
ATOM     19  C   UNL     1      35.718  -2.330  15.214  0.00  0.00    +0.000 A 
ATOM     20  C   UNL     1      35.965  -3.585  14.734  0.00  0.00    +0.000 A 
ATOM     21  C   UNL     1      36.787  -4.448  15.404  0.00  0.00    +0.000 A 
ATOM     22  C   UNL     1      37.359  -4.014  16.580  0.00  0.00    +0.000 A 
ATOM     23  C   UNL     1      37.106  -2.755  17.053  0.00  0.00    +0.000 A 
ENDBRANCH  17  18
ENDBRANCH  16  17
ENDBRANCH  14  16
ENDBRANCH   1  13
BRANCH   1  24
ATOM     24  C   UNL     1      39.778   1.535  14.401  0.00  0.00    +0.000 C 
BRANCH  24  25
ATOM     25  C   UNL     1      39.596   0.150  14.038  0.00  0.00    +0.000 A 
ATOM     26  C   UNL     1      39.018  -0.306  12.870  0.00  0.00    +0.000 A 
ATOM     27  C   UNL     1      38.864  -1.620  12.550  0.00  0.00    +0.000 A 
ATOM     28  C   UNL     1      39.295  -2.605  13.410  0.00  0.00    +0.000 A 
ATOM     29  C   UNL     1      39.878  -2.194  14.590  0.00  0.00    +0.000 A 
ATOM     30  C   UNL     1      40.023  -0.854  14.892  0.00  0.00    +0.000 A 
ENDBRANCH  24  25
ENDBRANCH   1  24
TORSDOF 8
ENDMDL
MODEL 5
REMARK VINA RESULT:      -7.3      2.746      7.996
REMARK  Name = 
REMARK  8 active torsions:
REMARK  status: ('A' for Active; 'I' for Inactive)
REMARK    1  A    between atoms: C_5  and  N_6
REMARK    2  A    between atoms: C_7  and  C_9
REMARK    3  A    between atoms: C_9  and  C_10
REMARK    4  A    between atoms: C_9  and  N_17
REMARK    5  A    between atoms: C_10  and  C_11
REMARK    6  A    between atoms: C_18  and  O_20
REMARK    7  A    between atoms: O_20  and  C_21
REMARK    8  A    between atoms: C_21  and  C_22
REMARK                            x       y       z     vdW  Elec       q    Type
REMARK                         _______ _______ _______ _____ _____    ______ ____
ROOT
ATOM      1  C   UNL     1      37.294   3.769  14.419  0.00  0.00    +0.000 C 
ENDROOT
BRANCH   1   3
ATOM      2  N   UNL     1      36.139   1.475  14.668  0.00  0.00    +0.000 NA
ATOM      3  C   UNL     1      37.249   2.237  14.894  0.00  0.00    +0.000 C 
ATOM      4  O   UNL     1      38.274   1.821  15.463  0.00  0.00    +0.000 OA
BRANCH   2   9
ATOM      5  C   UNL     1      36.001  -4.016  16.236  0.00  0.00    +0.000 C 
ATOM      6  C   UNL     1      36.026  -2.564  15.842  0.00  0.00    +0.000 A 
ATOM      7  C   UNL     1      36.667  -2.186  14.680  0.00  0.00    +0.000 A 
ATOM      8  C   UNL     1      36.691  -0.835  14.311  0.00  0.00    +0.000 A 
ATOM      9  C   UNL     1      36.091   0.130  15.081  0.00  0.00    +0.000 A 
ATOM     10  C   UNL     1      35.454  -0.261  16.239  0.00  0.00    +0.000 A 
ATOM     11  C   UNL     1      34.782   0.764  17.115  0.00  0.00    +0.000 C 
ATOM     12  C   UNL     1      35.433  -1.592  16.597  0.00  0.00    +0.000 A 
ENDBRANCH   2   9
ENDBRANCH   1   3
BRANCH   1  13
ATOM     13  N   UNL     1      37.752   4.443  15.774  0.00  0.00    +0.000 NA
ATOM     14  C   UNL     1      39.038   5.071  15.677  0.00  0.00    +0.000 C 
ATOM     15  O   UNL     1      39.669   5.043  14.592  0.00  0.00    +0.000 OA
BRANCH  14  16
ATOM     16  O   UNL     1      39.625   5.721  16.750  0.00  0.00    +0.000 OA
BRANCH  16  17
ATOM     17  C   UNL     1      39.361   5.339  18.082  0.00  0.00    +0.000 C 
BRANCH  17  18
ATOM     18  C   UNL     1      38.882   6.532  18.823  0.00  0.00    +0.000 A 
ATOM     19  C   UNL     1      37.848   7.342  18.427  0.00  0.00    +0.000 A 
ATOM     20  C   UNL     1      37.449   8.432  19.149  0.00  0.00    +0.000 A 
ATOM     21  C   UNL     1      38.073   8.772  20.317  0.00  0.00    +0.000 A 
ATOM     22  C   UNL     1      39.117   7.981  20.746  0.00  0.00    +0.000 A 
ATOM     23  C   UNL     1      39.509   6.891  20.017  0.00  0.00    +0.000 A 
ENDBRANCH  17  18
ENDBRANCH  16  17
ENDBRANCH  14  16
ENDBRANCH   1  13
BRANCH   1  24
ATOM     24  C   UNL     1      35.676   4.052  14.630  0.00  0.00    +0.000 C 
BRANCH  24  25
ATOM     25  C   UNL     1      35.268   5.147  13.784  0.00  0.00    +0.000 A 
ATOM     26  C   UNL     1      35.817   5.463  12.557  0.00  0.00    +0.000 A 
ATOM     27  C   UNL     1      35.409   6.500  11.776  0.00  0.00    +0.000 A 
ATOM     28  C   UNL     1      34.382   7.321  12.184  0.00  0.00    +0.000 A 
ATOM     29  C   UNL     1      33.803   7.042  13.403  0.00  0.00    +0.000 A 
ATOM     30  C   UNL     1      34.236   5.984  14.179  0.00  0.00    +0.000 A 
ENDBRANCH  24  25
ENDBRANCH   1  24
TORSDOF 8
ENDMDL
MODEL 6
REMARK VINA RESULT:      -7.3      2.423      6.681
REMARK  Name = 
REMARK  8 active torsions:
REMARK  status: ('A' for Active; 'I' for Inactive)
REMARK    1  A    between atoms: C_5  and  N_6
REMARK    2  A    between atoms: C_7  and  C_9
REMARK    3  A    between atoms: C_9  and  C_10
REMARK    4  A    between atoms: C_9  and  N_17
REMARK    5  A    between atoms: C_10  and  C_11
REMARK    6  A    between atoms: C_18  and  O_20
REMARK    7  A    between atoms: O_20  and  C_21
REMARK    8  A    between atoms: C_21  and  C_22
REMARK                            x       y       z     vdW  Elec       q    Type
REMARK                         _______ _______ _______ _____ _____    ______ ____
ROOT
ATOM      1  C   UNL     1      35.942  -0.293  15.529  0.00  0.00    +0.000 C 
ENDROOT
BRANCH   1   3
ATOM      2  N   UNL     1      38.510  -0.537  15.593  0.00  0.00    +0.000 NA
ATOM      3  C   UNL     1      37.355  -0.688  14.880  0.00  0.00    +0.000 C 
ATOM      4  O   UNL     1      37.308  -1.126  13.718  0.00  0.00    +0.000 OA
BRANCH   2   9
ATOM      5  C   UNL     1      43.547  -2.050  13.366  0.00  0.00    +0.000 C 
ATOM      6  C   UNL     1      42.223  -1.631  13.945  0.00  0.00    +0.000 A 
ATOM      7  C   UNL     1      41.439  -2.562  14.594  0.00  0.00    +0.000 A 
ATOM      8  C   UNL     1      40.206  -2.173  15.134  0.00  0.00    +0.000 A 
ATOM      9  C   UNL     1      39.754  -0.881  15.033  0.00  0.00    +0.000 A 
ATOM     10  C   UNL     1      40.547   0.040  14.381  0.00  0.00    +0.000 A 
ATOM     11  C   UNL     1      40.091   1.468  14.245  0.00  0.00    +0.000 C 
ATOM     12  C   UNL     1      41.759  -0.349  13.852  0.00  0.00    +0.000 A 
ENDBRANCH   2   9
ENDBRANCH   1   3
BRANCH   1  13
ATOM     13  N   UNL     1      36.377   1.008  16.316  0.00  0.00    +0.000 NA
ATOM     14  C   UNL     1      36.368   2.185  15.496  0.00  0.00    +0.000 C 
ATOM     15  O   UNL     1      36.036   2.103  14.288  0.00  0.00    +0.000 OA
BRANCH  14  16
ATOM     16  O   UNL     1      36.716   3.431  15.988  0.00  0.00    +0.000 OA
BRANCH  16  17
ATOM     17  C   UNL     1      37.190   3.601  17.305  0.00  0.00    +0.000 C 
BRANCH  17  18
ATOM     18  C   UNL     1      38.376   4.493  17.263  0.00  0.00    +0.000 A 
ATOM     19  C   UNL     1      38.959   5.080  18.356  0.00  0.00    +0.000 A 
ATOM     20  C   UNL     1      40.051   5.896  18.258  0.00  0.00    +0.000 A 
ATOM     21  C   UNL     1      40.621   6.171  17.046  0.00  0.00    +0.000 A 
ATOM     22  C   UNL     1      40.061   5.599  15.924  0.00  0.00    +0.000 A 
ATOM     23  C   UNL     1      38.968   4.782  16.032  0.00  0.00    +0.000 A 
ENDBRANCH  17  18
ENDBRANCH  16  17
ENDBRANCH  14  16
ENDBRANCH   1  13
BRANCH   1  24
ATOM     24  C   UNL     1      36.065  -1.319  16.823  0.00  0.00    +0.000 C 
BRANCH  24  25
ATOM     25  C   UNL     1      35.768  -2.665  16.396  0.00  0.00    +0.000 A 
ATOM     26  C   UNL     1      34.646  -3.057  15.693  0.00  0.00    +0.000 A 
ATOM     27  C   UNL     1      34.393  -4.334  15.297  0.00  0.00    +0.000 A 
ATOM     28  C   UNL     1      35.282  -5.345  15.586  0.00  0.00    +0.000 A 
ATOM     29  C   UNL     1      36.418  -4.999  16.287  0.00  0.00    +0.000 A 
ATOM     30  C   UNL     1      36.651  -3.695  16.679  0.00  0.00    +0.000 A 
ENDBRANCH  24  25
ENDBRANCH   1  24
TORSDOF 8
ENDMDL
MODEL 7
REMARK VINA RESULT:      -7.2      1.854      2.938
REMARK  Name = 
REMARK  8 active torsions:
REMARK  status: ('A' for Active; 'I' for Inactive)
REMARK    1  A    between atoms: C_5  and  N_6
REMARK    2  A    between atoms: C_7  and  C_9
REMARK    3  A    between atoms: C_9  and  C_10
REMARK    4  A    between atoms: C_9  and  N_17
REMARK    5  A    between atoms: C_10  and  C_11
REMARK    6  A    between atoms: C_18  and  O_20
REMARK    7  A    between atoms: O_20  and  C_21
REMARK    8  A    between atoms: C_21  and  C_22
REMARK                            x       y       z     vdW  Elec       q    Type
REMARK                         _______ _______ _______ _____ _____    ______ ____
ROOT
ATOM      1  C   UNL     1      36.967   4.186  16.293  0.00  0.00    +0.000 C 
ENDROOT
BRANCH   1   3
ATOM      2  N   UNL     1      38.935   5.673  17.053  0.00  0.00    +0.000 NA
ATOM      3  C   UNL     1      38.163   4.572  17.291  0.00  0.00    +0.000 C 
ATOM      4  O   UNL     1      38.320   3.810  18.261  0.00  0.00    +0.000 OA
BRANCH   2   9
ATOM      5  C   UNL     1      43.119   7.076  20.679  0.00  0.00    +0.000 C 
ATOM      6  C   UNL     1      42.032   6.708  19.706  0.00  0.00    +0.000 A 
ATOM      7  C   UNL     1      40.763   6.436  20.176  0.00  0.00    +0.000 A 
ATOM      8  C   UNL     1      39.749   6.093  19.273  0.00  0.00    +0.000 A 
ATOM      9  C   UNL     1      39.986   6.019  17.922  0.00  0.00    +0.000 A 
ATOM     10  C   UNL     1      41.257   6.294  17.466  0.00  0.00    +0.000 A 
ATOM     11  C   UNL     1      41.563   6.224  15.993  0.00  0.00    +0.000 C 
ATOM     12  C   UNL     1      42.251   6.630  18.360  0.00  0.00    +0.000 A 
ENDBRANCH   2   9
ENDBRANCH   1   3
BRANCH   1  13
ATOM     13  N   UNL     1      36.745   2.683  16.730  0.00  0.00    +0.000 NA
ATOM     14  C   UNL     1      35.409   2.223  16.485  0.00  0.00    +0.000 C 
ATOM     15  O   UNL     1      34.563   2.998  15.974  0.00  0.00    +0.000 OA
BRANCH  14  16
ATOM     16  O   UNL     1      35.002   0.936  16.795  0.00  0.00    +0.000 OA
BRANCH  16  17
ATOM     17  C   UNL     1      35.531  -0.188  16.129  0.00  0.00    +0.000 C 
BRANCH  17  18
ATOM     18  C   UNL     1      36.464  -0.881  17.052  0.00  0.00    +0.000 A 
ATOM     19  C   UNL     1      37.515  -1.671  16.663  0.00  0.00    +0.000 A 
ATOM     20  C   UNL     1      38.343  -2.288  17.559  0.00  0.00    +0.000 A 
ATOM     21  C   UNL     1      38.158  -2.145  18.906  0.00  0.00    +0.000 A 
ATOM     22  C   UNL     1      37.110  -1.358  19.334  0.00  0.00    +0.000 A 
ATOM     23  C   UNL     1      36.287  -0.744  18.430  0.00  0.00    +0.000 A 
ENDBRANCH  17  18
ENDBRANCH  16  17
ENDBRANCH  14  16
ENDBRANCH   1  13
BRANCH   1  24
ATOM     24  C   UNL     1      37.941   3.841  14.998  0.00  0.00    +0.000 C 
BRANCH  24  25
ATOM     25  C   UNL     1      37.352   4.387  13.799  0.00  0.00    +0.000 A 
ATOM     26  C   UNL     1      36.225   5.184  13.747  0.00  0.00    +0.000 A 
ATOM     27  C   UNL     1      35.694   5.690  12.601  0.00  0.00    +0.000 A 
ATOM     28  C   UNL     1      36.278   5.425  11.382  0.00  0.00    +0.000 A 
ATOM     29  C   UNL     1      37.406   4.633  11.388  0.00  0.00    +0.000 A 
ATOM     30  C   UNL     1      37.926   4.130  12.564  0.00  0.00    +0.000 A 
ENDBRANCH  24  25
ENDBRANCH   1  24
TORSDOF 8
ENDMDL
MODEL 8
REMARK VINA RESULT:      -7.2      2.652      3.982
REMARK  Name = 
REMARK  8 active torsions:
REMARK  status: ('A' for Active; 'I' for Inactive)
REMARK    1  A    between atoms: C_5  and  N_6
REMARK    2  A    between atoms: C_7  and  C_9
REMARK    3  A    between atoms: C_9  and  C_10
REMARK    4  A    between atoms: C_9  and  N_17
REMARK    5  A    between atoms: C_10  and  C_11
REMARK    6  A    between atoms: C_18  and  O_20
REMARK    7  A    between atoms: O_20  and  C_21
REMARK    8  A    between atoms: C_21  and  C_22
REMARK                            x       y       z     vdW  Elec       q    Type
REMARK                         _______ _______ _______ _____ _____    ______ ____
ROOT
ATOM      1  C   UNL     1      36.146   3.690  15.409  0.00  0.00    +0.000 C 
ENDROOT
BRANCH   1   3
ATOM      2  N   UNL     1      37.763   5.339  16.559  0.00  0.00    +0.000 NA
ATOM      3  C   UNL     1      37.523   4.061  16.144  0.00  0.00    +0.000 C 
ATOM      4  O   UNL     1      38.321   3.119  16.296  0.00  0.00    +0.000 OA
BRANCH   2   9
ATOM      5  C   UNL     1      42.596   6.687  19.290  0.00  0.00    +0.000 C 
ATOM      6  C   UNL     1      41.333   6.335  18.551  0.00  0.00    +0.000 A 
ATOM      7  C   UNL     1      40.201   5.994  19.263  0.00  0.00    +0.000 A 
ATOM      8  C   UNL     1      39.025   5.665  18.577  0.00  0.00    +0.000 A 
ATOM      9  C   UNL     1      38.969   5.674  17.204  0.00  0.00    +0.000 A 
ATOM     10  C   UNL     1      40.106   6.017  16.506  0.00  0.00    +0.000 A 
ATOM     11  C   UNL     1      40.091   6.038  15.000  0.00  0.00    +0.000 C 
ATOM     12  C   UNL     1      41.261   6.339  17.187  0.00  0.00    +0.000 A 
ENDBRANCH   2   9
ENDBRANCH   1   3
BRANCH   1  13
ATOM     13  N   UNL     1      36.359   2.133  15.238  0.00  0.00    +0.000 NA
ATOM     14  C   UNL     1      35.390   1.355  15.955  0.00  0.00    +0.000 C 
ATOM     15  O   UNL     1      34.497   1.931  16.625  0.00  0.00    +0.000 OA
BRANCH  14  16
ATOM     16  O   UNL     1      35.396  -0.030  15.940  0.00  0.00    +0.000 OA
BRANCH  16  17
ATOM     17  C   UNL     1      36.194  -0.776  16.830  0.00  0.00    +0.000 C 
BRANCH  17  18
ATOM     18  C   UNL     1      36.133  -2.203  16.426  0.00  0.00    +0.000 A 
ATOM     19  C   UNL     1      37.111  -3.133  16.670  0.00  0.00    +0.000 A 
ATOM     20  C   UNL     1      37.003  -4.436  16.272  0.00  0.00    +0.000 A 
ATOM     21  C   UNL     1      35.898  -4.880  15.602  0.00  0.00    +0.000 A 
ATOM     22  C   UNL     1      34.894  -3.973  15.337  0.00  0.00    +0.000 A 
ATOM     23  C   UNL     1      35.011  -2.670  15.740  0.00  0.00    +0.000 A 
ENDBRANCH  17  18
ENDBRANCH  16  17
ENDBRANCH  14  16
ENDBRANCH   1  13
BRANCH   1  24
ATOM     24  C   UNL     1      36.659   4.096  13.888  0.00  0.00    +0.000 C 
BRANCH  24  25
ATOM     25  C   UNL     1      35.792   5.116  13.348  0.00  0.00    +0.000 A 
ATOM     26  C   UNL     1      35.870   5.647  12.075  0.00  0.00    +0.000 A 
ATOM     27  C   UNL     1      35.035   6.605  11.589  0.00  0.00    +0.000 A 
ATOM     28  C   UNL     1      34.025   7.116  12.372  0.00  0.00    +0.000 A 
ATOM     29  C   UNL     1      33.910   6.615  13.651  0.00  0.00    +0.000 A 
ATOM     30  C   UNL     1      34.771   5.642  14.122  0.00  0.00    +0.000 A 
ENDBRANCH  24  25
ENDBRANCH   1  24
TORSDOF 8
ENDMDL
MODEL 9
REMARK VINA RESULT:      -6.9      3.367      7.095
REMARK  Name = 
REMARK  8 active torsions:
REMARK  status: ('A' for Active; 'I' for Inactive)
REMARK    1  A    between atoms: C_5  and  N_6
REMARK    2  A    between atoms: C_7  and  C_9
REMARK    3  A    between atoms: C_9  and  C_10
REMARK    4  A    between atoms: C_9  and  N_17
REMARK    5  A    between atoms: C_10  and  C_11
REMARK    6  A    between atoms: C_18  and  O_20
REMARK    7  A    between atoms: O_20  and  C_21
REMARK    8  A    between atoms: C_21  and  C_22
REMARK                            x       y       z     vdW  Elec       q    Type
REMARK                         _______ _______ _______ _____ _____    ______ ____
ROOT
ATOM      1  C   UNL     1      36.488   3.558  16.091  0.00  0.00    +0.000 C 
ENDROOT
BRANCH   1   3
ATOM      2  N   UNL     1      36.202   5.363  14.268  0.00  0.00    +0.000 NA
ATOM      3  C   UNL     1      35.857   4.124  14.729  0.00  0.00    +0.000 C 
ATOM      4  O   UNL     1      35.058   3.366  14.151  0.00  0.00    +0.000 OA
BRANCH   2   9
ATOM      5  C   UNL     1      34.077   7.362   9.358  0.00  0.00    +0.000 C 
ATOM      6  C   UNL     1      34.620   6.845  10.662  0.00  0.00    +0.000 A 
ATOM      7  C   UNL     1      35.757   6.064  10.664  0.00  0.00    +0.000 A 
ATOM      8  C   UNL     1      36.265   5.582  11.877  0.00  0.00    +0.000 A 
ATOM      9  C   UNL     1      35.655   5.867  13.074  0.00  0.00    +0.000 A 
ATOM     10  C   UNL     1      34.519   6.649  13.059  0.00  0.00    +0.000 A 
ATOM     11  C   UNL     1      33.817   6.987  14.347  0.00  0.00    +0.000 C 
ATOM     12  C   UNL     1      34.025   7.121  11.861  0.00  0.00    +0.000 A 
ENDBRANCH   2   9
ENDBRANCH   1   3
BRANCH   1  13
ATOM     13  N   UNL     1      37.800   4.438  16.149  0.00  0.00    +0.000 NA
ATOM     14  C   UNL     1      38.431   4.414  17.437  0.00  0.00    +0.000 C 
ATOM     15  O   UNL     1      37.928   3.738  18.368  0.00  0.00    +0.000 OA
BRANCH  14  16
ATOM     16  O   UNL     1      39.594   5.117  17.704  0.00  0.00    +0.000 OA
BRANCH  16  17
ATOM     17  C   UNL     1      39.632   6.149  18.664  0.00  0.00    +0.000 C 
BRANCH  17  18
ATOM     18  C   UNL     1      41.047   6.370  19.054  0.00  0.00    +0.000 A 
ATOM     19  C   UNL     1      42.061   6.693  18.189  0.00  0.00    +0.000 A 
ATOM     20  C   UNL     1      43.349   6.884  18.604  0.00  0.00    +0.000 A 
ATOM     21  C   UNL     1      43.692   6.760  19.921  0.00  0.00    +0.000 A 
ATOM     22  C   UNL     1      42.699   6.436  20.821  0.00  0.00    +0.000 A 
ATOM     23  C   UNL     1      41.411   6.247  20.396  0.00  0.00    +0.000 A 
ENDBRANCH  17  18
ENDBRANCH  16  17
ENDBRANCH  14  16
ENDBRANCH   1  13
BRANCH   1  24
ATOM     24  C   UNL     1      37.205   2.235  15.400  0.00  0.00    +0.000 C 
BRANCH  24  25
ATOM     25  C   UNL     1      36.504   1.042  15.810  0.00  0.00    +0.000 A 
ATOM     26  C   UNL     1      35.553   0.972  16.809  0.00  0.00    +0.000 A 
ATOM     27  C   UNL     1      34.902  -0.166  17.173  0.00  0.00    +0.000 A 
ATOM     28  C   UNL     1      35.168  -1.358  16.537  0.00  0.00    +0.000 A 
ATOM     29  C   UNL     1      36.112  -1.334  15.532  0.00  0.00    +0.000 A 
ATOM     30  C   UNL     1      36.759  -0.165  15.181  0.00  0.00    +0.000 A 
ENDBRANCH  24  25
ENDBRANCH   1  24
TORSDOF 8
ENDMDL
MODEL 10
REMARK VINA RESULT:      -6.8      3.782      6.123
REMARK  Name = 
REMARK  8 active torsions:
REMARK  status: ('A' for Active; 'I' for Inactive)
REMARK    1  A    between atoms: C_5  and  N_6
REMARK    2  A    between atoms: C_7  and  C_9
REMARK    3  A    between atoms: C_9  and  C_10
REMARK    4  A    between atoms: C_9  and  N_17
REMARK    5  A    between atoms: C_10  and  C_11
REMARK    6  A    between atoms: C_18  and  O_20
REMARK    7  A    between atoms: O_20  and  C_21
REMARK    8  A    between atoms: C_21  and  C_22
REMARK                            x       y       z     vdW  Elec       q    Type
REMARK                         _______ _______ _______ _____ _____    ______ ____
ROOT
ATOM      1  C   UNL     1      36.652   2.182  15.772  0.00  0.00    +0.000 C 
ENDROOT
BRANCH   1   3
ATOM      2  N   UNL     1      37.720   0.012  14.874  0.00  0.00    +0.000 NA
ATOM      3  C   UNL     1      37.883   1.328  15.197  0.00  0.00    +0.000 C 
ATOM      4  O   UNL     1      38.955   1.946  15.077  0.00  0.00    +0.000 OA
BRANCH   2   9
ATOM      5  C   UNL     1      42.118  -3.080  12.942  0.00  0.00    +0.000 C 
ATOM      6  C   UNL     1      40.953  -2.261  13.430  0.00  0.00    +0.000 A 
ATOM      7  C   UNL     1      40.744  -2.116  14.786  0.00  0.00    +0.000 A 
ATOM      8  C   UNL     1      39.661  -1.355  15.242  0.00  0.00    +0.000 A 
ATOM      9  C   UNL     1      38.794  -0.745  14.369  0.00  0.00    +0.000 A 
ATOM     10  C   UNL     1      39.013  -0.898  13.016  0.00  0.00    +0.000 A 
ATOM     11  C   UNL     1      38.087  -0.249  12.022  0.00  0.00    +0.000 C 
ATOM     12  C   UNL     1      40.082  -1.649  12.574  0.00  0.00    +0.000 A 
ENDBRANCH   2   9
ENDBRANCH   1   3
BRANCH   1  13
ATOM     13  N   UNL     1      35.768   1.003  16.343  0.00  0.00    +0.000 NA
ATOM     14  C   UNL     1      35.977   0.777  17.744  0.00  0.00    +0.000 C 
ATOM     15  O   UNL     1      36.796   1.487  18.377  0.00  0.00    +0.000 OA
BRANCH  14  16
ATOM     16  O   UNL     1      35.302  -0.211  18.442  0.00  0.00    +0.000 OA
BRANCH  16  17
ATOM     17  C   UNL     1      35.040  -1.473  17.872  0.00  0.00    +0.000 C 
BRANCH  17  18
ATOM     18  C   UNL     1      36.299  -2.259  17.881  0.00  0.00    +0.000 A 
ATOM     19  C   UNL     1      36.662  -3.177  16.929  0.00  0.00    +0.000 A 
ATOM     20  C   UNL     1      37.835  -3.875  16.989  0.00  0.00    +0.000 A 
ATOM     21  C   UNL     1      38.716  -3.688  18.018  0.00  0.00    +0.000 A 
ATOM     22  C   UNL     1      38.385  -2.773  18.995  0.00  0.00    +0.000 A 
ATOM     23  C   UNL     1      37.208  -2.078  18.926  0.00  0.00    +0.000 A 
ENDBRANCH  17  18
ENDBRANCH  16  17
ENDBRANCH  14  16
ENDBRANCH   1  13
BRANCH   1  24
ATOM     24  C   UNL     1      35.852   2.306  14.327  0.00  0.00    +0.000 C 
BRANCH  24  25
ATOM     25  C   UNL     1      35.850   3.684  13.899  0.00  0.00    +0.000 A 
ATOM     26  C   UNL     1      35.007   4.672  14.371  0.00  0.00    +0.000 A 
ATOM     27  C   UNL     1      35.030   5.966  13.954  0.00  0.00    +0.000 A 
ATOM     28  C   UNL     1      35.933   6.378  12.999  0.00  0.00    +0.000 A 
ATOM     29  C   UNL     1      36.794   5.424  12.500  0.00  0.00    +0.000 A 
ATOM     30  C   UNL     1      36.751   4.116  12.940  0.00  0.00    +0.000 A 
ENDBRANCH  24  25
ENDBRANCH   1  24
TORSDOF 8
ENDMDL
