MODEL 1
REMARK VINA RESULT:      -7.3      0.000      0.000
REMARK  Name = 
REMARK  2 active torsions:
REMARK  status: ('A' for Active; 'I' for Inactive)
REMARK    1  A    between atoms: O_2  and  C_3
REMARK    2  A    between atoms: C_12  and  O_13
REMARK                            x       y       z     vdW  Elec       q    Type
REMARK                         _______ _______ _______ _____ _____    ______ ____
ROOT
ATOM      1  C   UNL     1      14.792  12.332  35.172  0.00  0.00    +0.000 A 
ATOM      2  C   UNL     1      13.906  12.309  36.227  0.00  0.00    +0.000 A 
ATOM      3  C   UNL     1      14.267  11.728  37.438  0.00  0.00    +0.000 A 
ATOM      4  C   UNL     1      15.528  11.159  37.607  0.00  0.00    +0.000 A 
ATOM      5  C   UNL     1      15.873  10.584  38.821  0.00  0.00    +0.000 A 
ATOM      6  C   UNL     1      17.146  10.040  38.906  0.00  0.00    +0.000 A 
ATOM      7  N   UNL     1      18.012  10.060  37.877  0.00  0.00    +0.000 N 
ATOM      8  C   UNL     1      17.678  10.626  36.679  0.00  0.00    +0.000 A 
ATOM      9  C   UNL     1      16.420  11.174  36.567  0.00  0.00    +0.000 A 
ATOM     10  C   UNL     1      16.027  11.765  35.362  0.00  0.00    +0.000 A 
ATOM     11  C   UNL     1      19.329   9.495  37.974  0.00  0.00    +0.000 C 
ATOM     12  C   UNL     1      19.701   8.887  39.246  0.00  0.00    +0.000 C 
ATOM     13  C   UNL     1      18.736   8.880  40.349  0.00  0.00    +0.000 A 
ATOM     14  C   UNL     1      19.106   8.290  41.572  0.00  0.00    +0.000 A 
ATOM     15  C   UNL     1      18.202   8.282  42.608  0.00  0.00    +0.000 A 
ATOM     16  O   UNL     1      18.572   7.699  43.814  0.00  0.00    +0.000 OA
ATOM     17  C   UNL     1      16.954   8.839  42.457  0.00  0.00    +0.000 A 
ATOM     18  O   UNL     1      16.014   8.854  43.472  0.00  0.00    +0.000 OA
ATOM     19  C   UNL     1      16.610   9.411  41.253  0.00  0.00    +0.000 A 
ATOM     20  C   UNL     1      17.494   9.437  40.190  0.00  0.00    +0.000 A 
ENDROOT
BRANCH   1  22
ATOM     21  C   UNL     1      13.656  14.084  33.887  0.00  0.00    +0.000 C 
ATOM     22  O   UNL     1      14.411  12.913  33.982  0.00  0.00    +0.000 OA
ENDBRANCH   1  22
BRANCH  10  23
ATOM     23  O   UNL     1      16.927  11.790  34.287  0.00  0.00    +0.000 OA
ATOM     24  C   UNL     1      16.772  10.759  33.311  0.00  0.00    +0.000 C 
ENDBRANCH  10  23
TORSDOF 2
ENDMDL
MODEL 2
REMARK VINA RESULT:      -7.1      1.298      7.268
REMARK  Name = 
REMARK  2 active torsions:
REMARK  status: ('A' for Active; 'I' for Inactive)
REMARK    1  A    between atoms: O_2  and  C_3
REMARK    2  A    between atoms: C_12  and  O_13
REMARK                            x       y       z     vdW  Elec       q    Type
REMARK                         _______ _______ _______ _____ _____    ______ ____
ROOT
ATOM      1  C   UNL     1      17.844   7.946  42.667  0.00  0.00    +0.000 A 
ATOM      2  C   UNL     1      16.623   8.561  42.839  0.00  0.00    +0.000 A 
ATOM      3  C   UNL     1      16.038   9.270  41.795  0.00  0.00    +0.000 A 
ATOM      4  C   UNL     1      16.675   9.373  40.560  0.00  0.00    +0.000 A 
ATOM      5  C   UNL     1      16.080  10.083  39.528  0.00  0.00    +0.000 A 
ATOM      6  C   UNL     1      16.778  10.137  38.332  0.00  0.00    +0.000 A 
ATOM      7  N   UNL     1      17.971   9.538  38.162  0.00  0.00    +0.000 N 
ATOM      8  C   UNL     1      18.563   8.837  39.175  0.00  0.00    +0.000 A 
ATOM      9  C   UNL     1      17.890   8.767  40.374  0.00  0.00    +0.000 A 
ATOM     10  C   UNL     1      18.452   8.061  41.443  0.00  0.00    +0.000 A 
ATOM     11  C   UNL     1      18.689   9.599  36.920  0.00  0.00    +0.000 C 
ATOM     12  C   UNL     1      18.071  10.344  35.829  0.00  0.00    +0.000 C 
ATOM     13  C   UNL     1      16.771  10.986  36.044  0.00  0.00    +0.000 A 
ATOM     14  C   UNL     1      16.184  11.702  34.984  0.00  0.00    +0.000 A 
ATOM     15  C   UNL     1      14.965  12.306  35.183  0.00  0.00    +0.000 A 
ATOM     16  O   UNL     1      14.389  13.012  34.134  0.00  0.00    +0.000 OA
ATOM     17  C   UNL     1      14.323  12.214  36.396  0.00  0.00    +0.000 A 
ATOM     18  O   UNL     1      13.096  12.804  36.640  0.00  0.00    +0.000 OA
ATOM     19  C   UNL     1      14.913  11.508  37.420  0.00  0.00    +0.000 A 
ATOM     20  C   UNL     1      16.138  10.889  37.256  0.00  0.00    +0.000 A 
ENDROOT
BRANCH   1  22
ATOM     21  C   UNL     1      17.766   6.207  44.395  0.00  0.00    +0.000 C 
ATOM     22  O   UNL     1      18.403   7.249  43.717  0.00  0.00    +0.000 OA
ENDBRANCH   1  22
BRANCH  10  23
ATOM     23  O   UNL     1      19.694   7.434  41.272  0.00  0.00    +0.000 OA
ATOM     24  C   UNL     1      19.659   6.057  40.895  0.00  0.00    +0.000 C 
ENDBRANCH  10  23
TORSDOF 2
ENDMDL
MODEL 3
REMARK VINA RESULT:      -7.1     18.862     22.057
REMARK  Name = 
REMARK  2 active torsions:
REMARK  status: ('A' for Active; 'I' for Inactive)
REMARK    1  A    between atoms: O_2  and  C_3
REMARK    2  A    between atoms: C_12  and  O_13
REMARK                            x       y       z     vdW  Elec       q    Type
REMARK                         _______ _______ _______ _____ _____    ______ ____
ROOT
ATOM      1  C   UNL     1      30.322  22.398  31.292  0.00  0.00    +0.000 A 
ATOM      2  C   UNL     1      28.946  22.377  31.218  0.00  0.00    +0.000 A 
ATOM      3  C   UNL     1      28.303  22.522  29.994  0.00  0.00    +0.000 A 
ATOM      4  C   UNL     1      29.037  22.693  28.821  0.00  0.00    +0.000 A 
ATOM      5  C   UNL     1      28.382  22.837  27.606  0.00  0.00    +0.000 A 
ATOM      6  C   UNL     1      29.184  23.002  26.488  0.00  0.00    +0.000 A 
ATOM      7  N   UNL     1      30.528  23.023  26.557  0.00  0.00    +0.000 N 
ATOM      8  C   UNL     1      31.179  22.882  27.750  0.00  0.00    +0.000 A 
ATOM      9  C   UNL     1      30.405  22.716  28.878  0.00  0.00    +0.000 A 
ATOM     10  C   UNL     1      31.023  22.567  30.124  0.00  0.00    +0.000 A 
ATOM     11  C   UNL     1      31.351  23.195  25.394  0.00  0.00    +0.000 C 
ATOM     12  C   UNL     1      30.672  23.348  24.112  0.00  0.00    +0.000 C 
ATOM     13  C   UNL     1      29.207  23.320  24.068  0.00  0.00    +0.000 A 
ATOM     14  C   UNL     1      28.562  23.468  22.827  0.00  0.00    +0.000 A 
ATOM     15  C   UNL     1      27.188  23.443  22.783  0.00  0.00    +0.000 A 
ATOM     16  O   UNL     1      26.555  23.590  21.554  0.00  0.00    +0.000 OA
ATOM     17  C   UNL     1      26.450  23.276  23.931  0.00  0.00    +0.000 A 
ATOM     18  O   UNL     1      25.067  23.243  23.933  0.00  0.00    +0.000 OA
ATOM     19  C   UNL     1      27.099  23.132  25.136  0.00  0.00    +0.000 A 
ATOM     20  C   UNL     1      28.479  23.153  25.218  0.00  0.00    +0.000 A 
ENDROOT
BRANCH   1  22
ATOM     21  C   UNL     1      30.550  21.317  33.481  0.00  0.00    +0.000 C 
ATOM     22  O   UNL     1      30.936  22.251  32.517  0.00  0.00    +0.000 OA
ENDBRANCH   1  22
BRANCH  10  23
ATOM     23  O   UNL     1      32.422  22.588  30.202  0.00  0.00    +0.000 OA
ATOM     24  C   UNL     1      33.072  21.316  30.217  0.00  0.00    +0.000 C 
ENDBRANCH  10  23
TORSDOF 2
ENDMDL
MODEL 4
REMARK VINA RESULT:      -7.0     19.183     21.054
REMARK  Name = 
REMARK  2 active torsions:
REMARK  status: ('A' for Active; 'I' for Inactive)
REMARK    1  A    between atoms: O_2  and  C_3
REMARK    2  A    between atoms: C_12  and  O_13
REMARK                            x       y       z     vdW  Elec       q    Type
REMARK                         _______ _______ _______ _____ _____    ______ ____
ROOT
ATOM      1  C   UNL     1      28.233  23.059  23.827  0.00  0.00    +0.000 A 
ATOM      2  C   UNL     1      29.600  22.957  23.692  0.00  0.00    +0.000 A 
ATOM      3  C   UNL     1      30.410  22.805  24.812  0.00  0.00    +0.000 A 
ATOM      4  C   UNL     1      29.855  22.754  26.090  0.00  0.00    +0.000 A 
ATOM      5  C   UNL     1      30.675  22.602  27.198  0.00  0.00    +0.000 A 
ATOM      6  C   UNL     1      30.045  22.561  28.432  0.00  0.00    +0.000 A 
ATOM      7  N   UNL     1      28.710  22.661  28.566  0.00  0.00    +0.000 N 
ATOM      8  C   UNL     1      27.896  22.811  27.479  0.00  0.00    +0.000 A 
ATOM      9  C   UNL     1      28.497  22.855  26.240  0.00  0.00    +0.000 A 
ATOM     10  C   UNL     1      27.709  23.007  25.094  0.00  0.00    +0.000 A 
ATOM     11  C   UNL     1      28.065  22.617  29.848  0.00  0.00    +0.000 C 
ATOM     12  C   UNL     1      28.919  22.458  31.020  0.00  0.00    +0.000 C 
ATOM     13  C   UNL     1      30.370  22.352  30.841  0.00  0.00    +0.000 A 
ATOM     14  C   UNL     1      31.184  22.199  31.978  0.00  0.00    +0.000 A 
ATOM     15  C   UNL     1      32.546  22.099  31.814  0.00  0.00    +0.000 A 
ATOM     16  O   UNL     1      33.346  21.948  32.940  0.00  0.00    +0.000 OA
ATOM     17  C   UNL     1      33.108  22.148  30.560  0.00  0.00    +0.000 A 
ATOM     18  O   UNL     1      34.472  22.051  30.348  0.00  0.00    +0.000 OA
ATOM     19  C   UNL     1      32.295  22.298  29.460  0.00  0.00    +0.000 A 
ATOM     20  C   UNL     1      30.922  22.401  29.588  0.00  0.00    +0.000 A 
ENDROOT
BRANCH   1  22
ATOM     21  C   UNL     1      27.446  24.350  21.896  0.00  0.00    +0.000 C 
ATOM     22  O   UNL     1      27.451  23.209  22.702  0.00  0.00    +0.000 OA
ENDBRANCH   1  22
BRANCH  10  23
ATOM     23  O   UNL     1      26.318  23.110  25.229  0.00  0.00    +0.000 OA
ATOM     24  C   UNL     1      25.783  24.435  25.255  0.00  0.00    +0.000 C 
ENDBRANCH  10  23
TORSDOF 2
ENDMDL
MODEL 5
REMARK VINA RESULT:      -6.9     18.788     21.599
REMARK  Name = 
REMARK  2 active torsions:
REMARK  status: ('A' for Active; 'I' for Inactive)
REMARK    1  A    between atoms: O_2  and  C_3
REMARK    2  A    between atoms: C_12  and  O_13
REMARK                            x       y       z     vdW  Elec       q    Type
REMARK                         _______ _______ _______ _____ _____    ______ ____
ROOT
ATOM      1  C   UNL     1      32.673  21.949  31.030  0.00  0.00    +0.000 A 
ATOM      2  C   UNL     1      33.162  21.761  29.756  0.00  0.00    +0.000 A 
ATOM      3  C   UNL     1      32.337  21.938  28.651  0.00  0.00    +0.000 A 
ATOM      4  C   UNL     1      31.003  22.308  28.810  0.00  0.00    +0.000 A 
ATOM      5  C   UNL     1      30.192  22.481  27.699  0.00  0.00    +0.000 A 
ATOM      6  C   UNL     1      28.878  22.849  27.944  0.00  0.00    +0.000 A 
ATOM      7  N   UNL     1      28.398  23.033  29.188  0.00  0.00    +0.000 N 
ATOM      8  C   UNL     1      29.191  22.863  30.287  0.00  0.00    +0.000 A 
ATOM      9  C   UNL     1      30.502  22.498  30.071  0.00  0.00    +0.000 A 
ATOM     10  C   UNL     1      31.357  22.312  31.163  0.00  0.00    +0.000 A 
ATOM     11  C   UNL     1      27.035  23.413  29.433  0.00  0.00    +0.000 C 
ATOM     12  C   UNL     1      26.174  23.598  28.271  0.00  0.00    +0.000 C 
ATOM     13  C   UNL     1      26.726  23.390  26.929  0.00  0.00    +0.000 A 
ATOM     14  C   UNL     1      25.886  23.571  25.815  0.00  0.00    +0.000 A 
ATOM     15  C   UNL     1      26.401  23.376  24.554  0.00  0.00    +0.000 A 
ATOM     16  O   UNL     1      25.568  23.556  23.457  0.00  0.00    +0.000 OA
ATOM     17  C   UNL     1      27.715  23.011  24.379  0.00  0.00    +0.000 A 
ATOM     18  O   UNL     1      28.275  22.806  23.131  0.00  0.00    +0.000 OA
ATOM     19  C   UNL     1      28.521  22.840  25.482  0.00  0.00    +0.000 A 
ATOM     20  C   UNL     1      28.037  23.026  26.764  0.00  0.00    +0.000 A 
ENDROOT
BRANCH   1  22
ATOM     21  C   UNL     1      34.515  20.798  32.169  0.00  0.00    +0.000 C 
ATOM     22  O   UNL     1      33.511  21.767  32.109  0.00  0.00    +0.000 OA
ENDBRANCH   1  22
BRANCH  10  23
ATOM     23  O   UNL     1      30.862  22.503  32.460  0.00  0.00    +0.000 OA
ATOM     24  C   UNL     1      30.572  21.320  33.206  0.00  0.00    +0.000 C 
ENDBRANCH  10  23
TORSDOF 2
ENDMDL
MODEL 6
REMARK VINA RESULT:      -6.6     19.001     22.008
REMARK  Name = 
REMARK  2 active torsions:
REMARK  status: ('A' for Active; 'I' for Inactive)
REMARK    1  A    between atoms: O_2  and  C_3
REMARK    2  A    between atoms: C_12  and  O_13
REMARK                            x       y       z     vdW  Elec       q    Type
REMARK                         _______ _______ _______ _____ _____    ______ ____
ROOT
ATOM      1  C   UNL     1      24.433  25.859  30.052  0.00  0.00    +0.000 A 
ATOM      2  C   UNL     1      23.988  26.635  29.003  0.00  0.00    +0.000 A 
ATOM      3  C   UNL     1      24.569  26.519  27.745  0.00  0.00    +0.000 A 
ATOM      4  C   UNL     1      25.609  25.618  27.521  0.00  0.00    +0.000 A 
ATOM      5  C   UNL     1      26.178  25.513  26.261  0.00  0.00    +0.000 A 
ATOM      6  C   UNL     1      27.207  24.594  26.122  0.00  0.00    +0.000 A 
ATOM      7  N   UNL     1      27.643  23.836  27.145  0.00  0.00    +0.000 N 
ATOM      8  C   UNL     1      27.086  23.935  28.389  0.00  0.00    +0.000 A 
ATOM      9  C   UNL     1      26.062  24.840  28.554  0.00  0.00    +0.000 A 
ATOM     10  C   UNL     1      25.458  24.980  29.808  0.00  0.00    +0.000 A 
ATOM     11  C   UNL     1      28.709  22.886  26.993  0.00  0.00    +0.000 C 
ATOM     12  C   UNL     1      29.314  22.769  25.672  0.00  0.00    +0.000 C 
ATOM     13  C   UNL     1      28.818  23.608  24.577  0.00  0.00    +0.000 A 
ATOM     14  C   UNL     1      29.409  23.486  23.307  0.00  0.00    +0.000 A 
ATOM     15  C   UNL     1      28.946  24.272  22.278  0.00  0.00    +0.000 A 
ATOM     16  O   UNL     1      29.533  24.149  21.025  0.00  0.00    +0.000 OA
ATOM     17  C   UNL     1      27.920  25.166  22.482  0.00  0.00    +0.000 A 
ATOM     18  O   UNL     1      27.422  25.975  21.477  0.00  0.00    +0.000 OA
ATOM     19  C   UNL     1      27.354  25.270  23.733  0.00  0.00    +0.000 A 
ATOM     20  C   UNL     1      27.795  24.496  24.790  0.00  0.00    +0.000 A 
ENDROOT
BRANCH   1  22
ATOM     21  C   UNL     1      22.910  26.983  31.612  0.00  0.00    +0.000 C 
ATOM     22  O   UNL     1      23.841  25.993  31.290  0.00  0.00    +0.000 OA
ENDBRANCH   1  22
BRANCH  10  23
ATOM     23  O   UNL     1      25.907  24.193  30.876  0.00  0.00    +0.000 OA
ATOM     24  C   UNL     1      26.873  24.793  31.741  0.00  0.00    +0.000 C 
ENDBRANCH  10  23
TORSDOF 2
ENDMDL
MODEL 7
REMARK VINA RESULT:      -6.4     17.472     19.793
REMARK  Name = 
REMARK  2 active torsions:
REMARK  status: ('A' for Active; 'I' for Inactive)
REMARK    1  A    between atoms: O_2  and  C_3
REMARK    2  A    between atoms: C_12  and  O_13
REMARK                            x       y       z     vdW  Elec       q    Type
REMARK                         _______ _______ _______ _____ _____    ______ ____
ROOT
ATOM      1  C   UNL     1      34.094   5.999  37.805  0.00  0.00    +0.000 A 
ATOM      2  C   UNL     1      34.057   5.031  38.784  0.00  0.00    +0.000 A 
ATOM      3  C   UNL     1      33.999   3.684  38.442  0.00  0.00    +0.000 A 
ATOM      4  C   UNL     1      33.976   3.290  37.105  0.00  0.00    +0.000 A 
ATOM      5  C   UNL     1      33.918   1.943  36.779  0.00  0.00    +0.000 A 
ATOM      6  C   UNL     1      33.898   1.635  35.428  0.00  0.00    +0.000 A 
ATOM      7  N   UNL     1      33.933   2.580  34.470  0.00  0.00    +0.000 N 
ATOM      8  C   UNL     1      33.991   3.908  34.784  0.00  0.00    +0.000 A 
ATOM      9  C   UNL     1      34.012   4.241  36.120  0.00  0.00    +0.000 A 
ATOM     10  C   UNL     1      34.070   5.588  36.496  0.00  0.00    +0.000 A 
ATOM     11  C   UNL     1      33.913   2.252  33.072  0.00  0.00    +0.000 C 
ATOM     12  C   UNL     1      33.851   0.839  32.718  0.00  0.00    +0.000 C 
ATOM     13  C   UNL     1      33.814  -0.167  33.784  0.00  0.00    +0.000 A 
ATOM     14  C   UNL     1      33.754  -1.528  33.432  0.00  0.00    +0.000 A 
ATOM     15  C   UNL     1      33.719  -2.473  34.430  0.00  0.00    +0.000 A 
ATOM     16  O   UNL     1      33.660  -3.816  34.077  0.00  0.00    +0.000 OA
ATOM     17  C   UNL     1      33.741  -2.100  35.753  0.00  0.00    +0.000 A 
ATOM     18  O   UNL     1      33.707  -3.017  36.789  0.00  0.00    +0.000 OA
ATOM     19  C   UNL     1      33.799  -0.764  36.078  0.00  0.00    +0.000 A 
ATOM     20  C   UNL     1      33.836   0.214  35.101  0.00  0.00    +0.000 A 
ENDROOT
BRANCH   1  22
ATOM     21  C   UNL     1      33.348   7.907  39.154  0.00  0.00    +0.000 C 
ATOM     22  O   UNL     1      34.152   7.327  38.170  0.00  0.00    +0.000 OA
ENDBRANCH   1  22
BRANCH  10  23
ATOM     23  O   UNL     1      34.108   6.575  35.503  0.00  0.00    +0.000 OA
ATOM     24  C   UNL     1      35.395   7.116  35.199  0.00  0.00    +0.000 C 
ENDBRANCH  10  23
TORSDOF 2
ENDMDL
MODEL 8
REMARK VINA RESULT:      -6.2     21.417     22.230
REMARK  Name = 
REMARK  2 active torsions:
REMARK  status: ('A' for Active; 'I' for Inactive)
REMARK    1  A    between atoms: O_2  and  C_3
REMARK    2  A    between atoms: C_12  and  O_13
REMARK                            x       y       z     vdW  Elec       q    Type
REMARK                         _______ _______ _______ _____ _____    ______ ____
ROOT
ATOM      1  C   UNL     1      13.359  -9.547  33.762  0.00  0.00    +0.000 A 
ATOM      2  C   UNL     1      13.599  -8.810  34.901  0.00  0.00    +0.000 A 
ATOM      3  C   UNL     1      12.688  -8.818  35.951  0.00  0.00    +0.000 A 
ATOM      4  C   UNL     1      11.516  -9.569  35.871  0.00  0.00    +0.000 A 
ATOM      5  C   UNL     1      10.616  -9.567  36.927  0.00  0.00    +0.000 A 
ATOM      6  C   UNL     1       9.476 -10.340  36.767  0.00  0.00    +0.000 A 
ATOM      7  N   UNL     1       9.239 -11.059  35.655  0.00  0.00    +0.000 N 
ATOM      8  C   UNL     1      10.121 -11.065  34.612  0.00  0.00    +0.000 A 
ATOM      9  C   UNL     1      11.263 -10.306  34.745  0.00  0.00    +0.000 A 
ATOM     10  C   UNL     1      12.199 -10.278  33.706  0.00  0.00    +0.000 A 
ATOM     11  C   UNL     1       8.055 -11.857  35.498  0.00  0.00    +0.000 C 
ATOM     12  C   UNL     1       7.102 -11.861  36.603  0.00  0.00    +0.000 C 
ATOM     13  C   UNL     1       7.388 -11.067  37.801  0.00  0.00    +0.000 A 
ATOM     14  C   UNL     1       6.462 -11.079  38.860  0.00  0.00    +0.000 A 
ATOM     15  C   UNL     1       6.728 -10.334  39.985  0.00  0.00    +0.000 A 
ATOM     16  O   UNL     1       5.810 -10.349  41.029  0.00  0.00    +0.000 OA
ATOM     17  C   UNL     1       7.879  -9.588  40.080  0.00  0.00    +0.000 A 
ATOM     18  O   UNL     1       8.187  -8.826  41.193  0.00  0.00    +0.000 OA
ATOM     19  C   UNL     1       8.773  -9.590  39.033  0.00  0.00    +0.000 A 
ATOM     20  C   UNL     1       8.539 -10.326  37.887  0.00  0.00    +0.000 A 
ENDROOT
BRANCH   1  22
ATOM     21  C   UNL     1      15.407 -10.342  32.673  0.00  0.00    +0.000 C 
ATOM     22  O   UNL     1      14.277  -9.523  32.735  0.00  0.00    +0.000 OA
ENDBRANCH   1  22
BRANCH  10  23
ATOM     23  O   UNL     1      11.957 -11.026  32.546  0.00  0.00    +0.000 OA
ATOM     24  C   UNL     1      11.372 -10.321  31.450  0.00  0.00    +0.000 C 
ENDBRANCH  10  23
TORSDOF 2
ENDMDL
MODEL 9
REMARK VINA RESULT:      -6.0     22.702     26.547
REMARK  Name = 
REMARK  2 active torsions:
REMARK  status: ('A' for Active; 'I' for Inactive)
REMARK    1  A    between atoms: O_2  and  C_3
REMARK    2  A    between atoms: C_12  and  O_13
REMARK                            x       y       z     vdW  Elec       q    Type
REMARK                         _______ _______ _______ _____ _____    ______ ____
ROOT
ATOM      1  C   UNL     1      27.797  23.324  25.016  0.00  0.00    +0.000 A 
ATOM      2  C   UNL     1      28.853  22.872  24.255  0.00  0.00    +0.000 A 
ATOM      3  C   UNL     1      29.292  23.601  23.156  0.00  0.00    +0.000 A 
ATOM      4  C   UNL     1      28.674  24.799  22.803  0.00  0.00    +0.000 A 
ATOM      5  C   UNL     1      29.123  25.516  21.704  0.00  0.00    +0.000 A 
ATOM      6  C   UNL     1      28.454  26.696  21.420  0.00  0.00    +0.000 A 
ATOM      7  N   UNL     1      27.422  27.139  22.161  0.00  0.00    +0.000 N 
ATOM      8  C   UNL     1      26.974  26.438  23.246  0.00  0.00    +0.000 A 
ATOM      9  C   UNL     1      27.622  25.261  23.549  0.00  0.00    +0.000 A 
ATOM     10  C   UNL     1      27.203  24.505  24.649  0.00  0.00    +0.000 A 
ATOM     11  C   UNL     1      26.734  28.363  21.861  0.00  0.00    +0.000 C 
ATOM     12  C   UNL     1      27.199  29.124  20.707  0.00  0.00    +0.000 C 
ATOM     13  C   UNL     1      28.326  28.616  19.919  0.00  0.00    +0.000 A 
ATOM     14  C   UNL     1      28.765  29.358  18.807  0.00  0.00    +0.000 A 
ATOM     15  C   UNL     1      29.822  28.883  18.066  0.00  0.00    +0.000 A 
ATOM     16  O   UNL     1      30.253  29.619  16.969  0.00  0.00    +0.000 OA
ATOM     17  C   UNL     1      30.443  27.703  18.401  0.00  0.00    +0.000 A 
ATOM     18  O   UNL     1      31.509  27.189  17.684  0.00  0.00    +0.000 OA
ATOM     19  C   UNL     1      29.998  26.991  19.492  0.00  0.00    +0.000 A 
ATOM     20  C   UNL     1      28.939  27.438  20.260  0.00  0.00    +0.000 A 
ENDROOT
BRANCH   1  22
ATOM     21  C   UNL     1      28.188  22.271  27.196  0.00  0.00    +0.000 C 
ATOM     22  O   UNL     1      27.379  22.583  26.101  0.00  0.00    +0.000 OA
ENDBRANCH   1  22
BRANCH  10  23
ATOM     23  O   UNL     1      26.129  24.963  25.425  0.00  0.00    +0.000 OA
ATOM     24  C   UNL     1      26.469  25.707  26.596  0.00  0.00    +0.000 C 
ENDBRANCH  10  23
TORSDOF 2
ENDMDL
MODEL 10
REMARK VINA RESULT:      -6.0     18.135     18.940
REMARK  Name = 
REMARK  2 active torsions:
REMARK  status: ('A' for Active; 'I' for Inactive)
REMARK    1  A    between atoms: O_2  and  C_3
REMARK    2  A    between atoms: C_12  and  O_13
REMARK                            x       y       z     vdW  Elec       q    Type
REMARK                         _______ _______ _______ _____ _____    ______ ____
ROOT
ATOM      1  C   UNL     1      34.686  10.628  37.398  0.00  0.00    +0.000 A 
ATOM      2  C   UNL     1      34.581  10.558  36.026  0.00  0.00    +0.000 A 
ATOM      3  C   UNL     1      34.428   9.330  35.393  0.00  0.00    +0.000 A 
ATOM      4  C   UNL     1      34.379   8.149  36.132  0.00  0.00    +0.000 A 
ATOM      5  C   UNL     1      34.226   6.931  35.486  0.00  0.00    +0.000 A 
ATOM      6  C   UNL     1      34.187   5.805  36.293  0.00  0.00    +0.000 A 
ATOM      7  N   UNL     1      34.291   5.870  37.633  0.00  0.00    +0.000 N 
ATOM      8  C   UNL     1      34.442   7.067  38.276  0.00  0.00    +0.000 A 
ATOM      9  C   UNL     1      34.483   8.202  37.497  0.00  0.00    +0.000 A 
ATOM     10  C   UNL     1      34.636   9.453  38.105  0.00  0.00    +0.000 A 
ATOM     11  C   UNL     1      34.249   4.699  38.462  0.00  0.00    +0.000 C 
ATOM     12  C   UNL     1      34.089   3.413  37.792  0.00  0.00    +0.000 C 
ATOM     13  C   UNL     1      33.979   3.373  36.331  0.00  0.00    +0.000 A 
ATOM     14  C   UNL     1      33.825   2.128  35.696  0.00  0.00    +0.000 A 
ATOM     15  C   UNL     1      33.722   2.087  34.325  0.00  0.00    +0.000 A 
ATOM     16  O   UNL     1      33.570   0.855  33.701  0.00  0.00    +0.000 OA
ATOM     17  C   UNL     1      33.768   3.244  33.581  0.00  0.00    +0.000 A 
ATOM     18  O   UNL     1      33.668   3.250  32.202  0.00  0.00    +0.000 OA
ATOM     19  C   UNL     1      33.919   4.453  34.222  0.00  0.00    +0.000 A 
ATOM     20  C   UNL     1      34.026   4.531  35.598  0.00  0.00    +0.000 A 
ENDROOT
BRANCH   1  22
ATOM     21  C   UNL     1      35.855  12.763  37.697  0.00  0.00    +0.000 C 
ATOM     22  O   UNL     1      34.837  11.857  38.003  0.00  0.00    +0.000 OA
ENDBRANCH   1  22
BRANCH  10  23
ATOM     23  O   UNL     1      34.743   9.527  39.500  0.00  0.00    +0.000 OA
ATOM     24  C   UNL     1      36.066   9.645  40.026  0.00  0.00    +0.000 C 
ENDBRANCH  10  23
TORSDOF 2
ENDMDL
