MODEL 1
REMARK VINA RESULT:      -8.3      0.000      0.000
REMARK  Name = 
REMARK  6 active torsions:
REMARK  status: ('A' for Active; 'I' for Inactive)
REMARK    1  A    between atoms: C_2  and  O_3
REMARK    2  A    between atoms: O_3  and  C_4
REMARK    3  A    between atoms: C_7  and  C_8
REMARK    4  A    between atoms: C_18  and  O_19
REMARK    5  A    between atoms: O_19  and  C_20
REMARK    6  A    between atoms: C_20  and  C_21
REMARK                            x       y       z     vdW  Elec       q    Type
REMARK                         _______ _______ _______ _____ _____    ______ ____
ROOT
ATOM      1  C   UNL     1      36.591  -3.628  15.406  0.00  0.00    +0.000 C 
ATOM      2  N   UNL     1      37.212  -3.954  16.859  0.00  0.00    +0.000 NA
ATOM      3  C   UNL     1      37.802  -2.762  17.340  0.00  0.00    +0.000 C 
ATOM      4  C   UNL     1      39.265  -2.926  16.878  0.00  0.00    +0.000 C 
ATOM      5  C   UNL     1      39.058  -2.892  15.393  0.00  0.00    +0.000 A 
ATOM      6  C   UNL     1      37.952  -3.179  14.742  0.00  0.00    +0.000 A 
ATOM      7  N   UNL     1      38.169  -3.030  13.444  0.00  0.00    +0.000 NA
ATOM      8  C   UNL     1      39.443  -2.634  13.202  0.00  0.00    +0.000 A 
ATOM      9  C   UNL     1      40.176  -2.343  12.067  0.00  0.00    +0.000 A 
ATOM     10  C   UNL     1      41.495  -1.960  12.197  0.00  0.00    +0.000 A 
ATOM     11  C   UNL     1      42.117  -1.854  13.416  0.00  0.00    +0.000 A 
ATOM     12  C   UNL     1      41.351  -2.154  14.532  0.00  0.00    +0.000 A 
ATOM     13  C   UNL     1      40.037  -2.540  14.458  0.00  0.00    +0.000 A 
ENDROOT
BRANCH   1  17
ATOM     14  C   UNL     1      35.020   0.305  16.523  0.00  0.00    +0.000 A 
ATOM     15  C   UNL     1      34.580  -0.841  17.136  0.00  0.00    +0.000 A 
ATOM     16  C   UNL     1      35.081  -2.085  16.778  0.00  0.00    +0.000 A 
ATOM     17  C   UNL     1      36.039  -2.187  15.791  0.00  0.00    +0.000 A 
ATOM     18  C   UNL     1      36.450  -1.058  15.211  0.00  0.00    +0.000 A 
ATOM     19  C   UNL     1      35.970   0.188  15.547  0.00  0.00    +0.000 A 
BRANCH  14  20
ATOM     20  O   UNL     1      34.502   1.578  16.895  0.00  0.00    +0.000 OA
BRANCH  20  22
ATOM     21  C   UNL     1      34.191   3.380  15.298  0.00  0.00    +0.000 C 
ATOM     22  C   UNL     1      35.066   2.762  16.387  0.00  0.00    +0.000 C 
ENDBRANCH  20  22
ENDBRANCH  14  20
ENDBRANCH   1  17
BRANCH  11  23
ATOM     23  O   UNL     1      43.426  -1.477  13.606  0.00  0.00    +0.000 OA
BRANCH  23  24
ATOM     24  C   UNL     1      44.454  -2.301  14.043  0.00  0.00    +0.000 C 
BRANCH  24  25
ATOM     25  C   UNL     1      45.029  -1.847  15.322  0.00  0.00    +0.000 A 
ATOM     26  C   UNL     1      45.646  -2.706  16.198  0.00  0.00    +0.000 A 
ATOM     27  C   UNL     1      46.186  -2.264  17.405  0.00  0.00    +0.000 A 
ATOM     28  C   UNL     1      46.091  -0.930  17.713  0.00  0.00    +0.000 A 
ATOM     29  C   UNL     1      45.481  -0.060  16.853  0.00  0.00    +0.000 A 
ATOM     30  C   UNL     1      44.938  -0.510  15.639  0.00  0.00    +0.000 A 
ENDBRANCH  24  25
ENDBRANCH  23  24
ENDBRANCH  11  23
TORSDOF 6
ENDMDL
MODEL 2
REMARK VINA RESULT:      -7.6      4.371      6.961
REMARK  Name = 
REMARK  6 active torsions:
REMARK  status: ('A' for Active; 'I' for Inactive)
REMARK    1  A    between atoms: C_2  and  O_3
REMARK    2  A    between atoms: O_3  and  C_4
REMARK    3  A    between atoms: C_7  and  C_8
REMARK    4  A    between atoms: C_18  and  O_19
REMARK    5  A    between atoms: O_19  and  C_20
REMARK    6  A    between atoms: C_20  and  C_21
REMARK                            x       y       z     vdW  Elec       q    Type
REMARK                         _______ _______ _______ _____ _____    ______ ____
ROOT
ATOM      1  C   UNL     1      38.292  -0.314  12.175  0.00  0.00    +0.000 C 
ATOM      2  N   UNL     1      39.855  -0.455  12.549  0.00  0.00    +0.000 NA
ATOM      3  C   UNL     1      39.943  -0.533  13.958  0.00  0.00    +0.000 C 
ATOM      4  C   UNL     1      40.171   0.944  14.342  0.00  0.00    +0.000 C 
ATOM      5  C   UNL     1      38.861   1.518  13.890  0.00  0.00    +0.000 A 
ATOM      6  C   UNL     1      38.047   1.019  12.987  0.00  0.00    +0.000 A 
ATOM      7  N   UNL     1      36.996   1.815  12.871  0.00  0.00    +0.000 NA
ATOM      8  C   UNL     1      37.089   2.877  13.709  0.00  0.00    +0.000 A 
ATOM      9  C   UNL     1      36.298   3.975  13.985  0.00  0.00    +0.000 A 
ATOM     10  C   UNL     1      36.719   4.889  14.930  0.00  0.00    +0.000 A 
ATOM     11  C   UNL     1      37.902   4.752  15.614  0.00  0.00    +0.000 A 
ATOM     12  C   UNL     1      38.669   3.639  15.310  0.00  0.00    +0.000 A 
ATOM     13  C   UNL     1      38.298   2.702  14.380  0.00  0.00    +0.000 A 
ENDROOT
BRANCH   1  17
ATOM     14  C   UNL     1      36.909  -3.216  15.149  0.00  0.00    +0.000 A 
ATOM     15  C   UNL     1      37.723  -3.591  14.110  0.00  0.00    +0.000 A 
ATOM     16  C   UNL     1      38.158  -2.666  13.169  0.00  0.00    +0.000 A 
ATOM     17  C   UNL     1      37.775  -1.346  13.269  0.00  0.00    +0.000 A 
ATOM     18  C   UNL     1      36.984  -1.008  14.289  0.00  0.00    +0.000 A 
ATOM     19  C   UNL     1      36.538  -1.903  15.235  0.00  0.00    +0.000 A 
BRANCH  14  20
ATOM     20  O   UNL     1      36.467  -4.169  16.109  0.00  0.00    +0.000 OA
BRANCH  20  22
ATOM     21  C   UNL     1      38.374  -4.173  17.612  0.00  0.00    +0.000 C 
ATOM     22  C   UNL     1      37.388  -4.993  16.783  0.00  0.00    +0.000 C 
ENDBRANCH  20  22
ENDBRANCH  14  20
ENDBRANCH   1  17
BRANCH  11  23
ATOM     23  O   UNL     1      38.371   5.629  16.564  0.00  0.00    +0.000 OA
BRANCH  23  24
ATOM     24  C   UNL     1      38.627   5.325  17.893  0.00  0.00    +0.000 C 
BRANCH  24  25
ATOM     25  C   UNL     1      39.938   5.830  18.340  0.00  0.00    +0.000 A 
ATOM     26  C   UNL     1      40.224   6.070  19.662  0.00  0.00    +0.000 A 
ATOM     27  C   UNL     1      41.468   6.548  20.071  0.00  0.00    +0.000 A 
ATOM     28  C   UNL     1      42.425   6.780  19.115  0.00  0.00    +0.000 A 
ATOM     29  C   UNL     1      42.159   6.546  17.795  0.00  0.00    +0.000 A 
ATOM     30  C   UNL     1      40.904   6.066  17.388  0.00  0.00    +0.000 A 
ENDBRANCH  24  25
ENDBRANCH  23  24
ENDBRANCH  11  23
TORSDOF 6
ENDMDL
MODEL 3
REMARK VINA RESULT:      -7.4      1.279      1.498
REMARK  Name = 
REMARK  6 active torsions:
REMARK  status: ('A' for Active; 'I' for Inactive)
REMARK    1  A    between atoms: C_2  and  O_3
REMARK    2  A    between atoms: O_3  and  C_4
REMARK    3  A    between atoms: C_7  and  C_8
REMARK    4  A    between atoms: C_18  and  O_19
REMARK    5  A    between atoms: O_19  and  C_20
REMARK    6  A    between atoms: C_20  and  C_21
REMARK                            x       y       z     vdW  Elec       q    Type
REMARK                         _______ _______ _______ _____ _____    ______ ____
ROOT
ATOM      1  C   UNL     1      36.724  -2.393  14.667  0.00  0.00    +0.000 C 
ATOM      2  N   UNL     1      37.038  -2.934  16.154  0.00  0.00    +0.000 NA
ATOM      3  C   UNL     1      37.906  -1.999  16.765  0.00  0.00    +0.000 C 
ATOM      4  C   UNL     1      39.291  -2.602  16.449  0.00  0.00    +0.000 C 
ATOM      5  C   UNL     1      39.280  -2.467  14.955  0.00  0.00    +0.000 A 
ATOM      6  C   UNL     1      38.225  -2.376  14.176  0.00  0.00    +0.000 A 
ATOM      7  N   UNL     1      38.629  -2.270  12.920  0.00  0.00    +0.000 NA
ATOM      8  C   UNL     1      39.982  -2.288  12.835  0.00  0.00    +0.000 A 
ATOM      9  C   UNL     1      40.897  -2.212  11.803  0.00  0.00    +0.000 A 
ATOM     10  C   UNL     1      42.245  -2.265  12.092  0.00  0.00    +0.000 A 
ATOM     11  C   UNL     1      42.722  -2.391  13.373  0.00  0.00    +0.000 A 
ATOM     12  C   UNL     1      41.775  -2.464  14.383  0.00  0.00    +0.000 A 
ATOM     13  C   UNL     1      40.424  -2.417  14.150  0.00  0.00    +0.000 A 
ENDROOT
BRANCH   1  17
ATOM     14  C   UNL     1      36.325   1.804  15.853  0.00  0.00    +0.000 A 
ATOM     15  C   UNL     1      35.510   0.833  16.377  0.00  0.00    +0.000 A 
ATOM     16  C   UNL     1      35.641  -0.496  15.997  0.00  0.00    +0.000 A 
ATOM     17  C   UNL     1      36.602  -0.861  15.079  0.00  0.00    +0.000 A 
ATOM     18  C   UNL     1      37.381   0.102  14.585  0.00  0.00    +0.000 A 
ATOM     19  C   UNL     1      37.273   1.427  14.944  0.00  0.00    +0.000 A 
BRANCH  14  20
ATOM     20  O   UNL     1      36.185   3.165  16.247  0.00  0.00    +0.000 OA
BRANCH  20  22
ATOM     21  C   UNL     1      38.127   4.329  17.125  0.00  0.00    +0.000 C 
ATOM     22  C   UNL     1      37.183   4.109  15.944  0.00  0.00    +0.000 C 
ENDBRANCH  20  22
ENDBRANCH  14  20
ENDBRANCH   1  17
BRANCH  11  23
ATOM     23  O   UNL     1      44.051  -2.448  13.720  0.00  0.00    +0.000 OA
BRANCH  23  24
ATOM     24  C   UNL     1      44.865  -1.360  14.002  0.00  0.00    +0.000 C 
BRANCH  24  25
ATOM     25  C   UNL     1      45.333  -1.358  15.400  0.00  0.00    +0.000 A 
ATOM     26  C   UNL     1      45.868  -2.471  15.999  0.00  0.00    +0.000 A 
ATOM     27  C   UNL     1      46.308  -2.455  17.322  0.00  0.00    +0.000 A 
ATOM     28  C   UNL     1      46.195  -1.287  18.033  0.00  0.00    +0.000 A 
ATOM     29  C   UNL     1      45.665  -0.169  17.454  0.00  0.00    +0.000 A 
ATOM     30  C   UNL     1      45.224  -0.190  16.122  0.00  0.00    +0.000 A 
ENDBRANCH  24  25
ENDBRANCH  23  24
ENDBRANCH  11  23
TORSDOF 6
ENDMDL
MODEL 4
REMARK VINA RESULT:      -7.3      1.705      2.467
REMARK  Name = 
REMARK  6 active torsions:
REMARK  status: ('A' for Active; 'I' for Inactive)
REMARK    1  A    between atoms: C_2  and  O_3
REMARK    2  A    between atoms: O_3  and  C_4
REMARK    3  A    between atoms: C_7  and  C_8
REMARK    4  A    between atoms: C_18  and  O_19
REMARK    5  A    between atoms: O_19  and  C_20
REMARK    6  A    between atoms: C_20  and  C_21
REMARK                            x       y       z     vdW  Elec       q    Type
REMARK                         _______ _______ _______ _____ _____    ______ ____
ROOT
ATOM      1  C   UNL     1      36.094  -2.982  15.629  0.00  0.00    +0.000 C 
ATOM      2  N   UNL     1      36.646  -3.217  17.127  0.00  0.00    +0.000 NA
ATOM      3  C   UNL     1      37.438  -2.094  17.462  0.00  0.00    +0.000 C 
ATOM      4  C   UNL     1      38.850  -2.574  17.061  0.00  0.00    +0.000 C 
ATOM      5  C   UNL     1      38.652  -2.701  15.579  0.00  0.00    +0.000 A 
ATOM      6  C   UNL     1      37.513  -2.872  14.944  0.00  0.00    +0.000 A 
ATOM      7  N   UNL     1      37.754  -2.937  13.644  0.00  0.00    +0.000 NA
ATOM      8  C   UNL     1      39.079  -2.808  13.383  0.00  0.00    +0.000 A 
ATOM      9  C   UNL     1      39.852  -2.804  12.238  0.00  0.00    +0.000 A 
ATOM     10  C   UNL     1      41.218  -2.645  12.349  0.00  0.00    +0.000 A 
ATOM     11  C   UNL     1      41.849  -2.490  13.558  0.00  0.00    +0.000 A 
ATOM     12  C   UNL     1      41.041  -2.500  14.685  0.00  0.00    +0.000 A 
ATOM     13  C   UNL     1      39.679  -2.655  14.631  0.00  0.00    +0.000 A 
ENDROOT
BRANCH   1  17
ATOM     14  C   UNL     1      35.253   1.279  16.189  0.00  0.00    +0.000 A 
ATOM     15  C   UNL     1      34.683   0.326  16.996  0.00  0.00    +0.000 A 
ATOM     16  C   UNL     1      34.954  -1.023  16.813  0.00  0.00    +0.000 A 
ATOM     17  C   UNL     1      35.807  -1.428  15.809  0.00  0.00    +0.000 A 
ATOM     18  C   UNL     1      36.347  -0.482  15.040  0.00  0.00    +0.000 A 
ATOM     19  C   UNL     1      36.097   0.862  15.198  0.00  0.00    +0.000 A 
BRANCH  14  20
ATOM     20  O   UNL     1      34.971   2.661  16.382  0.00  0.00    +0.000 OA
BRANCH  20  22
ATOM     21  C   UNL     1      35.038   4.273  14.567  0.00  0.00    +0.000 C 
ATOM     22  C   UNL     1      34.184   3.372  15.457  0.00  0.00    +0.000 C 
ENDBRANCH  20  22
ENDBRANCH  14  20
ENDBRANCH   1  17
BRANCH  11  23
ATOM     23  O   UNL     1      43.204  -2.328  13.728  0.00  0.00    +0.000 OA
BRANCH  23  24
ATOM     24  C   UNL     1      43.818  -1.288  14.410  0.00  0.00    +0.000 C 
BRANCH  24  25
ATOM     25  C   UNL     1      43.849  -0.043  13.621  0.00  0.00    +0.000 A 
ATOM     26  C   UNL     1      42.753   0.773  13.490  0.00  0.00    +0.000 A 
ATOM     27  C   UNL     1      42.796   1.948  12.741  0.00  0.00    +0.000 A 
ATOM     28  C   UNL     1      43.974   2.287  12.124  0.00  0.00    +0.000 A 
ATOM     29  C   UNL     1      45.076   1.488  12.244  0.00  0.00    +0.000 A 
ATOM     30  C   UNL     1      45.028   0.305  12.999  0.00  0.00    +0.000 A 
ENDBRANCH  24  25
ENDBRANCH  23  24
ENDBRANCH  11  23
TORSDOF 6
ENDMDL
MODEL 5
REMARK VINA RESULT:      -7.3      1.052      1.703
REMARK  Name = 
REMARK  6 active torsions:
REMARK  status: ('A' for Active; 'I' for Inactive)
REMARK    1  A    between atoms: C_2  and  O_3
REMARK    2  A    between atoms: O_3  and  C_4
REMARK    3  A    between atoms: C_7  and  C_8
REMARK    4  A    between atoms: C_18  and  O_19
REMARK    5  A    between atoms: O_19  and  C_20
REMARK    6  A    between atoms: C_20  and  C_21
REMARK                            x       y       z     vdW  Elec       q    Type
REMARK                         _______ _______ _______ _____ _____    ______ ____
ROOT
ATOM      1  C   UNL     1      36.224  -3.043  15.644  0.00  0.00    +0.000 C 
ATOM      2  N   UNL     1      36.831  -3.275  17.121  0.00  0.00    +0.000 NA
ATOM      3  C   UNL     1      37.576  -2.120  17.454  0.00  0.00    +0.000 C 
ATOM      4  C   UNL     1      38.997  -2.520  17.005  0.00  0.00    +0.000 C 
ATOM      5  C   UNL     1      38.762  -2.632  15.527  0.00  0.00    +0.000 A 
ATOM      6  C   UNL     1      37.616  -2.849  14.922  0.00  0.00    +0.000 A 
ATOM      7  N   UNL     1      37.821  -2.880  13.615  0.00  0.00    +0.000 NA
ATOM      8  C   UNL     1      39.129  -2.680  13.318  0.00  0.00    +0.000 A 
ATOM      9  C   UNL     1      39.867  -2.617  12.152  0.00  0.00    +0.000 A 
ATOM     10  C   UNL     1      41.227  -2.392  12.226  0.00  0.00    +0.000 A 
ATOM     11  C   UNL     1      41.884  -2.226  13.420  0.00  0.00    +0.000 A 
ATOM     12  C   UNL     1      41.111  -2.296  14.569  0.00  0.00    +0.000 A 
ATOM     13  C   UNL     1      39.758  -2.518  14.551  0.00  0.00    +0.000 A 
ENDROOT
BRANCH   1  17
ATOM     14  C   UNL     1      35.283   1.201  16.176  0.00  0.00    +0.000 A 
ATOM     15  C   UNL     1      36.109   0.773  15.166  0.00  0.00    +0.000 A 
ATOM     16  C   UNL     1      36.404  -0.574  15.003  0.00  0.00    +0.000 A 
ATOM     17  C   UNL     1      35.865  -1.508  15.861  0.00  0.00    +0.000 A 
ATOM     18  C   UNL     1      35.066  -1.066  16.833  0.00  0.00    +0.000 A 
ATOM     19  C   UNL     1      34.757   0.263  17.018  0.00  0.00    +0.000 A 
BRANCH  14  20
ATOM     20  O   UNL     1      34.985   2.584  16.337  0.00  0.00    +0.000 OA
BRANCH  20  22
ATOM     21  C   UNL     1      35.186   4.228  14.560  0.00  0.00    +0.000 C 
ATOM     22  C   UNL     1      34.274   3.288  15.347  0.00  0.00    +0.000 C 
ENDBRANCH  20  22
ENDBRANCH  14  20
ENDBRANCH   1  17
BRANCH  11  23
ATOM     23  O   UNL     1      43.234  -1.998  13.554  0.00  0.00    +0.000 OA
BRANCH  23  24
ATOM     24  C   UNL     1      44.246  -2.762  12.992  0.00  0.00    +0.000 C 
BRANCH  24  25
ATOM     25  C   UNL     1      45.296  -3.106  13.968  0.00  0.00    +0.000 A 
ATOM     26  C   UNL     1      46.279  -4.026  13.698  0.00  0.00    +0.000 A 
ATOM     27  C   UNL     1      47.267  -4.342  14.630  0.00  0.00    +0.000 A 
ATOM     28  C   UNL     1      47.243  -3.707  15.847  0.00  0.00    +0.000 A 
ATOM     29  C   UNL     1      46.273  -2.789  16.133  0.00  0.00    +0.000 A 
ATOM     30  C   UNL     1      45.280  -2.474  15.191  0.00  0.00    +0.000 A 
ENDBRANCH  24  25
ENDBRANCH  23  24
ENDBRANCH  11  23
TORSDOF 6
ENDMDL
MODEL 6
REMARK VINA RESULT:      -7.2      4.027      7.483
REMARK  Name = 
REMARK  6 active torsions:
REMARK  status: ('A' for Active; 'I' for Inactive)
REMARK    1  A    between atoms: C_2  and  O_3
REMARK    2  A    between atoms: O_3  and  C_4
REMARK    3  A    between atoms: C_7  and  C_8
REMARK    4  A    between atoms: C_18  and  O_19
REMARK    5  A    between atoms: O_19  and  C_20
REMARK    6  A    between atoms: C_20  and  C_21
REMARK                            x       y       z     vdW  Elec       q    Type
REMARK                         _______ _______ _______ _____ _____    ______ ____
ROOT
ATOM      1  C   UNL     1      38.787  -0.868  12.840  0.00  0.00    +0.000 C 
ATOM      2  N   UNL     1      40.321  -0.384  12.725  0.00  0.00    +0.000 NA
ATOM      3  C   UNL     1      40.744  -0.021  14.026  0.00  0.00    +0.000 C 
ATOM      4  C   UNL     1      40.457   1.495  14.039  0.00  0.00    +0.000 C 
ATOM      5  C   UNL     1      38.962   1.461  13.923  0.00  0.00    +0.000 A 
ATOM      6  C   UNL     1      38.228   0.488  13.427  0.00  0.00    +0.000 A 
ATOM      7  N   UNL     1      36.953   0.835  13.501  0.00  0.00    +0.000 NA
ATOM      8  C   UNL     1      36.808   2.063  14.057  0.00  0.00    +0.000 A 
ATOM      9  C   UNL     1      35.734   2.877  14.359  0.00  0.00    +0.000 A 
ATOM     10  C   UNL     1      35.964   4.108  14.939  0.00  0.00    +0.000 A 
ATOM     11  C   UNL     1      37.226   4.563  15.232  0.00  0.00    +0.000 A 
ATOM     12  C   UNL     1      38.279   3.719  14.914  0.00  0.00    +0.000 A 
ATOM     13  C   UNL     1      38.105   2.487  14.337  0.00  0.00    +0.000 A 
ENDROOT
BRANCH   1  17
ATOM     14  C   UNL     1      39.229  -2.983  16.649  0.00  0.00    +0.000 A 
ATOM     15  C   UNL     1      38.251  -2.037  16.466  0.00  0.00    +0.000 A 
ATOM     16  C   UNL     1      38.116  -1.370  15.256  0.00  0.00    +0.000 A 
ATOM     17  C   UNL     1      38.971  -1.651  14.212  0.00  0.00    +0.000 A 
ATOM     18  C   UNL     1      39.912  -2.574  14.416  0.00  0.00    +0.000 A 
ATOM     19  C   UNL     1      40.068  -3.251  15.604  0.00  0.00    +0.000 A 
BRANCH  14  20
ATOM     20  O   UNL     1      39.361  -3.664  17.893  0.00  0.00    +0.000 OA
BRANCH  20  22
ATOM     21  C   UNL     1      37.868  -5.415  17.119  0.00  0.00    +0.000 C 
ATOM     22  C   UNL     1      38.402  -4.609  18.302  0.00  0.00    +0.000 C 
ENDBRANCH  20  22
ENDBRANCH  14  20
ENDBRANCH   1  17
BRANCH  11  23
ATOM     23  O   UNL     1      37.515   5.777  15.809  0.00  0.00    +0.000 OA
BRANCH  23  24
ATOM     24  C   UNL     1      38.785   6.284  16.043  0.00  0.00    +0.000 C 
BRANCH  24  25
ATOM     25  C   UNL     1      39.016   6.579  17.469  0.00  0.00    +0.000 A 
ATOM     26  C   UNL     1      39.906   5.866  18.233  0.00  0.00    +0.000 A 
ATOM     27  C   UNL     1      40.116   6.156  19.580  0.00  0.00    +0.000 A 
ATOM     28  C   UNL     1      39.406   7.186  20.145  0.00  0.00    +0.000 A 
ATOM     29  C   UNL     1      38.516   7.907  19.400  0.00  0.00    +0.000 A 
ATOM     30  C   UNL     1      38.308   7.611  18.044  0.00  0.00    +0.000 A 
ENDBRANCH  24  25
ENDBRANCH  23  24
ENDBRANCH  11  23
TORSDOF 6
ENDMDL
MODEL 7
REMARK VINA RESULT:      -7.2      2.073      8.336
REMARK  Name = 
REMARK  6 active torsions:
REMARK  status: ('A' for Active; 'I' for Inactive)
REMARK    1  A    between atoms: C_2  and  O_3
REMARK    2  A    between atoms: O_3  and  C_4
REMARK    3  A    between atoms: C_7  and  C_8
REMARK    4  A    between atoms: C_18  and  O_19
REMARK    5  A    between atoms: O_19  and  C_20
REMARK    6  A    between atoms: C_20  and  C_21
REMARK                            x       y       z     vdW  Elec       q    Type
REMARK                         _______ _______ _______ _____ _____    ______ ____
ROOT
ATOM      1  C   UNL     1      41.613  -3.181  13.167  0.00  0.00    +0.000 C 
ATOM      2  N   UNL     1      40.899  -2.439  11.925  0.00  0.00    +0.000 NA
ATOM      3  C   UNL     1      40.828  -1.063  12.244  0.00  0.00    +0.000 C 
ATOM      4  C   UNL     1      39.425  -0.958  12.879  0.00  0.00    +0.000 C 
ATOM      5  C   UNL     1      39.644  -1.808  14.096  0.00  0.00    +0.000 A 
ATOM      6  C   UNL     1      40.551  -2.747  14.253  0.00  0.00    +0.000 A 
ATOM      7  N   UNL     1      40.424  -3.266  15.464  0.00  0.00    +0.000 NA
ATOM      8  C   UNL     1      39.416  -2.673  16.149  0.00  0.00    +0.000 A 
ATOM      9  C   UNL     1      38.871  -2.823  17.410  0.00  0.00    +0.000 A 
ATOM     10  C   UNL     1      37.812  -2.022  17.787  0.00  0.00    +0.000 A 
ATOM     11  C   UNL     1      37.271  -1.073  16.956  0.00  0.00    +0.000 A 
ATOM     12  C   UNL     1      37.843  -0.951  15.699  0.00  0.00    +0.000 A 
ATOM     13  C   UNL     1      38.895  -1.722  15.274  0.00  0.00    +0.000 A 
ENDROOT
BRANCH   1  17
ATOM     14  C   UNL     1      44.607  -0.052  13.824  0.00  0.00    +0.000 A 
ATOM     15  C   UNL     1      44.516  -0.714  12.625  0.00  0.00    +0.000 A 
ATOM     16  C   UNL     1      43.565  -1.705  12.423  0.00  0.00    +0.000 A 
ATOM     17  C   UNL     1      42.690  -2.041  13.434  0.00  0.00    +0.000 A 
ATOM     18  C   UNL     1      42.799  -1.382  14.589  0.00  0.00    +0.000 A 
ATOM     19  C   UNL     1      43.732  -0.396  14.816  0.00  0.00    +0.000 A 
BRANCH  14  20
ATOM     20  O   UNL     1      45.585   0.963  14.024  0.00  0.00    +0.000 OA
BRANCH  20  22
ATOM     21  C   UNL     1      46.952   0.608  15.999  0.00  0.00    +0.000 C 
ATOM     22  C   UNL     1      46.878   0.639  14.474  0.00  0.00    +0.000 C 
ENDBRANCH  20  22
ENDBRANCH  14  20
ENDBRANCH   1  17
BRANCH  11  23
ATOM     23  O   UNL     1      36.219  -0.248  17.277  0.00  0.00    +0.000 OA
BRANCH  23  24
ATOM     24  C   UNL     1      36.321   1.053  17.747  0.00  0.00    +0.000 C 
BRANCH  24  25
ATOM     25  C   UNL     1      36.027   2.051  16.703  0.00  0.00    +0.000 A 
ATOM     26  C   UNL     1      36.980   2.910  16.215  0.00  0.00    +0.000 A 
ATOM     27  C   UNL     1      36.688   3.848  15.226  0.00  0.00    +0.000 A 
ATOM     28  C   UNL     1      35.407   3.903  14.736  0.00  0.00    +0.000 A 
ATOM     29  C   UNL     1      34.445   3.056  15.209  0.00  0.00    +0.000 A 
ATOM     30  C   UNL     1      34.744   2.113  16.205  0.00  0.00    +0.000 A 
ENDBRANCH  24  25
ENDBRANCH  23  24
ENDBRANCH  11  23
TORSDOF 6
ENDMDL
MODEL 8
REMARK VINA RESULT:      -7.1      2.282      8.785
REMARK  Name = 
REMARK  6 active torsions:
REMARK  status: ('A' for Active; 'I' for Inactive)
REMARK    1  A    between atoms: C_2  and  O_3
REMARK    2  A    between atoms: O_3  and  C_4
REMARK    3  A    between atoms: C_7  and  C_8
REMARK    4  A    between atoms: C_18  and  O_19
REMARK    5  A    between atoms: O_19  and  C_20
REMARK    6  A    between atoms: C_20  and  C_21
REMARK                            x       y       z     vdW  Elec       q    Type
REMARK                         _______ _______ _______ _____ _____    ______ ____
ROOT
ATOM      1  C   UNL     1      43.247  -1.554  12.674  0.00  0.00    +0.000 C 
ATOM      2  N   UNL     1      42.805  -0.163  11.988  0.00  0.00    +0.000 NA
ATOM      3  C   UNL     1      42.709   0.801  13.019  0.00  0.00    +0.000 C 
ATOM      4  C   UNL     1      41.214   0.718  13.390  0.00  0.00    +0.000 C 
ATOM      5  C   UNL     1      41.172  -0.683  13.924  0.00  0.00    +0.000 A 
ATOM      6  C   UNL     1      42.007  -1.660  13.648  0.00  0.00    +0.000 A 
ATOM      7  N   UNL     1      41.637  -2.741  14.316  0.00  0.00    +0.000 NA
ATOM      8  C   UNL     1      40.531  -2.502  15.063  0.00  0.00    +0.000 A 
ATOM      9  C   UNL     1      39.750  -3.254  15.920  0.00  0.00    +0.000 A 
ATOM     10  C   UNL     1      38.660  -2.666  16.529  0.00  0.00    +0.000 A 
ATOM     11  C   UNL     1      38.314  -1.354  16.317  0.00  0.00    +0.000 A 
ATOM     12  C   UNL     1      39.119  -0.632  15.451  0.00  0.00    +0.000 A 
ATOM     13  C   UNL     1      40.213  -1.168  14.820  0.00  0.00    +0.000 A 
ENDROOT
BRANCH   1  17
ATOM     14  C   UNL     1      46.140   0.263  15.416  0.00  0.00    +0.000 A 
ATOM     15  C   UNL     1      46.281   0.369  14.055  0.00  0.00    +0.000 A 
ATOM     16  C   UNL     1      45.360  -0.210  13.190  0.00  0.00    +0.000 A 
ATOM     17  C   UNL     1      44.282  -0.905  13.694  0.00  0.00    +0.000 A 
ATOM     18  C   UNL     1      44.168  -0.993  15.020  0.00  0.00    +0.000 A 
ATOM     19  C   UNL     1      45.065  -0.430  15.899  0.00  0.00    +0.000 A 
BRANCH  14  20
ATOM     20  O   UNL     1      47.087   0.858  16.296  0.00  0.00    +0.000 OA
BRANCH  20  22
ATOM     21  C   UNL     1      47.750   1.601  18.511  0.00  0.00    +0.000 C 
ATOM     22  C   UNL     1      47.135   0.495  17.655  0.00  0.00    +0.000 C 
ENDBRANCH  20  22
ENDBRANCH  14  20
ENDBRANCH   1  17
BRANCH  11  23
ATOM     23  O   UNL     1      37.241  -0.717  16.895  0.00  0.00    +0.000 OA
BRANCH  23  24
ATOM     24  C   UNL     1      35.953  -0.664  16.381  0.00  0.00    +0.000 C 
BRANCH  24  25
ATOM     25  C   UNL     1      35.624   0.664  15.832  0.00  0.00    +0.000 A 
ATOM     26  C   UNL     1      36.032   1.067  14.584  0.00  0.00    +0.000 A 
ATOM     27  C   UNL     1      35.713   2.326  14.077  0.00  0.00    +0.000 A 
ATOM     28  C   UNL     1      34.969   3.175  14.858  0.00  0.00    +0.000 A 
ATOM     29  C   UNL     1      34.555   2.791  16.102  0.00  0.00    +0.000 A 
ATOM     30  C   UNL     1      34.879   1.523  16.609  0.00  0.00    +0.000 A 
ENDBRANCH  24  25
ENDBRANCH  23  24
ENDBRANCH  11  23
TORSDOF 6
ENDMDL
MODEL 9
REMARK VINA RESULT:      -7.1      2.355      7.960
REMARK  Name = 
REMARK  6 active torsions:
REMARK  status: ('A' for Active; 'I' for Inactive)
REMARK    1  A    between atoms: C_2  and  O_3
REMARK    2  A    between atoms: O_3  and  C_4
REMARK    3  A    between atoms: C_7  and  C_8
REMARK    4  A    between atoms: C_18  and  O_19
REMARK    5  A    between atoms: O_19  and  C_20
REMARK    6  A    between atoms: C_20  and  C_21
REMARK                            x       y       z     vdW  Elec       q    Type
REMARK                         _______ _______ _______ _____ _____    ______ ____
ROOT
ATOM      1  C   UNL     1      41.312  -3.260  13.183  0.00  0.00    +0.000 C 
ATOM      2  N   UNL     1      40.416  -2.735  11.949  0.00  0.00    +0.000 NA
ATOM      3  C   UNL     1      40.215  -1.348  12.138  0.00  0.00    +0.000 C 
ATOM      4  C   UNL     1      38.868  -1.323  12.891  0.00  0.00    +0.000 C 
ATOM      5  C   UNL     1      39.284  -2.010  14.158  0.00  0.00    +0.000 A 
ATOM      6  C   UNL     1      40.302  -2.826  14.318  0.00  0.00    +0.000 A 
ATOM      7  N   UNL     1      40.338  -3.222  15.581  0.00  0.00    +0.000 NA
ATOM      8  C   UNL     1      39.330  -2.668  16.298  0.00  0.00    +0.000 A 
ATOM      9  C   UNL     1      38.915  -2.739  17.614  0.00  0.00    +0.000 A 
ATOM     10  C   UNL     1      37.807  -2.017  18.011  0.00  0.00    +0.000 A 
ATOM     11  C   UNL     1      37.093  -1.225  17.146  0.00  0.00    +0.000 A 
ATOM     12  C   UNL     1      37.539  -1.179  15.834  0.00  0.00    +0.000 A 
ATOM     13  C   UNL     1      38.633  -1.876  15.389  0.00  0.00    +0.000 A 
ENDROOT
BRANCH   1  17
ATOM     14  C   UNL     1      43.974   0.217  13.243  0.00  0.00    +0.000 A 
ATOM     15  C   UNL     1      43.872  -0.586  12.134  0.00  0.00    +0.000 A 
ATOM     16  C   UNL     1      43.026  -1.687  12.122  0.00  0.00    +0.000 A 
ATOM     17  C   UNL     1      42.270  -1.991  13.233  0.00  0.00    +0.000 A 
ATOM     18  C   UNL     1      42.388  -1.195  14.297  0.00  0.00    +0.000 A 
ATOM     19  C   UNL     1      43.218  -0.097  14.337  0.00  0.00    +0.000 A 
BRANCH  14  20
ATOM     20  O   UNL     1      44.843   1.345  13.249  0.00  0.00    +0.000 OA
BRANCH  20  22
ATOM     21  C   UNL     1      43.547   3.075  12.143  0.00  0.00    +0.000 C 
ATOM     22  C   UNL     1      44.840   2.262  12.181  0.00  0.00    +0.000 C 
ENDBRANCH  20  22
ENDBRANCH  14  20
ENDBRANCH   1  17
BRANCH  11  23
ATOM     23  O   UNL     1      35.984  -0.485  17.485  0.00  0.00    +0.000 OA
BRANCH  23  24
ATOM     24  C   UNL     1      35.990   0.828  17.932  0.00  0.00    +0.000 C 
BRANCH  24  25
ATOM     25  C   UNL     1      35.913   1.797  16.824  0.00  0.00    +0.000 A 
ATOM     26  C   UNL     1      35.046   1.644  15.770  0.00  0.00    +0.000 A 
ATOM     27  C   UNL     1      34.983   2.568  14.728  0.00  0.00    +0.000 A 
ATOM     28  C   UNL     1      35.817   3.657  14.770  0.00  0.00    +0.000 A 
ATOM     29  C   UNL     1      36.687   3.826  15.811  0.00  0.00    +0.000 A 
ATOM     30  C   UNL     1      36.747   2.893  16.857  0.00  0.00    +0.000 A 
ENDBRANCH  24  25
ENDBRANCH  23  24
ENDBRANCH  11  23
TORSDOF 6
ENDMDL
MODEL 10
REMARK VINA RESULT:      -7.1      4.207      9.036
REMARK  Name = 
REMARK  6 active torsions:
REMARK  status: ('A' for Active; 'I' for Inactive)
REMARK    1  A    between atoms: C_2  and  O_3
REMARK    2  A    between atoms: O_3  and  C_4
REMARK    3  A    between atoms: C_7  and  C_8
REMARK    4  A    between atoms: C_18  and  O_19
REMARK    5  A    between atoms: O_19  and  C_20
REMARK    6  A    between atoms: C_20  and  C_21
REMARK                            x       y       z     vdW  Elec       q    Type
REMARK                         _______ _______ _______ _____ _____    ______ ____
ROOT
ATOM      1  C   UNL     1      37.672  -1.225  16.101  0.00  0.00    +0.000 C 
ATOM      2  N   UNL     1      38.565  -1.860  17.286  0.00  0.00    +0.000 NA
ATOM      3  C   UNL     1      39.186  -3.019  16.766  0.00  0.00    +0.000 C 
ATOM      4  C   UNL     1      38.187  -4.122  17.175  0.00  0.00    +0.000 C 
ATOM      5  C   UNL     1      37.007  -3.699  16.351  0.00  0.00    +0.000 A 
ATOM      6  C   UNL     1      36.759  -2.495  15.883  0.00  0.00    +0.000 A 
ATOM      7  N   UNL     1      35.623  -2.526  15.205  0.00  0.00    +0.000 NA
ATOM      8  C   UNL     1      35.083  -3.770  15.206  0.00  0.00    +0.000 A 
ATOM      9  C   UNL     1      33.945  -4.341  14.670  0.00  0.00    +0.000 A 
ATOM     10  C   UNL     1      33.702  -5.684  14.878  0.00  0.00    +0.000 A 
ATOM     11  C   UNL     1      34.550  -6.484  15.603  0.00  0.00    +0.000 A 
ATOM     12  C   UNL     1      35.682  -5.876  16.125  0.00  0.00    +0.000 A 
ATOM     13  C   UNL     1      35.969  -4.547  15.948  0.00  0.00    +0.000 A 
ENDROOT
BRANCH   1  17
ATOM     14  C   UNL     1      40.517  -2.025  12.869  0.00  0.00    +0.000 A 
ATOM     15  C   UNL     1      39.206  -2.423  12.782  0.00  0.00    +0.000 A 
ATOM     16  C   UNL     1      38.309  -2.166  13.810  0.00  0.00    +0.000 A 
ATOM     17  C   UNL     1      38.727  -1.502  14.943  0.00  0.00    +0.000 A 
ATOM     18  C   UNL     1      40.006  -1.126  15.002  0.00  0.00    +0.000 A 
ATOM     19  C   UNL     1      40.916  -1.366  13.998  0.00  0.00    +0.000 A 
BRANCH  14  20
ATOM     20  O   UNL     1      41.431  -2.291  11.810  0.00  0.00    +0.000 OA
BRANCH  20  22
ATOM     21  C   UNL     1      41.138  -3.547   9.753  0.00  0.00    +0.000 C 
ATOM     22  C   UNL     1      41.513  -3.572  11.234  0.00  0.00    +0.000 C 
ENDBRANCH  20  22
ENDBRANCH  14  20
ENDBRANCH   1  17
BRANCH  11  23
ATOM     23  O   UNL     1      34.360  -7.825  15.842  0.00  0.00    +0.000 OA
BRANCH  23  24
ATOM     24  C   UNL     1      33.345  -8.608  15.312  0.00  0.00    +0.000 C 
BRANCH  24  25
ATOM     25  C   UNL     1      33.706  -9.180  14.002  0.00  0.00    +0.000 A 
ATOM     26  C   UNL     1      34.797  -9.996  13.829  0.00  0.00    +0.000 A 
ATOM     27  C   UNL     1      35.126 -10.531  12.585  0.00  0.00    +0.000 A 
ATOM     28  C   UNL     1      34.328 -10.225  11.511  0.00  0.00    +0.000 A 
ATOM     29  C   UNL     1      33.238  -9.415  11.663  0.00  0.00    +0.000 A 
ATOM     30  C   UNL     1      32.911  -8.878  12.919  0.00  0.00    +0.000 A 
ENDBRANCH  24  25
ENDBRANCH  23  24
ENDBRANCH  11  23
TORSDOF 6
ENDMDL
