MODEL 1
REMARK VINA RESULT:      -8.0      0.000      0.000
REMARK  Name = 
REMARK  7 active torsions:
REMARK  status: ('A' for Active; 'I' for Inactive)
REMARK    1  A    between atoms: C_5  and  N_6
REMARK    2  A    between atoms: N_6  and  C_7
REMARK    3  A    between atoms: C_8  and  S_9
REMARK    4  A    between atoms: S_9  and  C_10
REMARK    5  A    between atoms: N_18  and  C_19
REMARK    6  A    between atoms: C_19  and  C_20
REMARK    7  A    between atoms: C_20  and  C_21
REMARK                            x       y       z     vdW  Elec       q    Type
REMARK                         _______ _______ _______ _____ _____    ______ ____
ROOT
ATOM      1  C   UNL     1      36.967   1.770  14.994  0.00  0.00    +0.000 C 
ATOM      2  C   UNL     1      38.041   2.089  14.246  0.00  0.00    +0.000 C 
ATOM      3  C   UNL     1      38.553   3.331  14.789  0.00  0.00    +0.000 C 
ATOM      4  O   UNL     1      39.544   3.983  14.394  0.00  0.00    +0.000 OA
ATOM      5  N   UNL     1      37.764   3.776  15.902  0.00  0.00    +0.000 N 
ATOM      6  C   UNL     1      36.765   2.775  16.018  0.00  0.00    +0.000 C 
ATOM      7  O   UNL     1      35.835   2.777  16.897  0.00  0.00    +0.000 OA
ENDROOT
BRANCH   1   8
ATOM      8  N   UNL     1      36.177   0.598  14.771  0.00  0.00    +0.000 NA
BRANCH   8  13
ATOM      9  C   UNL     1      38.126  -4.282  17.096  0.00  0.00    +0.000 C 
ATOM     10  C   UNL     1      37.610  -3.021  16.478  0.00  0.00    +0.000 A 
ATOM     11  C   UNL     1      37.882  -1.795  17.049  0.00  0.00    +0.000 A 
ATOM     12  C   UNL     1      37.419  -0.622  16.496  0.00  0.00    +0.000 A 
ATOM     13  C   UNL     1      36.657  -0.625  15.341  0.00  0.00    +0.000 A 
ATOM     14  C   UNL     1      36.393  -1.858  14.782  0.00  0.00    +0.000 A 
ATOM     15  C   UNL     1      36.851  -3.036  15.325  0.00  0.00    +0.000 A 
ATOM     16  C   UNL     1      36.567  -4.360  14.722  0.00  0.00    +0.000 C 
ENDBRANCH   8  13
ENDBRANCH   1   8
BRANCH   2  17
ATOM     17  S   UNL     1      38.620   1.112  12.890  0.00  0.00    +0.000 S 
BRANCH  17  18
ATOM     18  C   UNL     1      39.356  -0.408  13.288  0.00  0.00    +0.000 A 
ATOM     19  C   UNL     1      40.235  -0.421  14.371  0.00  0.00    +0.000 A 
ATOM     20  C   UNL     1      40.872  -1.544  14.782  0.00  0.00    +0.000 A 
ATOM     21  C   UNL     1      40.648  -2.732  14.106  0.00  0.00    +0.000 A 
ATOM     22  C   UNL     1      39.778  -2.728  13.031  0.00  0.00    +0.000 A 
ATOM     23  C   UNL     1      39.146  -1.578  12.636  0.00  0.00    +0.000 A 
ENDBRANCH  17  18
ENDBRANCH   2  17
BRANCH   5  24
ATOM     24  C   UNL     1      37.936   4.954  16.714  0.00  0.00    +0.000 C 
BRANCH  24  25
ATOM     25  C   UNL     1      38.936   4.724  17.822  0.00  0.00    +0.000 C 
BRANCH  25  26
ATOM     26  C   UNL     1      39.016   5.980  18.618  0.00  0.00    +0.000 A 
ATOM     27  C   UNL     1      38.150   7.029  18.452  0.00  0.00    +0.000 A 
ATOM     28  C   UNL     1      38.201   8.201  19.173  0.00  0.00    +0.000 A 
ATOM     29  C   UNL     1      39.202   8.316  20.131  0.00  0.00    +0.000 A 
ATOM     30  C   UNL     1      40.086   7.283  20.323  0.00  0.00    +0.000 A 
ATOM     31  C   UNL     1      40.003   6.129  19.581  0.00  0.00    +0.000 A 
ENDBRANCH  25  26
ENDBRANCH  24  25
ENDBRANCH   5  24
TORSDOF 7
ENDMDL
MODEL 2
REMARK VINA RESULT:      -7.6      1.308      1.834
REMARK  Name = 
REMARK  7 active torsions:
REMARK  status: ('A' for Active; 'I' for Inactive)
REMARK    1  A    between atoms: C_5  and  N_6
REMARK    2  A    between atoms: N_6  and  C_7
REMARK    3  A    between atoms: C_8  and  S_9
REMARK    4  A    between atoms: S_9  and  C_10
REMARK    5  A    between atoms: N_18  and  C_19
REMARK    6  A    between atoms: C_19  and  C_20
REMARK    7  A    between atoms: C_20  and  C_21
REMARK                            x       y       z     vdW  Elec       q    Type
REMARK                         _______ _______ _______ _____ _____    ______ ____
ROOT
ATOM      1  C   UNL     1      37.020   1.946  15.106  0.00  0.00    +0.000 C 
ATOM      2  C   UNL     1      37.824   2.000  14.026  0.00  0.00    +0.000 C 
ATOM      3  C   UNL     1      38.478   3.293  14.078  0.00  0.00    +0.000 C 
ATOM      4  O   UNL     1      39.308   3.758  13.268  0.00  0.00    +0.000 OA
ATOM      5  N   UNL     1      38.056   4.042  15.227  0.00  0.00    +0.000 N 
ATOM      6  C   UNL     1      37.133   3.174  15.866  0.00  0.00    +0.000 C 
ATOM      7  O   UNL     1      36.507   3.449  16.948  0.00  0.00    +0.000 OA
ENDROOT
BRANCH   1   8
ATOM      8  N   UNL     1      36.196   0.816  15.413  0.00  0.00    +0.000 NA
BRANCH   8  13
ATOM      9  C   UNL     1      37.944  -2.592  19.696  0.00  0.00    +0.000 C 
ATOM     10  C   UNL     1      37.499  -1.714  18.570  0.00  0.00    +0.000 A 
ATOM     11  C   UNL     1      36.574  -0.712  18.782  0.00  0.00    +0.000 A 
ATOM     12  C   UNL     1      36.153   0.108  17.759  0.00  0.00    +0.000 A 
ATOM     13  C   UNL     1      36.639  -0.039  16.472  0.00  0.00    +0.000 A 
ATOM     14  C   UNL     1      37.563  -1.045  16.276  0.00  0.00    +0.000 A 
ATOM     15  C   UNL     1      37.992  -1.870  17.290  0.00  0.00    +0.000 A 
ATOM     16  C   UNL     1      38.986  -2.950  17.077  0.00  0.00    +0.000 C 
ENDBRANCH   8  13
ENDBRANCH   1   8
BRANCH   2  17
ATOM     17  S   UNL     1      37.971   0.693  12.842  0.00  0.00    +0.000 S 
BRANCH  17  18
ATOM     18  C   UNL     1      39.086  -0.579  13.228  0.00  0.00    +0.000 A 
ATOM     19  C   UNL     1      40.207  -0.232  13.982  0.00  0.00    +0.000 A 
ATOM     20  C   UNL     1      41.150  -1.133  14.348  0.00  0.00    +0.000 A 
ATOM     21  C   UNL     1      41.005  -2.455  13.962  0.00  0.00    +0.000 A 
ATOM     22  C   UNL     1      39.897  -2.808  13.212  0.00  0.00    +0.000 A 
ATOM     23  C   UNL     1      38.957  -1.876  12.857  0.00  0.00    +0.000 A 
ENDBRANCH  17  18
ENDBRANCH   2  17
BRANCH   5  24
ATOM     24  C   UNL     1      38.465   5.360  15.641  0.00  0.00    +0.000 C 
BRANCH  24  25
ATOM     25  C   UNL     1      39.961   5.445  15.824  0.00  0.00    +0.000 C 
BRANCH  25  26
ATOM     26  C   UNL     1      40.214   5.872  17.229  0.00  0.00    +0.000 A 
ATOM     27  C   UNL     1      41.437   6.301  17.674  0.00  0.00    +0.000 A 
ATOM     28  C   UNL     1      41.699   6.700  18.965  0.00  0.00    +0.000 A 
ATOM     29  C   UNL     1      40.644   6.662  19.870  0.00  0.00    +0.000 A 
ATOM     30  C   UNL     1      39.406   6.237  19.457  0.00  0.00    +0.000 A 
ATOM     31  C   UNL     1      39.185   5.845  18.158  0.00  0.00    +0.000 A 
ENDBRANCH  25  26
ENDBRANCH  24  25
ENDBRANCH   5  24
TORSDOF 7
ENDMDL
MODEL 3
REMARK VINA RESULT:      -7.6      1.174      3.317
REMARK  Name = 
REMARK  7 active torsions:
REMARK  status: ('A' for Active; 'I' for Inactive)
REMARK    1  A    between atoms: C_5  and  N_6
REMARK    2  A    between atoms: N_6  and  C_7
REMARK    3  A    between atoms: C_8  and  S_9
REMARK    4  A    between atoms: S_9  and  C_10
REMARK    5  A    between atoms: N_18  and  C_19
REMARK    6  A    between atoms: C_19  and  C_20
REMARK    7  A    between atoms: C_20  and  C_21
REMARK                            x       y       z     vdW  Elec       q    Type
REMARK                         _______ _______ _______ _____ _____    ______ ____
ROOT
ATOM      1  C   UNL     1      38.272   2.655  14.210  0.00  0.00    +0.000 C 
ATOM      2  C   UNL     1      37.259   2.135  14.931  0.00  0.00    +0.000 C 
ATOM      3  C   UNL     1      37.073   3.025  16.060  0.00  0.00    +0.000 C 
ATOM      4  O   UNL     1      36.236   2.919  16.982  0.00  0.00    +0.000 OA
ATOM      5  N   UNL     1      38.003   4.117  16.019  0.00  0.00    +0.000 N 
ATOM      6  C   UNL     1      38.754   3.866  14.842  0.00  0.00    +0.000 C 
ATOM      7  O   UNL     1      39.708   4.607  14.417  0.00  0.00    +0.000 OA
ENDROOT
BRANCH   1   8
ATOM      8  N   UNL     1      38.762   2.059  13.004  0.00  0.00    +0.000 NA
BRANCH   8  13
ATOM      9  C   UNL     1      41.754  -2.813  13.587  0.00  0.00    +0.000 C 
ATOM     10  C   UNL     1      40.967  -1.551  13.421  0.00  0.00    +0.000 A 
ATOM     11  C   UNL     1      41.106  -0.512  14.318  0.00  0.00    +0.000 A 
ATOM     12  C   UNL     1      40.392   0.658  14.183  0.00  0.00    +0.000 A 
ATOM     13  C   UNL     1      39.502   0.840  13.140  0.00  0.00    +0.000 A 
ATOM     14  C   UNL     1      39.374  -0.208  12.251  0.00  0.00    +0.000 A 
ATOM     15  C   UNL     1      40.082  -1.381  12.376  0.00  0.00    +0.000 A 
ATOM     16  C   UNL     1      39.943  -2.505  11.419  0.00  0.00    +0.000 C 
ENDBRANCH   8  13
ENDBRANCH   1   8
BRANCH   2  17
ATOM     17  S   UNL     1      36.398   0.653  14.492  0.00  0.00    +0.000 S 
BRANCH  17  18
ATOM     18  C   UNL     1      37.127  -0.841  14.985  0.00  0.00    +0.000 A 
ATOM     19  C   UNL     1      36.946  -1.942  14.147  0.00  0.00    +0.000 A 
ATOM     20  C   UNL     1      37.464  -3.163  14.421  0.00  0.00    +0.000 A 
ATOM     21  C   UNL     1      38.207  -3.337  15.577  0.00  0.00    +0.000 A 
ATOM     22  C   UNL     1      38.391  -2.251  16.414  0.00  0.00    +0.000 A 
ATOM     23  C   UNL     1      37.856  -1.026  16.113  0.00  0.00    +0.000 A 
ENDBRANCH  17  18
ENDBRANCH   2  17
BRANCH   5  24
ATOM     24  C   UNL     1      38.148   5.210  16.946  0.00  0.00    +0.000 C 
BRANCH  24  25
ATOM     25  C   UNL     1      38.845   4.774  18.213  0.00  0.00    +0.000 C 
BRANCH  25  26
ATOM     26  C   UNL     1      39.279   6.007  18.929  0.00  0.00    +0.000 A 
ATOM     27  C   UNL     1      40.455   6.093  19.628  0.00  0.00    +0.000 A 
ATOM     28  C   UNL     1      40.881   7.218  20.297  0.00  0.00    +0.000 A 
ATOM     29  C   UNL     1      40.054   8.336  20.255  0.00  0.00    +0.000 A 
ATOM     30  C   UNL     1      38.870   8.282  19.563  0.00  0.00    +0.000 A 
ATOM     31  C   UNL     1      38.479   7.139  18.908  0.00  0.00    +0.000 A 
ENDBRANCH  25  26
ENDBRANCH  24  25
ENDBRANCH   5  24
TORSDOF 7
ENDMDL
MODEL 4
REMARK VINA RESULT:      -7.6      1.125      3.342
REMARK  Name = 
REMARK  7 active torsions:
REMARK  status: ('A' for Active; 'I' for Inactive)
REMARK    1  A    between atoms: C_5  and  N_6
REMARK    2  A    between atoms: N_6  and  C_7
REMARK    3  A    between atoms: C_8  and  S_9
REMARK    4  A    between atoms: S_9  and  C_10
REMARK    5  A    between atoms: N_18  and  C_19
REMARK    6  A    between atoms: C_19  and  C_20
REMARK    7  A    between atoms: C_20  and  C_21
REMARK                            x       y       z     vdW  Elec       q    Type
REMARK                         _______ _______ _______ _____ _____    ______ ____
ROOT
ATOM      1  C   UNL     1      37.642   2.074  14.115  0.00  0.00    +0.000 C 
ATOM      2  C   UNL     1      36.970   1.670  15.211  0.00  0.00    +0.000 C 
ATOM      3  C   UNL     1      37.081   2.751  16.170  0.00  0.00    +0.000 C 
ATOM      4  O   UNL     1      36.602   2.796  17.324  0.00  0.00    +0.000 OA
ATOM      5  N   UNL     1      37.843   3.843  15.636  0.00  0.00    +0.000 N 
ATOM      6  C   UNL     1      38.190   3.396  14.334  0.00  0.00    +0.000 C 
ATOM      7  O   UNL     1      38.882   4.072  13.496  0.00  0.00    +0.000 OA
ENDROOT
BRANCH   1   8
ATOM      8  N   UNL     1      37.765   1.276  12.933  0.00  0.00    +0.000 NA
BRANCH   8  13
ATOM      9  C   UNL     1      41.474  -3.111  13.096  0.00  0.00    +0.000 C 
ATOM     10  C   UNL     1      40.519  -1.959  13.063  0.00  0.00    +0.000 A 
ATOM     11  C   UNL     1      39.303  -2.071  12.422  0.00  0.00    +0.000 A 
ATOM     12  C   UNL     1      38.410  -1.024  12.380  0.00  0.00    +0.000 A 
ATOM     13  C   UNL     1      38.697   0.190  12.980  0.00  0.00    +0.000 A 
ATOM     14  C   UNL     1      39.917   0.286  13.617  0.00  0.00    +0.000 A 
ATOM     15  C   UNL     1      40.817  -0.753  13.666  0.00  0.00    +0.000 A 
ATOM     16  C   UNL     1      42.127  -0.646  14.351  0.00  0.00    +0.000 C 
ENDBRANCH   8  13
ENDBRANCH   1   8
BRANCH   2  17
ATOM     17  S   UNL     1      36.152   0.107  15.343  0.00  0.00    +0.000 S 
BRANCH  17  18
ATOM     18  C   UNL     1      37.156  -1.268  15.678  0.00  0.00    +0.000 A 
ATOM     19  C   UNL     1      36.737  -2.498  15.172  0.00  0.00    +0.000 A 
ATOM     20  C   UNL     1      37.433  -3.644  15.365  0.00  0.00    +0.000 A 
ATOM     21  C   UNL     1      38.610  -3.603  16.093  0.00  0.00    +0.000 A 
ATOM     22  C   UNL     1      39.033  -2.388  16.600  0.00  0.00    +0.000 A 
ATOM     23  C   UNL     1      38.310  -1.243  16.389  0.00  0.00    +0.000 A 
ENDBRANCH  17  18
ENDBRANCH   2  17
BRANCH   5  24
ATOM     24  C   UNL     1      38.182   5.095  16.263  0.00  0.00    +0.000 C 
BRANCH  24  25
ATOM     25  C   UNL     1      39.293   4.928  17.272  0.00  0.00    +0.000 C 
BRANCH  25  26
ATOM     26  C   UNL     1      39.143   6.013  18.282  0.00  0.00    +0.000 A 
ATOM     27  C   UNL     1      38.166   6.971  18.215  0.00  0.00    +0.000 A 
ATOM     28  C   UNL     1      38.005   7.984  19.133  0.00  0.00    +0.000 A 
ATOM     29  C   UNL     1      38.899   8.027  20.197  0.00  0.00    +0.000 A 
ATOM     30  C   UNL     1      39.890   7.082  20.294  0.00  0.00    +0.000 A 
ATOM     31  C   UNL     1      40.019   6.086  19.355  0.00  0.00    +0.000 A 
ENDBRANCH  25  26
ENDBRANCH  24  25
ENDBRANCH   5  24
TORSDOF 7
ENDMDL
MODEL 5
REMARK VINA RESULT:      -7.1      2.852      8.644
REMARK  Name = 
REMARK  7 active torsions:
REMARK  status: ('A' for Active; 'I' for Inactive)
REMARK    1  A    between atoms: C_5  and  N_6
REMARK    2  A    between atoms: N_6  and  C_7
REMARK    3  A    between atoms: C_8  and  S_9
REMARK    4  A    between atoms: S_9  and  C_10
REMARK    5  A    between atoms: N_18  and  C_19
REMARK    6  A    between atoms: C_19  and  C_20
REMARK    7  A    between atoms: C_20  and  C_21
REMARK                            x       y       z     vdW  Elec       q    Type
REMARK                         _______ _______ _______ _____ _____    ______ ____
ROOT
ATOM      1  C   UNL     1      37.876   4.516  16.235  0.00  0.00    +0.000 C 
ATOM      2  C   UNL     1      37.280   4.819  15.065  0.00  0.00    +0.000 C 
ATOM      3  C   UNL     1      36.122   3.953  14.969  0.00  0.00    +0.000 C 
ATOM      4  O   UNL     1      35.286   3.902  14.042  0.00  0.00    +0.000 OA
ATOM      5  N   UNL     1      36.014   3.100  16.118  0.00  0.00    +0.000 N 
ATOM      6  C   UNL     1      37.133   3.471  16.909  0.00  0.00    +0.000 C 
ATOM      7  O   UNL     1      37.426   2.950  18.041  0.00  0.00    +0.000 OA
ENDROOT
BRANCH   1   8
ATOM      8  N   UNL     1      39.066   5.163  16.698  0.00  0.00    +0.000 NA
BRANCH   8  13
ATOM      9  C   UNL     1      38.496   8.936  20.995  0.00  0.00    +0.000 C 
ATOM     10  C   UNL     1      38.633   7.963  19.867  0.00  0.00    +0.000 A 
ATOM     11  C   UNL     1      39.508   6.900  19.956  0.00  0.00    +0.000 A 
ATOM     12  C   UNL     1      39.648   5.993  18.930  0.00  0.00    +0.000 A 
ATOM     13  C   UNL     1      38.916   6.109  17.762  0.00  0.00    +0.000 A 
ATOM     14  C   UNL     1      38.044   7.177  17.688  0.00  0.00    +0.000 A 
ATOM     15  C   UNL     1      37.896   8.089  18.706  0.00  0.00    +0.000 A 
ATOM     16  C   UNL     1      36.959   9.235  18.624  0.00  0.00    +0.000 C 
ENDBRANCH   8  13
ENDBRANCH   1   8
BRANCH   2  17
ATOM     17  S   UNL     1      37.881   6.050  13.945  0.00  0.00    +0.000 S 
BRANCH  17  18
ATOM     18  C   UNL     1      37.543   7.702  14.354  0.00  0.00    +0.000 A 
ATOM     19  C   UNL     1      38.632   8.569  14.437  0.00  0.00    +0.000 A 
ATOM     20  C   UNL     1      38.500   9.881  14.747  0.00  0.00    +0.000 A 
ATOM     21  C   UNL     1      37.237  10.392  14.994  0.00  0.00    +0.000 A 
ATOM     22  C   UNL     1      36.151   9.538  14.915  0.00  0.00    +0.000 A 
ATOM     23  C   UNL     1      36.312   8.215  14.598  0.00  0.00    +0.000 A 
ENDBRANCH  17  18
ENDBRANCH   2  17
BRANCH   5  24
ATOM     24  C   UNL     1      35.016   2.104  16.409  0.00  0.00    +0.000 C 
BRANCH  24  25
ATOM     25  C   UNL     1      35.402   0.753  15.856  0.00  0.00    +0.000 C 
BRANCH  25  26
ATOM     26  C   UNL     1      35.972  -0.042  16.980  0.00  0.00    +0.000 A 
ATOM     27  C   UNL     1      36.997  -0.937  16.821  0.00  0.00    +0.000 A 
ATOM     28  C   UNL     1      37.542  -1.684  17.841  0.00  0.00    +0.000 A 
ATOM     29  C   UNL     1      37.009  -1.509  19.114  0.00  0.00    +0.000 A 
ATOM     30  C   UNL     1      35.982  -0.619  19.307  0.00  0.00    +0.000 A 
ATOM     31  C   UNL     1      35.464   0.108  18.262  0.00  0.00    +0.000 A 
ENDBRANCH  25  26
ENDBRANCH  24  25
ENDBRANCH   5  24
TORSDOF 7
ENDMDL
MODEL 6
REMARK VINA RESULT:      -7.1     26.155     28.908
REMARK  Name = 
REMARK  7 active torsions:
REMARK  status: ('A' for Active; 'I' for Inactive)
REMARK    1  A    between atoms: C_5  and  N_6
REMARK    2  A    between atoms: N_6  and  C_7
REMARK    3  A    between atoms: C_8  and  S_9
REMARK    4  A    between atoms: S_9  and  C_10
REMARK    5  A    between atoms: N_18  and  C_19
REMARK    6  A    between atoms: C_19  and  C_20
REMARK    7  A    between atoms: C_20  and  C_21
REMARK                            x       y       z     vdW  Elec       q    Type
REMARK                         _______ _______ _______ _____ _____    ______ ____
ROOT
ATOM      1  C   UNL     1      26.312  13.990  40.473  0.00  0.00    +0.000 C 
ATOM      2  C   UNL     1      27.592  14.403  40.380  0.00  0.00    +0.000 C 
ATOM      3  C   UNL     1      27.694  15.112  39.120  0.00  0.00    +0.000 C 
ATOM      4  O   UNL     1      28.707  15.660  38.637  0.00  0.00    +0.000 OA
ATOM      5  N   UNL     1      26.435  15.129  38.431  0.00  0.00    +0.000 N 
ATOM      6  C   UNL     1      25.573  14.414  39.302  0.00  0.00    +0.000 C 
ATOM      7  O   UNL     1      24.333  14.189  39.072  0.00  0.00    +0.000 OA
ENDROOT
BRANCH   1   8
ATOM      8  N   UNL     1      25.808  13.246  41.587  0.00  0.00    +0.000 NA
BRANCH   8  13
ATOM      9  C   UNL     1      27.910   7.944  42.287  0.00  0.00    +0.000 C 
ATOM     10  C   UNL     1      27.362   9.327  42.122  0.00  0.00    +0.000 A 
ATOM     11  C   UNL     1      27.182   9.867  40.866  0.00  0.00    +0.000 A 
ATOM     12  C   UNL     1      26.678  11.137  40.692  0.00  0.00    +0.000 A 
ATOM     13  C   UNL     1      26.331  11.927  41.774  0.00  0.00    +0.000 A 
ATOM     14  C   UNL     1      26.517  11.372  43.024  0.00  0.00    +0.000 A 
ATOM     15  C   UNL     1      27.019  10.105  43.209  0.00  0.00    +0.000 A 
ATOM     16  C   UNL     1      27.218   9.511  44.554  0.00  0.00    +0.000 C 
ENDBRANCH   8  13
ENDBRANCH   1   8
BRANCH   2  17
ATOM     17  S   UNL     1      28.820  14.083  41.613  0.00  0.00    +0.000 S 
BRANCH  17  18
ATOM     18  C   UNL     1      29.734  12.620  41.435  0.00  0.00    +0.000 A 
ATOM     19  C   UNL     1      30.086  11.946  42.605  0.00  0.00    +0.000 A 
ATOM     20  C   UNL     1      30.798  10.795  42.600  0.00  0.00    +0.000 A 
ATOM     21  C   UNL     1      31.199  10.255  41.389  0.00  0.00    +0.000 A 
ATOM     22  C   UNL     1      30.854  10.916  40.223  0.00  0.00    +0.000 A 
ATOM     23  C   UNL     1      30.132  12.080  40.257  0.00  0.00    +0.000 A 
ENDBRANCH  17  18
ENDBRANCH   2  17
BRANCH   5  24
ATOM     24  C   UNL     1      26.114  15.725  37.159  0.00  0.00    +0.000 C 
BRANCH  24  25
ATOM     25  C   UNL     1      26.746  14.967  36.016  0.00  0.00    +0.000 C 
BRANCH  25  26
ATOM     26  C   UNL     1      26.035  15.367  34.769  0.00  0.00    +0.000 A 
ATOM     27  C   UNL     1      25.800  14.505  33.730  0.00  0.00    +0.000 A 
ATOM     28  C   UNL     1      25.146  14.847  32.569  0.00  0.00    +0.000 A 
ATOM     29  C   UNL     1      24.697  16.158  32.452  0.00  0.00    +0.000 A 
ATOM     30  C   UNL     1      24.915  17.047  33.476  0.00  0.00    +0.000 A 
ATOM     31  C   UNL     1      25.574  16.666  34.621  0.00  0.00    +0.000 A 
ENDBRANCH  25  26
ENDBRANCH  24  25
ENDBRANCH   5  24
TORSDOF 7
ENDMDL
MODEL 7
REMARK VINA RESULT:      -6.8      2.961      5.114
REMARK  Name = 
REMARK  7 active torsions:
REMARK  status: ('A' for Active; 'I' for Inactive)
REMARK    1  A    between atoms: C_5  and  N_6
REMARK    2  A    between atoms: N_6  and  C_7
REMARK    3  A    between atoms: C_8  and  S_9
REMARK    4  A    between atoms: S_9  and  C_10
REMARK    5  A    between atoms: N_18  and  C_19
REMARK    6  A    between atoms: C_19  and  C_20
REMARK    7  A    between atoms: C_20  and  C_21
REMARK                            x       y       z     vdW  Elec       q    Type
REMARK                         _______ _______ _______ _____ _____    ______ ____
ROOT
ATOM      1  C   UNL     1      36.796   3.638  15.414  0.00  0.00    +0.000 C 
ATOM      2  C   UNL     1      37.402   4.595  14.683  0.00  0.00    +0.000 C 
ATOM      3  C   UNL     1      38.372   5.217  15.561  0.00  0.00    +0.000 C 
ATOM      4  O   UNL     1      39.153   6.154  15.289  0.00  0.00    +0.000 OA
ATOM      5  N   UNL     1      38.353   4.617  16.864  0.00  0.00    +0.000 N 
ATOM      6  C   UNL     1      37.349   3.619  16.752  0.00  0.00    +0.000 C 
ATOM      7  O   UNL     1      37.000   2.832  17.700  0.00  0.00    +0.000 OA
ENDROOT
BRANCH   1   8
ATOM      8  N   UNL     1      35.765   2.792  14.896  0.00  0.00    +0.000 NA
BRANCH   8  13
ATOM      9  C   UNL     1      37.004  -2.799  14.415  0.00  0.00    +0.000 C 
ATOM     10  C   UNL     1      36.672  -1.347  14.555  0.00  0.00    +0.000 A 
ATOM     11  C   UNL     1      37.137  -0.427  13.637  0.00  0.00    +0.000 A 
ATOM     12  C   UNL     1      36.842   0.913  13.747  0.00  0.00    +0.000 A 
ATOM     13  C   UNL     1      36.067   1.396  14.787  0.00  0.00    +0.000 A 
ATOM     14  C   UNL     1      35.610   0.465  15.696  0.00  0.00    +0.000 A 
ATOM     15  C   UNL     1      35.898  -0.877  15.597  0.00  0.00    +0.000 A 
ATOM     16  C   UNL     1      35.405  -1.876  16.575  0.00  0.00    +0.000 C 
ENDBRANCH   8  13
ENDBRANCH   1   8
BRANCH   2  17
ATOM     17  S   UNL     1      37.008   4.937  12.992  0.00  0.00    +0.000 S 
BRANCH  17  18
ATOM     18  C   UNL     1      35.575   5.872  12.704  0.00  0.00    +0.000 A 
ATOM     19  C   UNL     1      35.351   6.302  11.396  0.00  0.00    +0.000 A 
ATOM     20  C   UNL     1      34.270   7.038  11.043  0.00  0.00    +0.000 A 
ATOM     21  C   UNL     1      33.343   7.383  12.012  0.00  0.00    +0.000 A 
ATOM     22  C   UNL     1      33.557   6.961  13.312  0.00  0.00    +0.000 A 
ATOM     23  C   UNL     1      34.660   6.217  13.643  0.00  0.00    +0.000 A 
ENDBRANCH  17  18
ENDBRANCH   2  17
BRANCH   5  24
ATOM     24  C   UNL     1      39.155   4.941  18.016  0.00  0.00    +0.000 C 
BRANCH  24  25
ATOM     25  C   UNL     1      38.707   6.232  18.658  0.00  0.00    +0.000 C 
BRANCH  25  26
ATOM     26  C   UNL     1      39.902   6.850  19.299  0.00  0.00    +0.000 A 
ATOM     27  C   UNL     1      40.906   6.117  19.876  0.00  0.00    +0.000 A 
ATOM     28  C   UNL     1      42.020   6.660  20.474  0.00  0.00    +0.000 A 
ATOM     29  C   UNL     1      42.124   8.047  20.487  0.00  0.00    +0.000 A 
ATOM     30  C   UNL     1      41.135   8.811  19.917  0.00  0.00    +0.000 A 
ATOM     31  C   UNL     1      40.036   8.230  19.329  0.00  0.00    +0.000 A 
ENDBRANCH  25  26
ENDBRANCH  24  25
ENDBRANCH   5  24
TORSDOF 7
ENDMDL
MODEL 8
REMARK VINA RESULT:      -6.7      3.144      8.335
REMARK  Name = 
REMARK  7 active torsions:
REMARK  status: ('A' for Active; 'I' for Inactive)
REMARK    1  A    between atoms: C_5  and  N_6
REMARK    2  A    between atoms: N_6  and  C_7
REMARK    3  A    between atoms: C_8  and  S_9
REMARK    4  A    between atoms: S_9  and  C_10
REMARK    5  A    between atoms: N_18  and  C_19
REMARK    6  A    between atoms: C_19  and  C_20
REMARK    7  A    between atoms: C_20  and  C_21
REMARK                            x       y       z     vdW  Elec       q    Type
REMARK                         _______ _______ _______ _____ _____    ______ ____
ROOT
ATOM      1  C   UNL     1      37.513   4.518  15.524  0.00  0.00    +0.000 C 
ATOM      2  C   UNL     1      37.489   4.414  14.180  0.00  0.00    +0.000 C 
ATOM      3  C   UNL     1      37.375   2.998  13.890  0.00  0.00    +0.000 C 
ATOM      4  O   UNL     1      37.319   2.455  12.766  0.00  0.00    +0.000 OA
ATOM      5  N   UNL     1      37.327   2.223  15.097  0.00  0.00    +0.000 N 
ATOM      6  C   UNL     1      37.416   3.201  16.120  0.00  0.00    +0.000 C 
ATOM      7  O   UNL     1      37.409   2.942  17.374  0.00  0.00    +0.000 OA
ENDROOT
BRANCH   1   8
ATOM      8  N   UNL     1      37.618   5.769  16.211  0.00  0.00    +0.000 NA
BRANCH   8  13
ATOM      9  C   UNL     1      42.175   6.489  19.636  0.00  0.00    +0.000 C 
ATOM     10  C   UNL     1      40.999   6.303  18.730  0.00  0.00    +0.000 A 
ATOM     11  C   UNL     1      39.738   6.096  19.249  0.00  0.00    +0.000 A 
ATOM     12  C   UNL     1      38.642   5.923  18.432  0.00  0.00    +0.000 A 
ATOM     13  C   UNL     1      38.761   5.949  17.054  0.00  0.00    +0.000 A 
ATOM     14  C   UNL     1      40.029   6.158  16.551  0.00  0.00    +0.000 A 
ATOM     15  C   UNL     1      41.131   6.331  17.356  0.00  0.00    +0.000 A 
ATOM     16  C   UNL     1      42.492   6.555  16.813  0.00  0.00    +0.000 C 
ENDBRANCH   8  13
ENDBRANCH   1   8
BRANCH   2  17
ATOM     17  S   UNL     1      37.586   5.799  13.085  0.00  0.00    +0.000 S 
BRANCH  17  18
ATOM     18  C   UNL     1      36.090   6.354  12.403  0.00  0.00    +0.000 A 
ATOM     19  C   UNL     1      35.010   6.497  13.275  0.00  0.00    +0.000 A 
ATOM     20  C   UNL     1      33.791   6.921  12.865  0.00  0.00    +0.000 A 
ATOM     21  C   UNL     1      33.597   7.228  11.529  0.00  0.00    +0.000 A 
ATOM     22  C   UNL     1      34.662   7.089  10.657  0.00  0.00    +0.000 A 
ATOM     23  C   UNL     1      35.886   6.658  11.097  0.00  0.00    +0.000 A 
ENDBRANCH  17  18
ENDBRANCH   2  17
BRANCH   5  24
ATOM     24  C   UNL     1      37.217   0.794  15.244  0.00  0.00    +0.000 C 
BRANCH  24  25
ATOM     25  C   UNL     1      38.497   0.095  14.853  0.00  0.00    +0.000 C 
BRANCH  25  26
ATOM     26  C   UNL     1      38.539  -1.201  15.586  0.00  0.00    +0.000 A 
ATOM     27  C   UNL     1      37.502  -1.662  16.354  0.00  0.00    +0.000 A 
ATOM     28  C   UNL     1      37.513  -2.855  17.041  0.00  0.00    +0.000 A 
ATOM     29  C   UNL     1      38.659  -3.637  16.941  0.00  0.00    +0.000 A 
ATOM     30  C   UNL     1      39.716  -3.204  16.179  0.00  0.00    +0.000 A 
ATOM     31  C   UNL     1      39.667  -2.005  15.509  0.00  0.00    +0.000 A 
ENDBRANCH  25  26
ENDBRANCH  24  25
ENDBRANCH   5  24
TORSDOF 7
ENDMDL
MODEL 9
REMARK VINA RESULT:      -6.7      3.420      5.277
REMARK  Name = 
REMARK  7 active torsions:
REMARK  status: ('A' for Active; 'I' for Inactive)
REMARK    1  A    between atoms: C_5  and  N_6
REMARK    2  A    between atoms: N_6  and  C_7
REMARK    3  A    between atoms: C_8  and  S_9
REMARK    4  A    between atoms: S_9  and  C_10
REMARK    5  A    between atoms: N_18  and  C_19
REMARK    6  A    between atoms: C_19  and  C_20
REMARK    7  A    between atoms: C_20  and  C_21
REMARK                            x       y       z     vdW  Elec       q    Type
REMARK                         _______ _______ _______ _____ _____    ______ ____
ROOT
ATOM      1  C   UNL     1      37.351   2.639  15.171  0.00  0.00    +0.000 C 
ATOM      2  C   UNL     1      36.233   2.286  15.836  0.00  0.00    +0.000 C 
ATOM      3  C   UNL     1      35.193   3.186  15.378  0.00  0.00    +0.000 C 
ATOM      4  O   UNL     1      33.997   3.209  15.737  0.00  0.00    +0.000 OA
ATOM      5  N   UNL     1      35.699   4.112  14.406  0.00  0.00    +0.000 N 
ATOM      6  C   UNL     1      37.066   3.751  14.287  0.00  0.00    +0.000 C 
ATOM      7  O   UNL     1      37.905   4.330  13.513  0.00  0.00    +0.000 OA
ENDROOT
BRANCH   1   8
ATOM      8  N   UNL     1      38.609   1.980  15.349  0.00  0.00    +0.000 NA
BRANCH   8  13
ATOM      9  C   UNL     1      39.623  -2.547  11.959  0.00  0.00    +0.000 C 
ATOM     10  C   UNL     1      39.370  -1.375  12.853  0.00  0.00    +0.000 A 
ATOM     11  C   UNL     1      38.513  -0.366  12.466  0.00  0.00    +0.000 A 
ATOM     12  C   UNL     1      38.266   0.721  13.274  0.00  0.00    +0.000 A 
ATOM     13  C   UNL     1      38.870   0.848  14.512  0.00  0.00    +0.000 A 
ATOM     14  C   UNL     1      39.724  -0.169  14.886  0.00  0.00    +0.000 A 
ATOM     15  C   UNL     1      39.979  -1.260  14.087  0.00  0.00    +0.000 A 
ATOM     16  C   UNL     1      40.898  -2.351  14.491  0.00  0.00    +0.000 C 
ENDBRANCH   8  13
ENDBRANCH   1   8
BRANCH   2  17
ATOM     17  S   UNL     1      36.165   0.967  17.014  0.00  0.00    +0.000 S 
BRANCH  17  18
ATOM     18  C   UNL     1      36.491  -0.627  16.412  0.00  0.00    +0.000 A 
ATOM     19  C   UNL     1      37.371  -1.416  17.152  0.00  0.00    +0.000 A 
ATOM     20  C   UNL     1      37.706  -2.677  16.788  0.00  0.00    +0.000 A 
ATOM     21  C   UNL     1      37.158  -3.214  15.635  0.00  0.00    +0.000 A 
ATOM     22  C   UNL     1      36.284  -2.438  14.894  0.00  0.00    +0.000 A 
ATOM     23  C   UNL     1      35.961  -1.165  15.286  0.00  0.00    +0.000 A 
ENDBRANCH  17  18
ENDBRANCH   2  17
BRANCH   5  24
ATOM     24  C   UNL     1      34.996   5.160  13.711  0.00  0.00    +0.000 C 
BRANCH  24  25
ATOM     25  C   UNL     1      35.349   6.522  14.258  0.00  0.00    +0.000 C 
BRANCH  25  26
ATOM     26  C   UNL     1      34.960   7.529  13.231  0.00  0.00    +0.000 A 
ATOM     27  C   UNL     1      35.049   8.881  13.435  0.00  0.00    +0.000 A 
ATOM     28  C   UNL     1      34.697   9.833  12.505  0.00  0.00    +0.000 A 
ATOM     29  C   UNL     1      34.222   9.380  11.279  0.00  0.00    +0.000 A 
ATOM     30  C   UNL     1      34.121   8.031  11.042  0.00  0.00    +0.000 A 
ATOM     31  C   UNL     1      34.482   7.112  11.998  0.00  0.00    +0.000 A 
ENDBRANCH  25  26
ENDBRANCH  24  25
ENDBRANCH   5  24
TORSDOF 7
ENDMDL
MODEL 10
REMARK VINA RESULT:      -6.7      3.389      6.772
REMARK  Name = 
REMARK  7 active torsions:
REMARK  status: ('A' for Active; 'I' for Inactive)
REMARK    1  A    between atoms: C_5  and  N_6
REMARK    2  A    between atoms: N_6  and  C_7
REMARK    3  A    between atoms: C_8  and  S_9
REMARK    4  A    between atoms: S_9  and  C_10
REMARK    5  A    between atoms: N_18  and  C_19
REMARK    6  A    between atoms: C_19  and  C_20
REMARK    7  A    between atoms: C_20  and  C_21
REMARK                            x       y       z     vdW  Elec       q    Type
REMARK                         _______ _______ _______ _____ _____    ______ ____
ROOT
ATOM      1  C   UNL     1      37.389   4.054  15.479  0.00  0.00    +0.000 C 
ATOM      2  C   UNL     1      36.292   3.343  15.806  0.00  0.00    +0.000 C 
ATOM      3  C   UNL     1      35.198   3.925  15.055  0.00  0.00    +0.000 C 
ATOM      4  O   UNL     1      34.000   3.571  15.059  0.00  0.00    +0.000 OA
ATOM      5  N   UNL     1      35.649   5.022  14.247  0.00  0.00    +0.000 N 
ATOM      6  C   UNL     1      37.038   5.089  14.529  0.00  0.00    +0.000 C 
ATOM      7  O   UNL     1      37.843   5.940  14.013  0.00  0.00    +0.000 OA
ENDROOT
BRANCH   1   8
ATOM      8  N   UNL     1      38.687   3.785  16.020  0.00  0.00    +0.000 NA
BRANCH   8  13
ATOM      9  C   UNL     1      40.827   7.678  19.664  0.00  0.00    +0.000 C 
ATOM     10  C   UNL     1      40.281   6.670  18.703  0.00  0.00    +0.000 A 
ATOM     11  C   UNL     1      39.276   5.806  19.085  0.00  0.00    +0.000 A 
ATOM     12  C   UNL     1      38.759   4.872  18.215  0.00  0.00    +0.000 A 
ATOM     13  C   UNL     1      39.228   4.759  16.919  0.00  0.00    +0.000 A 
ATOM     14  C   UNL     1      40.234   5.630  16.552  0.00  0.00    +0.000 A 
ATOM     15  C   UNL     1      40.758   6.567  17.411  0.00  0.00    +0.000 A 
ATOM     16  C   UNL     1      41.838   7.502  17.014  0.00  0.00    +0.000 C 
ENDBRANCH   8  13
ENDBRANCH   1   8
BRANCH   2  17
ATOM     17  S   UNL     1      36.302   1.986  16.942  0.00  0.00    +0.000 S 
BRANCH  17  18
ATOM     18  C   UNL     1      36.154   0.400  16.256  0.00  0.00    +0.000 A 
ATOM     19  C   UNL     1      35.290  -0.489  16.895  0.00  0.00    +0.000 A 
ATOM     20  C   UNL     1      35.088  -1.755  16.458  0.00  0.00    +0.000 A 
ATOM     21  C   UNL     1      35.762  -2.195  15.331  0.00  0.00    +0.000 A 
ATOM     22  C   UNL     1      36.622  -1.320  14.690  0.00  0.00    +0.000 A 
ATOM     23  C   UNL     1      36.808  -0.044  15.154  0.00  0.00    +0.000 A 
ENDBRANCH  17  18
ENDBRANCH   2  17
BRANCH   5  24
ATOM     24  C   UNL     1      34.883   5.861  13.361  0.00  0.00    +0.000 C 
BRANCH  24  25
ATOM     25  C   UNL     1      33.790   6.596  14.099  0.00  0.00    +0.000 C 
BRANCH  25  26
ATOM     26  C   UNL     1      34.202   8.024  14.198  0.00  0.00    +0.000 A 
ATOM     27  C   UNL     1      35.064   8.619  13.315  0.00  0.00    +0.000 A 
ATOM     28  C   UNL     1      35.461   9.935  13.383  0.00  0.00    +0.000 A 
ATOM     29  C   UNL     1      34.946  10.703  14.422  0.00  0.00    +0.000 A 
ATOM     30  C   UNL     1      34.079  10.137  15.324  0.00  0.00    +0.000 A 
ATOM     31  C   UNL     1      33.708   8.818  15.222  0.00  0.00    +0.000 A 
ENDBRANCH  25  26
ENDBRANCH  24  25
ENDBRANCH   5  24
TORSDOF 7
ENDMDL
