MODEL 1
REMARK VINA RESULT:      -8.4      0.000      0.000
REMARK  Name = 
REMARK  7 active torsions:
REMARK  status: ('A' for Active; 'I' for Inactive)
REMARK    1  A    between atoms: O_2  and  C_3
REMARK    2  A    between atoms: C_6  and  C_7
REMARK    3  A    between atoms: C_7  and  C_8
REMARK    4  A    between atoms: C_8  and  N_9
REMARK    5  A    between atoms: C_10  and  C_12
REMARK    6  A    between atoms: C_14  and  C_15
REMARK    7  A    between atoms: C_19  and  O_20
REMARK                            x       y       z     vdW  Elec       q    Type
REMARK                         _______ _______ _______ _____ _____    ______ ____
ROOT
ATOM      1  C   UNL     1      12.761   0.391  26.898  0.00  0.00    +0.000 A 
ATOM      2  C   UNL     1      12.167  -0.688  26.283  0.00  0.00    +0.000 A 
ATOM      3  C   UNL     1      10.959  -0.635  25.626  0.00  0.00    +0.000 A 
ATOM      4  N   UNL     1      10.326   0.533  25.581  0.00  0.00    +0.000 NA
ATOM      5  C   UNL     1      10.858   1.641  26.169  0.00  0.00    +0.000 A 
ATOM      6  C   UNL     1      10.155   2.811  26.087  0.00  0.00    +0.000 A 
ATOM      7  C   UNL     1      10.669   3.942  26.670  0.00  0.00    +0.000 A 
ATOM      8  C   UNL     1      11.876   3.885  27.326  0.00  0.00    +0.000 A 
ATOM      9  C   UNL     1      12.607   2.721  27.425  0.00  0.00    +0.000 A 
ATOM     10  C   UNL     1      12.068   1.592  26.829  0.00  0.00    +0.000 A 
ENDROOT
BRANCH   3  11
ATOM     11  C   UNL     1      10.435  -1.855  25.013  0.00  0.00    +0.000 A 
ATOM     12  C   UNL     1       9.094  -2.153  25.034  0.00  0.00    +0.000 A 
ATOM     13  C   UNL     1       8.571  -3.297  24.463  0.00  0.00    +0.000 A 
ATOM     14  C   UNL     1       9.430  -4.156  23.857  0.00  0.00    +0.000 A 
ATOM     15  C   UNL     1      10.784  -3.923  23.799  0.00  0.00    +0.000 A 
ATOM     16  C   UNL     1      11.276  -2.750  24.390  0.00  0.00    +0.000 A 
BRANCH  15  17
ATOM     17  O   UNL     1      11.602  -4.821  23.178  0.00  0.00    +0.000 OA
ATOM     18  C   UNL     1      11.337  -5.209  21.848  0.00  0.00    +0.000 C 
ENDBRANCH  15  17
ENDBRANCH   3  11
BRANCH   1  20
ATOM     19  N   UNL     1      15.284   0.362  26.932  0.00  0.00    +0.000 NA
ATOM     20  C   UNL     1      14.045   0.289  27.584  0.00  0.00    +0.000 C 
ATOM     21  O   UNL     1      14.021   0.127  28.829  0.00  0.00    +0.000 OA
BRANCH  19  22
ATOM     22  C   UNL     1      16.569   0.264  27.593  0.00  0.00    +0.000 C 
BRANCH  22  23
ATOM     23  C   UNL     1      17.620   1.121  26.971  0.00  0.00    +0.000 C 
BRANCH  23  27
ATOM     24  C   UNL     1      19.629  -1.091  23.877  0.00  0.00    +0.000 A 
ATOM     25  C   UNL     1      19.066  -1.731  24.939  0.00  0.00    +0.000 A 
ATOM     26  C   UNL     1      18.425  -1.007  25.922  0.00  0.00    +0.000 A 
ATOM     27  C   UNL     1      18.316   0.368  25.897  0.00  0.00    +0.000 A 
ATOM     28  C   UNL     1      18.895   1.008  24.809  0.00  0.00    +0.000 A 
ATOM     29  C   UNL     1      19.535   0.288  23.827  0.00  0.00    +0.000 A 
BRANCH  24  31
ATOM     30  C   UNL     1      20.964  -1.115  21.831  0.00  0.00    +0.000 C 
ATOM     31  O   UNL     1      20.288  -1.779  22.858  0.00  0.00    +0.000 OA
ENDBRANCH  24  31
ENDBRANCH  23  27
ENDBRANCH  22  23
ENDBRANCH  19  22
ENDBRANCH   1  20
TORSDOF 7
ENDMDL
MODEL 2
REMARK VINA RESULT:      -8.4     21.001     27.046
REMARK  Name = 
REMARK  7 active torsions:
REMARK  status: ('A' for Active; 'I' for Inactive)
REMARK    1  A    between atoms: O_2  and  C_3
REMARK    2  A    between atoms: C_6  and  C_7
REMARK    3  A    between atoms: C_7  and  C_8
REMARK    4  A    between atoms: C_8  and  N_9
REMARK    5  A    between atoms: C_10  and  C_12
REMARK    6  A    between atoms: C_14  and  C_15
REMARK    7  A    between atoms: C_19  and  O_20
REMARK                            x       y       z     vdW  Elec       q    Type
REMARK                         _______ _______ _______ _____ _____    ______ ____
ROOT
ATOM      1  C   UNL     1      38.542   0.746  14.718  0.00  0.00    +0.000 A 
ATOM      2  C   UNL     1      37.442  -0.026  15.013  0.00  0.00    +0.000 A 
ATOM      3  C   UNL     1      37.469  -1.398  15.128  0.00  0.00    +0.000 A 
ATOM      4  N   UNL     1      38.632  -2.015  14.944  0.00  0.00    +0.000 NA
ATOM      5  C   UNL     1      39.760  -1.309  14.649  0.00  0.00    +0.000 A 
ATOM      6  C   UNL     1      40.923  -2.005  14.471  0.00  0.00    +0.000 A 
ATOM      7  C   UNL     1      42.074  -1.319  14.174  0.00  0.00    +0.000 A 
ATOM      8  C   UNL     1      42.043   0.050  14.060  0.00  0.00    +0.000 A 
ATOM      9  C   UNL     1      40.886   0.779  14.234  0.00  0.00    +0.000 A 
ATOM     10  C   UNL     1      39.737   0.064  14.533  0.00  0.00    +0.000 A 
ENDROOT
BRANCH   3  11
ATOM     11  C   UNL     1      36.228  -2.104  15.445  0.00  0.00    +0.000 A 
ATOM     12  C   UNL     1      35.884  -3.275  14.814  0.00  0.00    +0.000 A 
ATOM     13  C   UNL     1      34.719  -3.963  15.094  0.00  0.00    +0.000 A 
ATOM     14  C   UNL     1      33.887  -3.451  16.037  0.00  0.00    +0.000 A 
ATOM     15  C   UNL     1      34.167  -2.283  16.709  0.00  0.00    +0.000 A 
ATOM     16  C   UNL     1      35.360  -1.614  16.395  0.00  0.00    +0.000 A 
BRANCH  15  17
ATOM     17  O   UNL     1      33.296  -1.812  17.646  0.00  0.00    +0.000 OA
ATOM     18  C   UNL     1      31.937  -2.191  17.593  0.00  0.00    +0.000 C 
ENDBRANCH  15  17
ENDBRANCH   3  11
BRANCH   1  20
ATOM     19  N   UNL     1      38.820   3.080  15.638  0.00  0.00    +0.000 NA
ATOM     20  C   UNL     1      38.468   2.200  14.606  0.00  0.00    +0.000 C 
ATOM     21  O   UNL     1      38.063   2.673  13.515  0.00  0.00    +0.000 OA
BRANCH  19  22
ATOM     22  C   UNL     1      38.753   4.524  15.548  0.00  0.00    +0.000 C 
BRANCH  22  23
ATOM     23  C   UNL     1      38.228   5.168  16.787  0.00  0.00    +0.000 C 
BRANCH  23  27
ATOM     24  C   UNL     1      41.516   6.540  19.197  0.00  0.00    +0.000 A 
ATOM     25  C   UNL     1      41.637   6.437  17.845  0.00  0.00    +0.000 A 
ATOM     26  C   UNL     1      40.574   5.996  17.087  0.00  0.00    +0.000 A 
ATOM     27  C   UNL     1      39.356   5.640  17.629  0.00  0.00    +0.000 A 
ATOM     28  C   UNL     1      39.245   5.750  19.009  0.00  0.00    +0.000 A 
ATOM     29  C   UNL     1      40.305   6.191  19.768  0.00  0.00    +0.000 A 
BRANCH  24  31
ATOM     30  C   UNL     1      43.029   6.232  21.090  0.00  0.00    +0.000 C 
ATOM     31  O   UNL     1      42.562   6.981  20.007  0.00  0.00    +0.000 OA
ENDBRANCH  24  31
ENDBRANCH  23  27
ENDBRANCH  22  23
ENDBRANCH  19  22
ENDBRANCH   1  20
TORSDOF 7
ENDMDL
MODEL 3
REMARK VINA RESULT:      -8.3     23.505     27.174
REMARK  Name = 
REMARK  7 active torsions:
REMARK  status: ('A' for Active; 'I' for Inactive)
REMARK    1  A    between atoms: O_2  and  C_3
REMARK    2  A    between atoms: C_6  and  C_7
REMARK    3  A    between atoms: C_7  and  C_8
REMARK    4  A    between atoms: C_8  and  N_9
REMARK    5  A    between atoms: C_10  and  C_12
REMARK    6  A    between atoms: C_14  and  C_15
REMARK    7  A    between atoms: C_19  and  O_20
REMARK                            x       y       z     vdW  Elec       q    Type
REMARK                         _______ _______ _______ _____ _____    ______ ____
ROOT
ATOM      1  C   UNL     1      37.378   3.247  16.477  0.00  0.00    +0.000 A 
ATOM      2  C   UNL     1      37.729   4.193  17.413  0.00  0.00    +0.000 A 
ATOM      3  C   UNL     1      38.766   5.085  17.260  0.00  0.00    +0.000 A 
ATOM      4  N   UNL     1      39.474   5.028  16.136  0.00  0.00    +0.000 NA
ATOM      5  C   UNL     1      39.180   4.114  15.168  0.00  0.00    +0.000 A 
ATOM      6  C   UNL     1      39.948   4.108  14.037  0.00  0.00    +0.000 A 
ATOM      7  C   UNL     1      39.673   3.199  13.047  0.00  0.00    +0.000 A 
ATOM      8  C   UNL     1      38.636   2.310  13.204  0.00  0.00    +0.000 A 
ATOM      9  C   UNL     1      37.845   2.292  14.332  0.00  0.00    +0.000 A 
ATOM     10  C   UNL     1      38.142   3.220  15.318  0.00  0.00    +0.000 A 
ENDROOT
BRANCH   3  11
ATOM     11  C   UNL     1      39.038   6.043  18.330  0.00  0.00    +0.000 A 
ATOM     12  C   UNL     1      40.086   5.872  19.202  0.00  0.00    +0.000 A 
ATOM     13  C   UNL     1      40.366   6.762  20.221  0.00  0.00    +0.000 A 
ATOM     14  C   UNL     1      39.564   7.848  20.357  0.00  0.00    +0.000 A 
ATOM     15  C   UNL     1      38.496   8.084  19.521  0.00  0.00    +0.000 A 
ATOM     16  C   UNL     1      38.245   7.156  18.499  0.00  0.00    +0.000 A 
BRANCH  15  17
ATOM     17  O   UNL     1      37.721   9.191  19.703  0.00  0.00    +0.000 OA
ATOM     18  C   UNL     1      38.096  10.159  20.659  0.00  0.00    +0.000 C 
ENDBRANCH  15  17
ENDBRANCH   3  11
BRANCH   1  20
ATOM     19  N   UNL     1      36.399   1.075  17.311  0.00  0.00    +0.000 NA
ATOM     20  C   UNL     1      36.268   2.320  16.682  0.00  0.00    +0.000 C 
ATOM     21  O   UNL     1      35.138   2.676  16.264  0.00  0.00    +0.000 OA
BRANCH  19  22
ATOM     22  C   UNL     1      35.313   0.141  17.523  0.00  0.00    +0.000 C 
BRANCH  22  23
ATOM     23  C   UNL     1      35.266  -0.951  16.508  0.00  0.00    +0.000 C 
BRANCH  23  27
ATOM     24  C   UNL     1      39.245  -2.391  15.737  0.00  0.00    +0.000 A 
ATOM     25  C   UNL     1      38.648  -2.601  16.943  0.00  0.00    +0.000 A 
ATOM     26  C   UNL     1      37.372  -2.133  17.174  0.00  0.00    +0.000 A 
ATOM     27  C   UNL     1      36.639  -1.443  16.230  0.00  0.00    +0.000 A 
ATOM     28  C   UNL     1      37.259  -1.235  15.005  0.00  0.00    +0.000 A 
ATOM     29  C   UNL     1      38.533  -1.701  14.773  0.00  0.00    +0.000 A 
BRANCH  24  31
ATOM     30  C   UNL     1      41.119  -2.685  14.197  0.00  0.00    +0.000 C 
ATOM     31  O   UNL     1      40.534  -2.844  15.456  0.00  0.00    +0.000 OA
ENDBRANCH  24  31
ENDBRANCH  23  27
ENDBRANCH  22  23
ENDBRANCH  19  22
ENDBRANCH   1  20
TORSDOF 7
ENDMDL
MODEL 4
REMARK VINA RESULT:      -8.3     23.515     27.750
REMARK  Name = 
REMARK  7 active torsions:
REMARK  status: ('A' for Active; 'I' for Inactive)
REMARK    1  A    between atoms: O_2  and  C_3
REMARK    2  A    between atoms: C_6  and  C_7
REMARK    3  A    between atoms: C_7  and  C_8
REMARK    4  A    between atoms: C_8  and  N_9
REMARK    5  A    between atoms: C_10  and  C_12
REMARK    6  A    between atoms: C_14  and  C_15
REMARK    7  A    between atoms: C_19  and  O_20
REMARK                            x       y       z     vdW  Elec       q    Type
REMARK                         _______ _______ _______ _____ _____    ______ ____
ROOT
ATOM      1  C   UNL     1      37.683   1.262  15.015  0.00  0.00    +0.000 A 
ATOM      2  C   UNL     1      38.543   0.415  14.355  0.00  0.00    +0.000 A 
ATOM      3  C   UNL     1      38.436  -0.957  14.364  0.00  0.00    +0.000 A 
ATOM      4  N   UNL     1      37.436  -1.499  15.054  0.00  0.00    +0.000 NA
ATOM      5  C   UNL     1      36.549  -0.716  15.731  0.00  0.00    +0.000 A 
ATOM      6  C   UNL     1      35.545  -1.336  16.422  0.00  0.00    +0.000 A 
ATOM      7  C   UNL     1      34.637  -0.573  17.111  0.00  0.00    +0.000 A 
ATOM      8  C   UNL     1      34.748   0.798  17.100  0.00  0.00    +0.000 A 
ATOM      9  C   UNL     1      35.748   1.451  16.413  0.00  0.00    +0.000 A 
ATOM     10  C   UNL     1      36.653   0.658  15.724  0.00  0.00    +0.000 A 
ENDROOT
BRANCH   3  11
ATOM     11  C   UNL     1      39.416  -1.748  13.621  0.00  0.00    +0.000 A 
ATOM     12  C   UNL     1      40.504  -2.314  14.241  0.00  0.00    +0.000 A 
ATOM     13  C   UNL     1      41.444  -3.066  13.564  0.00  0.00    +0.000 A 
ATOM     14  C   UNL     1      41.276  -3.246  12.229  0.00  0.00    +0.000 A 
ATOM     15  C   UNL     1      40.211  -2.709  11.542  0.00  0.00    +0.000 A 
ATOM     16  C   UNL     1      39.278  -1.951  12.266  0.00  0.00    +0.000 A 
BRANCH  15  17
ATOM     17  O   UNL     1      40.091  -2.920  10.201  0.00  0.00    +0.000 OA
ATOM     18  C   UNL     1      41.217  -3.319   9.450  0.00  0.00    +0.000 C 
ENDBRANCH  15  17
ENDBRANCH   3  11
BRANCH   1  20
ATOM     19  N   UNL     1      38.649   3.435  15.862  0.00  0.00    +0.000 NA
ATOM     20  C   UNL     1      37.835   2.713  14.978  0.00  0.00    +0.000 C 
ATOM     21  O   UNL     1      37.192   3.337  14.097  0.00  0.00    +0.000 OA
BRANCH  19  22
ATOM     22  C   UNL     1      38.814   4.873  15.842  0.00  0.00    +0.000 C 
BRANCH  22  23
ATOM     23  C   UNL     1      38.412   5.531  17.119  0.00  0.00    +0.000 C 
BRANCH  23  27
ATOM     24  C   UNL     1      41.890   6.593  19.415  0.00  0.00    +0.000 A 
ATOM     25  C   UNL     1      40.699   6.345  20.027  0.00  0.00    +0.000 A 
ATOM     26  C   UNL     1      39.594   6.006  19.277  0.00  0.00    +0.000 A 
ATOM     27  C   UNL     1      39.619   5.898  17.901  0.00  0.00    +0.000 A 
ATOM     28  C   UNL     1      40.840   6.154  17.290  0.00  0.00    +0.000 A 
ATOM     29  C   UNL     1      41.944   6.492  18.037  0.00  0.00    +0.000 A 
BRANCH  24  31
ATOM     30  C   UNL     1      43.242   6.528  21.450  0.00  0.00    +0.000 C 
ATOM     31  O   UNL     1      43.036   6.940  20.131  0.00  0.00    +0.000 OA
ENDBRANCH  24  31
ENDBRANCH  23  27
ENDBRANCH  22  23
ENDBRANCH  19  22
ENDBRANCH   1  20
TORSDOF 7
ENDMDL
MODEL 5
REMARK VINA RESULT:      -8.2     23.267     27.781
REMARK  Name = 
REMARK  7 active torsions:
REMARK  status: ('A' for Active; 'I' for Inactive)
REMARK    1  A    between atoms: O_2  and  C_3
REMARK    2  A    between atoms: C_6  and  C_7
REMARK    3  A    between atoms: C_7  and  C_8
REMARK    4  A    between atoms: C_8  and  N_9
REMARK    5  A    between atoms: C_10  and  C_12
REMARK    6  A    between atoms: C_14  and  C_15
REMARK    7  A    between atoms: C_19  and  O_20
REMARK                            x       y       z     vdW  Elec       q    Type
REMARK                         _______ _______ _______ _____ _____    ______ ____
ROOT
ATOM      1  C   UNL     1      37.427   0.917  15.411  0.00  0.00    +0.000 A 
ATOM      2  C   UNL     1      38.475   0.248  14.823  0.00  0.00    +0.000 A 
ATOM      3  C   UNL     1      38.596  -1.122  14.787  0.00  0.00    +0.000 A 
ATOM      4  N   UNL     1      37.637  -1.846  15.358  0.00  0.00    +0.000 NA
ATOM      5  C   UNL     1      36.571  -1.246  15.958  0.00  0.00    +0.000 A 
ATOM      6  C   UNL     1      35.620  -2.048  16.527  0.00  0.00    +0.000 A 
ATOM      7  C   UNL     1      34.536  -1.470  17.138  0.00  0.00    +0.000 A 
ATOM      8  C   UNL     1      34.420  -0.100  17.171  0.00  0.00    +0.000 A 
ATOM      9  C   UNL     1      35.361   0.734  16.607  0.00  0.00    +0.000 A 
ATOM     10  C   UNL     1      36.447   0.126  15.996  0.00  0.00    +0.000 A 
ENDROOT
BRANCH   3  11
ATOM     11  C   UNL     1      39.761  -1.713  14.131  0.00  0.00    +0.000 A 
ATOM     12  C   UNL     1      39.642  -2.450  12.977  0.00  0.00    +0.000 A 
ATOM     13  C   UNL     1      40.726  -3.018  12.336  0.00  0.00    +0.000 A 
ATOM     14  C   UNL     1      41.957  -2.832  12.878  0.00  0.00    +0.000 A 
ATOM     15  C   UNL     1      42.151  -2.107  14.031  0.00  0.00    +0.000 A 
ATOM     16  C   UNL     1      41.025  -1.546  14.652  0.00  0.00    +0.000 A 
BRANCH  15  17
ATOM     17  O   UNL     1      43.409  -1.953  14.534  0.00  0.00    +0.000 OA
ATOM     18  C   UNL     1      44.050  -0.699  14.447  0.00  0.00    +0.000 C 
ENDBRANCH  15  17
ENDBRANCH   3  11
BRANCH   1  20
ATOM     19  N   UNL     1      37.888   3.179  16.433  0.00  0.00    +0.000 NA
ATOM     20  C   UNL     1      37.340   2.375  15.424  0.00  0.00    +0.000 C 
ATOM     21  O   UNL     1      36.735   2.924  14.470  0.00  0.00    +0.000 OA
BRANCH  19  22
ATOM     22  C   UNL     1      37.814   4.624  16.465  0.00  0.00    +0.000 C 
BRANCH  22  23
ATOM     23  C   UNL     1      39.075   5.290  16.028  0.00  0.00    +0.000 C 
BRANCH  23  27
ATOM     24  C   UNL     1      41.349   6.587  19.441  0.00  0.00    +0.000 A 
ATOM     25  C   UNL     1      41.895   6.598  18.194  0.00  0.00    +0.000 A 
ATOM     26  C   UNL     1      41.153   6.179  17.110  0.00  0.00    +0.000 A 
ATOM     27  C   UNL     1      39.850   5.735  17.213  0.00  0.00    +0.000 A 
ATOM     28  C   UNL     1      39.305   5.729  18.491  0.00  0.00    +0.000 A 
ATOM     29  C   UNL     1      40.044   6.146  19.574  0.00  0.00    +0.000 A 
BRANCH  24  31
ATOM     30  C   UNL     1      43.004   6.181  21.192  0.00  0.00    +0.000 C 
ATOM     31  O   UNL     1      42.059   7.000  20.568  0.00  0.00    +0.000 OA
ENDBRANCH  24  31
ENDBRANCH  23  27
ENDBRANCH  22  23
ENDBRANCH  19  22
ENDBRANCH   1  20
TORSDOF 7
ENDMDL
MODEL 6
REMARK VINA RESULT:      -8.1     23.299     27.112
REMARK  Name = 
REMARK  7 active torsions:
REMARK  status: ('A' for Active; 'I' for Inactive)
REMARK    1  A    between atoms: O_2  and  C_3
REMARK    2  A    between atoms: C_6  and  C_7
REMARK    3  A    between atoms: C_7  and  C_8
REMARK    4  A    between atoms: C_8  and  N_9
REMARK    5  A    between atoms: C_10  and  C_12
REMARK    6  A    between atoms: C_14  and  C_15
REMARK    7  A    between atoms: C_19  and  O_20
REMARK                            x       y       z     vdW  Elec       q    Type
REMARK                         _______ _______ _______ _____ _____    ______ ____
ROOT
ATOM      1  C   UNL     1      36.948   1.152  15.083  0.00  0.00    +0.000 A 
ATOM      2  C   UNL     1      37.720   0.729  14.025  0.00  0.00    +0.000 A 
ATOM      3  C   UNL     1      37.767  -0.570  13.572  0.00  0.00    +0.000 A 
ATOM      4  N   UNL     1      37.018  -1.474  14.198  0.00  0.00    +0.000 NA
ATOM      5  C   UNL     1      36.231  -1.121  15.253  0.00  0.00    +0.000 A 
ATOM      6  C   UNL     1      35.487  -2.100  15.852  0.00  0.00    +0.000 A 
ATOM      7  C   UNL     1      34.685  -1.772  16.916  0.00  0.00    +0.000 A 
ATOM      8  C   UNL     1      34.641  -0.474  17.365  0.00  0.00    +0.000 A 
ATOM      9  C   UNL     1      35.380   0.533  16.782  0.00  0.00    +0.000 A 
ATOM     10  C   UNL     1      36.182   0.178  15.709  0.00  0.00    +0.000 A 
ENDROOT
BRANCH   3  11
ATOM     11  C   UNL     1      38.629  -0.892  12.437  0.00  0.00    +0.000 A 
ATOM     12  C   UNL     1      39.267  -2.104  12.337  0.00  0.00    +0.000 A 
ATOM     13  C   UNL     1      40.087  -2.435  11.275  0.00  0.00    +0.000 A 
ATOM     14  C   UNL     1      40.261  -1.513  10.293  0.00  0.00    +0.000 A 
ATOM     15  C   UNL     1      39.654  -0.278  10.327  0.00  0.00    +0.000 A 
ATOM     16  C   UNL     1      38.830   0.019  11.422  0.00  0.00    +0.000 A 
BRANCH  15  17
ATOM     17  O   UNL     1      39.865   0.610   9.315  0.00  0.00    +0.000 OA
ATOM     18  C   UNL     1      39.589   0.234   7.983  0.00  0.00    +0.000 C 
ENDBRANCH  15  17
ENDBRANCH   3  11
BRANCH   1  20
ATOM     19  N   UNL     1      37.815   3.068  16.479  0.00  0.00    +0.000 NA
ATOM     20  C   UNL     1      36.929   2.542  15.529  0.00  0.00    +0.000 C 
ATOM     21  O   UNL     1      36.063   3.297  15.022  0.00  0.00    +0.000 OA
BRANCH  19  22
ATOM     22  C   UNL     1      37.814   4.442  16.935  0.00  0.00    +0.000 C 
BRANCH  22  23
ATOM     23  C   UNL     1      39.166   4.934  17.329  0.00  0.00    +0.000 C 
BRANCH  23  27
ATOM     24  C   UNL     1      38.760   8.141  20.167  0.00  0.00    +0.000 A 
ATOM     25  C   UNL     1      37.926   8.049  19.094  0.00  0.00    +0.000 A 
ATOM     26  C   UNL     1      38.070   7.015  18.194  0.00  0.00    +0.000 A 
ATOM     27  C   UNL     1      39.036   6.037  18.315  0.00  0.00    +0.000 A 
ATOM     28  C   UNL     1      39.879   6.142  19.413  0.00  0.00    +0.000 A 
ATOM     29  C   UNL     1      39.738   7.173  20.313  0.00  0.00    +0.000 A 
BRANCH  24  31
ATOM     30  C   UNL     1      38.399  10.491  20.732  0.00  0.00    +0.000 C 
ATOM     31  O   UNL     1      38.655   9.168  21.104  0.00  0.00    +0.000 OA
ENDBRANCH  24  31
ENDBRANCH  23  27
ENDBRANCH  22  23
ENDBRANCH  19  22
ENDBRANCH   1  20
TORSDOF 7
ENDMDL
MODEL 7
REMARK VINA RESULT:      -8.0     23.155     27.124
REMARK  Name = 
REMARK  7 active torsions:
REMARK  status: ('A' for Active; 'I' for Inactive)
REMARK    1  A    between atoms: O_2  and  C_3
REMARK    2  A    between atoms: C_6  and  C_7
REMARK    3  A    between atoms: C_7  and  C_8
REMARK    4  A    between atoms: C_8  and  N_9
REMARK    5  A    between atoms: C_10  and  C_12
REMARK    6  A    between atoms: C_14  and  C_15
REMARK    7  A    between atoms: C_19  and  O_20
REMARK                            x       y       z     vdW  Elec       q    Type
REMARK                         _______ _______ _______ _____ _____    ______ ____
ROOT
ATOM      1  C   UNL     1      38.514   0.110  14.587  0.00  0.00    +0.000 A 
ATOM      2  C   UNL     1      37.384  -0.640  14.819  0.00  0.00    +0.000 A 
ATOM      3  C   UNL     1      37.381  -2.008  14.972  0.00  0.00    +0.000 A 
ATOM      4  N   UNL     1      38.545  -2.646  14.890  0.00  0.00    +0.000 NA
ATOM      5  C   UNL     1      39.702  -1.963  14.662  0.00  0.00    +0.000 A 
ATOM      6  C   UNL     1      40.865  -2.679  14.589  0.00  0.00    +0.000 A 
ATOM      7  C   UNL     1      42.044  -2.017  14.361  0.00  0.00    +0.000 A 
ATOM      8  C   UNL     1      42.043  -0.650  14.209  0.00  0.00    +0.000 A 
ATOM      9  C   UNL     1      40.888   0.098  14.278  0.00  0.00    +0.000 A 
ATOM     10  C   UNL     1      39.709  -0.593  14.509  0.00  0.00    +0.000 A 
ENDROOT
BRANCH   3  11
ATOM     11  C   UNL     1      36.110  -2.689  15.213  0.00  0.00    +0.000 A 
ATOM     12  C   UNL     1      35.196  -2.210  16.120  0.00  0.00    +0.000 A 
ATOM     13  C   UNL     1      33.987  -2.833  16.367  0.00  0.00    +0.000 A 
ATOM     14  C   UNL     1      33.702  -3.967  15.678  0.00  0.00    +0.000 A 
ATOM     15  C   UNL     1      34.570  -4.505  14.755  0.00  0.00    +0.000 A 
ATOM     16  C   UNL     1      35.786  -3.842  14.533  0.00  0.00    +0.000 A 
BRANCH  15  17
ATOM     17  O   UNL     1      34.234  -5.647  14.091  0.00  0.00    +0.000 OA
ATOM     18  C   UNL     1      33.963  -6.826  14.817  0.00  0.00    +0.000 C 
ENDBRANCH  15  17
ENDBRANCH   3  11
BRANCH   1  20
ATOM     19  N   UNL     1      38.618   2.462  15.495  0.00  0.00    +0.000 NA
ATOM     20  C   UNL     1      38.470   1.561  14.432  0.00  0.00    +0.000 C 
ATOM     21  O   UNL     1      38.289   2.010  13.274  0.00  0.00    +0.000 OA
BRANCH  19  22
ATOM     22  C   UNL     1      38.578   3.904  15.364  0.00  0.00    +0.000 C 
BRANCH  22  23
ATOM     23  C   UNL     1      38.074   4.594  16.587  0.00  0.00    +0.000 C 
BRANCH  23  27
ATOM     24  C   UNL     1      41.315   6.518  18.659  0.00  0.00    +0.000 A 
ATOM     25  C   UNL     1      40.248   6.019  19.343  0.00  0.00    +0.000 A 
ATOM     26  C   UNL     1      39.218   5.405  18.663  0.00  0.00    +0.000 A 
ATOM     27  C   UNL     1      39.199   5.260  17.291  0.00  0.00    +0.000 A 
ATOM     28  C   UNL     1      40.292   5.774  16.606  0.00  0.00    +0.000 A 
ATOM     29  C   UNL     1      41.322   6.387  17.282  0.00  0.00    +0.000 A 
BRANCH  24  31
ATOM     30  C   UNL     1      42.301   7.576  20.629  0.00  0.00    +0.000 C 
ATOM     31  O   UNL     1      42.381   7.148  19.301  0.00  0.00    +0.000 OA
ENDBRANCH  24  31
ENDBRANCH  23  27
ENDBRANCH  22  23
ENDBRANCH  19  22
ENDBRANCH   1  20
TORSDOF 7
ENDMDL
MODEL 8
REMARK VINA RESULT:      -7.9     25.179     26.885
REMARK  Name = 
REMARK  7 active torsions:
REMARK  status: ('A' for Active; 'I' for Inactive)
REMARK    1  A    between atoms: O_2  and  C_3
REMARK    2  A    between atoms: C_6  and  C_7
REMARK    3  A    between atoms: C_7  and  C_8
REMARK    4  A    between atoms: C_8  and  N_9
REMARK    5  A    between atoms: C_10  and  C_12
REMARK    6  A    between atoms: C_14  and  C_15
REMARK    7  A    between atoms: C_19  and  O_20
REMARK                            x       y       z     vdW  Elec       q    Type
REMARK                         _______ _______ _______ _____ _____    ______ ____
ROOT
ATOM      1  C   UNL     1      37.043   1.432  14.937  0.00  0.00    +0.000 A 
ATOM      2  C   UNL     1      36.963   0.134  15.384  0.00  0.00    +0.000 A 
ATOM      3  C   UNL     1      37.016  -0.972  14.566  0.00  0.00    +0.000 A 
ATOM      4  N   UNL     1      37.153  -0.771  13.258  0.00  0.00    +0.000 NA
ATOM      5  C   UNL     1      37.238   0.490  12.749  0.00  0.00    +0.000 A 
ATOM      6  C   UNL     1      37.377   0.627  11.396  0.00  0.00    +0.000 A 
ATOM      7  C   UNL     1      37.466   1.885  10.856  0.00  0.00    +0.000 A 
ATOM      8  C   UNL     1      37.412   2.987  11.678  0.00  0.00    +0.000 A 
ATOM      9  C   UNL     1      37.272   2.881  13.045  0.00  0.00    +0.000 A 
ATOM     10  C   UNL     1      37.185   1.599  13.566  0.00  0.00    +0.000 A 
ENDROOT
BRANCH   3  11
ATOM     11  C   UNL     1      36.920  -2.301  15.166  0.00  0.00    +0.000 A 
ATOM     12  C   UNL     1      36.108  -3.275  14.636  0.00  0.00    +0.000 A 
ATOM     13  C   UNL     1      35.999  -4.539  15.182  0.00  0.00    +0.000 A 
ATOM     14  C   UNL     1      36.730  -4.820  16.290  0.00  0.00    +0.000 A 
ATOM     15  C   UNL     1      37.563  -3.895  16.876  0.00  0.00    +0.000 A 
ATOM     16  C   UNL     1      37.647  -2.622  16.291  0.00  0.00    +0.000 A 
BRANCH  15  17
ATOM     17  O   UNL     1      38.275  -4.230  17.990  0.00  0.00    +0.000 OA
ATOM     18  C   UNL     1      38.614  -3.235  18.931  0.00  0.00    +0.000 C 
ENDBRANCH  15  17
ENDBRANCH   3  11
BRANCH   1  20
ATOM     19  N   UNL     1      38.114   3.243  16.330  0.00  0.00    +0.000 NA
ATOM     20  C   UNL     1      36.982   2.575  15.843  0.00  0.00    +0.000 C 
ATOM     21  O   UNL     1      35.844   2.970  16.196  0.00  0.00    +0.000 OA
BRANCH  19  22
ATOM     22  C   UNL     1      38.077   4.378  17.229  0.00  0.00    +0.000 C 
BRANCH  22  23
ATOM     23  C   UNL     1      38.875   5.542  16.744  0.00  0.00    +0.000 C 
BRANCH  23  27
ATOM     24  C   UNL     1      41.742   6.675  19.743  0.00  0.00    +0.000 A 
ATOM     25  C   UNL     1      40.447   6.418  20.077  0.00  0.00    +0.000 A 
ATOM     26  C   UNL     1      39.541   6.056  19.104  0.00  0.00    +0.000 A 
ATOM     27  C   UNL     1      39.873   5.934  17.770  0.00  0.00    +0.000 A 
ATOM     28  C   UNL     1      41.196   6.200  17.442  0.00  0.00    +0.000 A 
ATOM     29  C   UNL     1      42.103   6.561  18.412  0.00  0.00    +0.000 A 
BRANCH  24  31
ATOM     30  C   UNL     1      43.363   6.106  21.479  0.00  0.00    +0.000 C 
ATOM     31  O   UNL     1      42.695   7.046  20.690  0.00  0.00    +0.000 OA
ENDBRANCH  24  31
ENDBRANCH  23  27
ENDBRANCH  22  23
ENDBRANCH  19  22
ENDBRANCH   1  20
TORSDOF 7
ENDMDL
MODEL 9
REMARK VINA RESULT:      -7.7     24.480     27.971
REMARK  Name = 
REMARK  7 active torsions:
REMARK  status: ('A' for Active; 'I' for Inactive)
REMARK    1  A    between atoms: O_2  and  C_3
REMARK    2  A    between atoms: C_6  and  C_7
REMARK    3  A    between atoms: C_7  and  C_8
REMARK    4  A    between atoms: C_8  and  N_9
REMARK    5  A    between atoms: C_10  and  C_12
REMARK    6  A    between atoms: C_14  and  C_15
REMARK    7  A    between atoms: C_19  and  O_20
REMARK                            x       y       z     vdW  Elec       q    Type
REMARK                         _______ _______ _______ _____ _____    ______ ____
ROOT
ATOM      1  C   UNL     1      38.714   3.048  14.695  0.00  0.00    +0.000 A 
ATOM      2  C   UNL     1      39.330   1.820  14.753  0.00  0.00    +0.000 A 
ATOM      3  C   UNL     1      38.661   0.622  14.857  0.00  0.00    +0.000 A 
ATOM      4  N   UNL     1      37.332   0.654  14.905  0.00  0.00    +0.000 NA
ATOM      5  C   UNL     1      36.659   1.838  14.852  0.00  0.00    +0.000 A 
ATOM      6  C   UNL     1      35.293   1.801  14.907  0.00  0.00    +0.000 A 
ATOM      7  C   UNL     1      34.590   2.978  14.855  0.00  0.00    +0.000 A 
ATOM      8  C   UNL     1      35.263   4.173  14.751  0.00  0.00    +0.000 A 
ATOM      9  C   UNL     1      36.638   4.242  14.694  0.00  0.00    +0.000 A 
ATOM     10  C   UNL     1      37.326   3.039  14.748  0.00  0.00    +0.000 A 
ENDROOT
BRANCH   3  11
ATOM     11  C   UNL     1      39.434  -0.618  14.910  0.00  0.00    +0.000 A 
ATOM     12  C   UNL     1      40.518  -0.827  14.093  0.00  0.00    +0.000 A 
ATOM     13  C   UNL     1      41.266  -1.988  14.123  0.00  0.00    +0.000 A 
ATOM     14  C   UNL     1      40.905  -2.957  15.003  0.00  0.00    +0.000 A 
ATOM     15  C   UNL     1      39.831  -2.817  15.851  0.00  0.00    +0.000 A 
ATOM     16  C   UNL     1      39.096  -1.623  15.790  0.00  0.00    +0.000 A 
BRANCH  15  17
ATOM     17  O   UNL     1      39.511  -3.822  16.715  0.00  0.00    +0.000 OA
ATOM     18  C   UNL     1      38.718  -3.546  17.849  0.00  0.00    +0.000 C 
ENDBRANCH  15  17
ENDBRANCH   3  11
BRANCH   1  20
ATOM     19  N   UNL     1      39.905   5.040  15.686  0.00  0.00    +0.000 NA
ATOM     20  C   UNL     1      39.465   4.295  14.584  0.00  0.00    +0.000 C 
ATOM     21  O   UNL     1      39.725   4.709  13.427  0.00  0.00    +0.000 OA
BRANCH  19  22
ATOM     22  C   UNL     1      40.651   6.278  15.598  0.00  0.00    +0.000 C 
BRANCH  22  23
ATOM     23  C   UNL     1      40.262   7.276  16.637  0.00  0.00    +0.000 C 
BRANCH  23  27
ATOM     24  C   UNL     1      42.261   6.409  20.345  0.00  0.00    +0.000 A 
ATOM     25  C   UNL     1      40.903   6.354  20.255  0.00  0.00    +0.000 A 
ATOM     26  C   UNL     1      40.279   6.634  19.059  0.00  0.00    +0.000 A 
ATOM     27  C   UNL     1      40.963   6.979  17.912  0.00  0.00    +0.000 A 
ATOM     28  C   UNL     1      42.347   7.033  18.018  0.00  0.00    +0.000 A 
ATOM     29  C   UNL     1      42.973   6.753  19.210  0.00  0.00    +0.000 A 
BRANCH  24  31
ATOM     30  C   UNL     1      44.141   5.423  21.554  0.00  0.00    +0.000 C 
ATOM     31  O   UNL     1      42.939   6.135  21.533  0.00  0.00    +0.000 OA
ENDBRANCH  24  31
ENDBRANCH  23  27
ENDBRANCH  22  23
ENDBRANCH  19  22
ENDBRANCH   1  20
TORSDOF 7
ENDMDL
MODEL 10
REMARK VINA RESULT:      -7.6     23.022     27.179
REMARK  Name = 
REMARK  7 active torsions:
REMARK  status: ('A' for Active; 'I' for Inactive)
REMARK    1  A    between atoms: O_2  and  C_3
REMARK    2  A    between atoms: C_6  and  C_7
REMARK    3  A    between atoms: C_7  and  C_8
REMARK    4  A    between atoms: C_8  and  N_9
REMARK    5  A    between atoms: C_10  and  C_12
REMARK    6  A    between atoms: C_14  and  C_15
REMARK    7  A    between atoms: C_19  and  O_20
REMARK                            x       y       z     vdW  Elec       q    Type
REMARK                         _______ _______ _______ _____ _____    ______ ____
ROOT
ATOM      1  C   UNL     1      38.140   2.204  15.061  0.00  0.00    +0.000 A 
ATOM      2  C   UNL     1      37.207   1.290  15.493  0.00  0.00    +0.000 A 
ATOM      3  C   UNL     1      37.232  -0.049  15.177  0.00  0.00    +0.000 A 
ATOM      4  N   UNL     1      38.222  -0.487  14.405  0.00  0.00    +0.000 NA
ATOM      5  C   UNL     1      39.179   0.366  13.943  0.00  0.00    +0.000 A 
ATOM      6  C   UNL     1      40.169  -0.149  13.152  0.00  0.00    +0.000 A 
ATOM      7  C   UNL     1      41.145   0.687  12.674  0.00  0.00    +0.000 A 
ATOM      8  C   UNL     1      41.116   2.025  12.992  0.00  0.00    +0.000 A 
ATOM      9  C   UNL     1      40.132   2.572  13.786  0.00  0.00    +0.000 A 
ATOM     10  C   UNL     1      39.157   1.708  14.257  0.00  0.00    +0.000 A 
ENDROOT
BRANCH   3  11
ATOM     11  C   UNL     1      36.179  -0.919  15.700  0.00  0.00    +0.000 A 
ATOM     12  C   UNL     1      35.379  -0.533  16.747  0.00  0.00    +0.000 A 
ATOM     13  C   UNL     1      34.377  -1.334  17.260  0.00  0.00    +0.000 A 
ATOM     14  C   UNL     1      34.184  -2.553  16.696  0.00  0.00    +0.000 A 
ATOM     15  C   UNL     1      34.948  -3.007  15.645  0.00  0.00    +0.000 A 
ATOM     16  C   UNL     1      35.956  -2.163  15.153  0.00  0.00    +0.000 A 
BRANCH  15  17
ATOM     17  O   UNL     1      34.713  -4.241  15.116  0.00  0.00    +0.000 OA
ATOM     18  C   UNL     1      35.329  -5.377  15.684  0.00  0.00    +0.000 C 
ENDBRANCH  15  17
ENDBRANCH   3  11
BRANCH   1  20
ATOM     19  N   UNL     1      38.638   4.150  16.589  0.00  0.00    +0.000 NA
ATOM     20  C   UNL     1      38.073   3.617  15.422  0.00  0.00    +0.000 C 
ATOM     21  O   UNL     1      37.472   4.386  14.631  0.00  0.00    +0.000 OA
BRANCH  19  22
ATOM     22  C   UNL     1      38.583   5.547  16.966  0.00  0.00    +0.000 C 
BRANCH  22  23
ATOM     23  C   UNL     1      39.847   6.286  16.677  0.00  0.00    +0.000 C 
BRANCH  23  27
ATOM     24  C   UNL     1      42.189   6.588  20.272  0.00  0.00    +0.000 A 
ATOM     25  C   UNL     1      40.837   6.439  20.330  0.00  0.00    +0.000 A 
ATOM     26  C   UNL     1      40.101   6.344  19.169  0.00  0.00    +0.000 A 
ATOM     27  C   UNL     1      40.666   6.392  17.911  0.00  0.00    +0.000 A 
ATOM     28  C   UNL     1      42.045   6.544  17.865  0.00  0.00    +0.000 A 
ATOM     29  C   UNL     1      42.782   6.640  19.023  0.00  0.00    +0.000 A 
BRANCH  24  31
ATOM     30  C   UNL     1      44.211   6.045  21.531  0.00  0.00    +0.000 C 
ATOM     31  O   UNL     1      42.976   6.690  21.418  0.00  0.00    +0.000 OA
ENDBRANCH  24  31
ENDBRANCH  23  27
ENDBRANCH  22  23
ENDBRANCH  19  22
ENDBRANCH   1  20
TORSDOF 7
ENDMDL
