MODEL 1
REMARK VINA RESULT:      -6.4      0.000      0.000
REMARK  Name = 
REMARK  2 active torsions:
REMARK  status: ('A' for Active; 'I' for Inactive)
REMARK    1  A    between atoms: C_6  and  C_7
REMARK    2  A    between atoms: C_11  and  C_12
REMARK                            x       y       z     vdW  Elec       q    Type
REMARK                         _______ _______ _______ _____ _____    ______ ____
ROOT
ATOM      1  C   UNL     1      29.512  24.490  26.771  0.00  0.00    +0.000 C 
ATOM      2  C   UNL     1      28.536  24.774  25.652  0.00  0.00    +0.000 C 
ATOM      3  C   UNL     1      29.098  24.655  24.504  0.00  0.00    +0.000 C 
ATOM      4  C   UNL     1      28.233  24.924  23.178  0.00  0.00    +0.000 C 
ATOM      5  C   UNL     1      28.828  23.625  22.389  0.00  0.00    +0.000 C 
ATOM      6  C   UNL     1      26.960  24.074  23.784  0.00  0.00    +0.000 C 
ATOM      7  C   UNL     1      27.321  23.004  24.562  0.00  0.00    +0.000 C 
ATOM      8  O   UNL     1      27.029  22.686  25.806  0.00  0.00    +0.000 OA
ATOM      9  C   UNL     1      26.206  23.786  26.378  0.00  0.00    +0.000 C 
ATOM     10  C   UNL     1      27.117  25.139  26.012  0.00  0.00    +0.000 C 
ATOM     11  C   UNL     1      26.436  25.459  24.473  0.00  0.00    +0.000 C 
ATOM     12  C   UNL     1      24.926  24.979  24.721  0.00  0.00    +0.000 C 
ENDROOT
BRANCH   9  13
ATOM     13  C   UNL     1      26.481  23.651  27.859  0.00  0.00    +0.000 A 
ATOM     14  C   UNL     1      27.270  22.636  28.279  0.00  0.00    +0.000 A 
ATOM     15  C   UNL     1      27.449  22.286  29.611  0.00  0.00    +0.000 A 
ATOM     16  C   UNL     1      26.778  23.028  30.571  0.00  0.00    +0.000 A 
ATOM     17  C   UNL     1      25.970  24.064  30.185  0.00  0.00    +0.000 A 
ATOM     18  C   UNL     1      25.813  24.379  28.853  0.00  0.00    +0.000 A 
ATOM     19  O   UNL     1      25.001  25.409  28.473  0.00  0.00    +0.000 OA
ENDBRANCH   9  13
BRANCH   6  20
ATOM     20  C   UNL     1      26.287  23.868  22.489  0.00  0.00    +0.000 C 
ATOM     21  O   UNL     1      25.495  22.814  22.256  0.00  0.00    +0.000 OA
ENDBRANCH   6  20
TORSDOF 2
ENDMDL
MODEL 2
REMARK VINA RESULT:      -6.3      2.037      5.788
REMARK  Name = 
REMARK  2 active torsions:
REMARK  status: ('A' for Active; 'I' for Inactive)
REMARK    1  A    between atoms: C_6  and  C_7
REMARK    2  A    between atoms: C_11  and  C_12
REMARK                            x       y       z     vdW  Elec       q    Type
REMARK                         _______ _______ _______ _____ _____    ______ ____
ROOT
ATOM      1  C   UNL     1      31.314  23.063  24.505  0.00  0.00    +0.000 C 
ATOM      2  C   UNL     1      30.375  22.794  25.658  0.00  0.00    +0.000 C 
ATOM      3  C   UNL     1      31.022  22.604  26.750  0.00  0.00    +0.000 C 
ATOM      4  C   UNL     1      30.207  22.292  28.098  0.00  0.00    +0.000 C 
ATOM      5  C   UNL     1      31.111  23.297  29.013  0.00  0.00    +0.000 C 
ATOM      6  C   UNL     1      29.105  23.466  27.756  0.00  0.00    +0.000 C 
ATOM      7  C   UNL     1      29.632  24.559  27.117  0.00  0.00    +0.000 C 
ATOM      8  O   UNL     1      29.334  25.134  25.970  0.00  0.00    +0.000 OA
ATOM      9  C   UNL     1      28.262  24.330  25.322  0.00  0.00    +0.000 C 
ATOM     10  C   UNL     1      28.890  22.782  25.387  0.00  0.00    +0.000 C 
ATOM     11  C   UNL     1      28.257  22.348  26.919  0.00  0.00    +0.000 C 
ATOM     12  C   UNL     1      26.870  23.151  26.896  0.00  0.00    +0.000 C 
ENDROOT
BRANCH   9  13
ATOM     13  C   UNL     1      28.463  24.656  23.858  0.00  0.00    +0.000 A 
ATOM     14  C   UNL     1      29.318  25.651  23.529  0.00  0.00    +0.000 A 
ATOM     15  C   UNL     1      29.453  26.175  22.251  0.00  0.00    +0.000 A 
ATOM     16  C   UNL     1      28.662  25.639  21.246  0.00  0.00    +0.000 A 
ATOM     17  C   UNL     1      27.784  24.630  21.539  0.00  0.00    +0.000 A 
ATOM     18  C   UNL     1      27.675  24.139  22.821  0.00  0.00    +0.000 A 
ATOM     19  O   UNL     1      26.794  23.137  23.109  0.00  0.00    +0.000 OA
ENDBRANCH   9  13
BRANCH   6  20
ATOM     20  C   UNL     1      28.575  23.580  29.126  0.00  0.00    +0.000 C 
ATOM     21  O   UNL     1      28.100  24.732  29.614  0.00  0.00    +0.000 OA
ENDBRANCH   6  20
TORSDOF 2
ENDMDL
MODEL 3
REMARK VINA RESULT:      -6.2      1.980      3.340
REMARK  Name = 
REMARK  2 active torsions:
REMARK  status: ('A' for Active; 'I' for Inactive)
REMARK    1  A    between atoms: C_6  and  C_7
REMARK    2  A    between atoms: C_11  and  C_12
REMARK                            x       y       z     vdW  Elec       q    Type
REMARK                         _______ _______ _______ _____ _____    ______ ____
ROOT
ATOM      1  C   UNL     1      25.660  23.182  25.332  0.00  0.00    +0.000 C 
ATOM      2  C   UNL     1      26.824  23.276  24.371  0.00  0.00    +0.000 C 
ATOM      3  C   UNL     1      26.436  23.649  23.206  0.00  0.00    +0.000 C 
ATOM      4  C   UNL     1      27.521  23.803  22.032  0.00  0.00    +0.000 C 
ATOM      5  C   UNL     1      26.905  25.215  21.493  0.00  0.00    +0.000 C 
ATOM      6  C   UNL     1      28.575  24.557  23.046  0.00  0.00    +0.000 C 
ATOM      7  C   UNL     1      27.975  25.356  23.986  0.00  0.00    +0.000 C 
ATOM      8  O   UNL     1      28.032  25.358  25.302  0.00  0.00    +0.000 OA
ATOM      9  C   UNL     1      28.881  24.211  25.723  0.00  0.00    +0.000 C 
ATOM     10  C   UNL     1      28.204  22.937  24.879  0.00  0.00    +0.000 C 
ATOM     11  C   UNL     1      29.147  23.083  23.457  0.00  0.00    +0.000 C 
ATOM     12  C   UNL     1      30.533  23.594  24.081  0.00  0.00    +0.000 C 
ENDROOT
BRANCH   9  13
ATOM     13  C   UNL     1      28.367  23.932  27.119  0.00  0.00    +0.000 A 
ATOM     14  C   UNL     1      27.604  24.870  27.725  0.00  0.00    +0.000 A 
ATOM     15  C   UNL     1      27.227  24.826  29.061  0.00  0.00    +0.000 A 
ATOM     16  C   UNL     1      27.659  23.749  29.819  0.00  0.00    +0.000 A 
ATOM     17  C   UNL     1      28.434  22.779  29.242  0.00  0.00    +0.000 A 
ATOM     18  C   UNL     1      28.791  22.859  27.913  0.00  0.00    +0.000 A 
ATOM     19  O   UNL     1      29.568  21.892  27.344  0.00  0.00    +0.000 OA
ENDBRANCH   9  13
BRANCH   6  20
ATOM     20  C   UNL     1      29.410  25.146  21.984  0.00  0.00    +0.000 C 
ATOM     21  O   UNL     1      29.792  24.448  20.908  0.00  0.00    +0.000 OA
ENDBRANCH   6  20
TORSDOF 2
ENDMDL
MODEL 4
REMARK VINA RESULT:      -6.1      2.114      3.615
REMARK  Name = 
REMARK  2 active torsions:
REMARK  status: ('A' for Active; 'I' for Inactive)
REMARK    1  A    between atoms: C_6  and  C_7
REMARK    2  A    between atoms: C_11  and  C_12
REMARK                            x       y       z     vdW  Elec       q    Type
REMARK                         _______ _______ _______ _____ _____    ______ ____
ROOT
ATOM      1  C   UNL     1      26.006  23.466  25.525  0.00  0.00    +0.000 C 
ATOM      2  C   UNL     1      27.464  23.114  25.334  0.00  0.00    +0.000 C 
ATOM      3  C   UNL     1      27.816  23.240  24.106  0.00  0.00    +0.000 C 
ATOM      4  C   UNL     1      29.329  22.905  23.688  0.00  0.00    +0.000 C 
ATOM      5  C   UNL     1      29.476  24.218  22.730  0.00  0.00    +0.000 C 
ATOM      6  C   UNL     1      29.916  23.701  25.005  0.00  0.00    +0.000 C 
ATOM      7  C   UNL     1      29.181  24.801  25.366  0.00  0.00    +0.000 C 
ATOM      8  O   UNL     1      28.586  25.127  26.495  0.00  0.00    +0.000 OA
ATOM      9  C   UNL     1      28.764  23.998  27.447  0.00  0.00    +0.000 C 
ATOM     10  C   UNL     1      28.263  22.685  26.541  0.00  0.00    +0.000 C 
ATOM     11  C   UNL     1      29.779  22.304  25.840  0.00  0.00    +0.000 C 
ATOM     12  C   UNL     1      30.761  22.713  27.039  0.00  0.00    +0.000 C 
ENDROOT
BRANCH   9  13
ATOM     13  C   UNL     1      27.580  24.173  28.372  0.00  0.00    +0.000 A 
ATOM     14  C   UNL     1      26.800  25.267  28.222  0.00  0.00    +0.000 A 
ATOM     15  C   UNL     1      25.804  25.645  29.113  0.00  0.00    +0.000 A 
ATOM     16  C   UNL     1      25.595  24.845  30.226  0.00  0.00    +0.000 A 
ATOM     17  C   UNL     1      26.364  23.728  30.413  0.00  0.00    +0.000 A 
ATOM     18  C   UNL     1      27.346  23.387  29.508  0.00  0.00    +0.000 A 
ATOM     19  O   UNL     1      28.114  22.276  29.703  0.00  0.00    +0.000 OA
ENDBRANCH   9  13
BRANCH   6  20
ATOM     20  C   UNL     1      31.289  23.851  24.491  0.00  0.00    +0.000 C 
ATOM     21  O   UNL     1      32.051  24.909  24.790  0.00  0.00    +0.000 OA
ENDBRANCH   6  20
TORSDOF 2
ENDMDL
MODEL 5
REMARK VINA RESULT:      -5.9     17.282     19.210
REMARK  Name = 
REMARK  2 active torsions:
REMARK  status: ('A' for Active; 'I' for Inactive)
REMARK    1  A    between atoms: C_6  and  C_7
REMARK    2  A    between atoms: C_11  and  C_12
REMARK                            x       y       z     vdW  Elec       q    Type
REMARK                         _______ _______ _______ _____ _____    ______ ____
ROOT
ATOM      1  C   UNL     1      21.433  12.951  38.942  0.00  0.00    +0.000 C 
ATOM      2  C   UNL     1      22.501  12.221  38.159  0.00  0.00    +0.000 C 
ATOM      3  C   UNL     1      23.659  12.737  38.359  0.00  0.00    +0.000 C 
ATOM      4  C   UNL     1      24.934  12.111  37.610  0.00  0.00    +0.000 C 
ATOM      5  C   UNL     1      25.884  12.166  38.937  0.00  0.00    +0.000 C 
ATOM      6  C   UNL     1      24.428  10.578  37.937  0.00  0.00    +0.000 C 
ATOM      7  C   UNL     1      23.792  10.444  39.144  0.00  0.00    +0.000 C 
ATOM      8  O   UNL     1      22.595   9.996  39.461  0.00  0.00    +0.000 OA
ATOM      9  C   UNL     1      21.885   9.661  38.197  0.00  0.00    +0.000 C 
ATOM     10  C   UNL     1      22.086  11.055  37.296  0.00  0.00    +0.000 C 
ATOM     11  C   UNL     1      23.568  10.627  36.549  0.00  0.00    +0.000 C 
ATOM     12  C   UNL     1      23.369   9.043  36.403  0.00  0.00    +0.000 C 
ENDROOT
BRANCH   9  13
ATOM     13  C   UNL     1      20.434   9.795  38.604  0.00  0.00    +0.000 A 
ATOM     14  C   UNL     1      20.135   9.846  39.923  0.00  0.00    +0.000 A 
ATOM     15  C   UNL     1      18.847   9.777  40.435  0.00  0.00    +0.000 A 
ATOM     16  C   UNL     1      17.799   9.653  39.536  0.00  0.00    +0.000 A 
ATOM     17  C   UNL     1      18.060   9.598  38.193  0.00  0.00    +0.000 A 
ATOM     18  C   UNL     1      19.353   9.665  37.722  0.00  0.00    +0.000 A 
ATOM     19  O   UNL     1      19.609   9.604  36.382  0.00  0.00    +0.000 OA
ENDBRANCH   9  13
BRANCH   6  20
ATOM     20  C   UNL     1      25.733   9.936  37.700  0.00  0.00    +0.000 C 
ATOM     21  O   UNL     1      26.130   8.855  38.381  0.00  0.00    +0.000 OA
ENDBRANCH   6  20
TORSDOF 2
ENDMDL
MODEL 6
REMARK VINA RESULT:      -5.8      1.753      5.703
REMARK  Name = 
REMARK  2 active torsions:
REMARK  status: ('A' for Active; 'I' for Inactive)
REMARK    1  A    between atoms: C_6  and  C_7
REMARK    2  A    between atoms: C_11  and  C_12
REMARK                            x       y       z     vdW  Elec       q    Type
REMARK                         _______ _______ _______ _____ _____    ______ ____
ROOT
ATOM      1  C   UNL     1      26.672  26.553  26.177  0.00  0.00    +0.000 C 
ATOM      2  C   UNL     1      27.096  25.812  27.425  0.00  0.00    +0.000 C 
ATOM      3  C   UNL     1      26.471  26.246  28.458  0.00  0.00    +0.000 C 
ATOM      4  C   UNL     1      26.784  25.595  29.892  0.00  0.00    +0.000 C 
ATOM      5  C   UNL     1      25.212  25.512  30.325  0.00  0.00    +0.000 C 
ATOM      6  C   UNL     1      26.771  24.077  29.255  0.00  0.00    +0.000 C 
ATOM      7  C   UNL     1      25.869  23.906  28.235  0.00  0.00    +0.000 C 
ATOM      8  O   UNL     1      26.018  23.508  26.989  0.00  0.00    +0.000 OA
ATOM      9  C   UNL     1      27.472  23.295  26.749  0.00  0.00    +0.000 C 
ATOM     10  C   UNL     1      28.137  24.727  27.296  0.00  0.00    +0.000 C 
ATOM     11  C   UNL     1      28.361  24.261  28.930  0.00  0.00    +0.000 C 
ATOM     12  C   UNL     1      28.690  22.703  28.742  0.00  0.00    +0.000 C 
ENDROOT
BRANCH   9  13
ATOM     13  C   UNL     1      27.577  23.487  25.252  0.00  0.00    +0.000 A 
ATOM     14  C   UNL     1      26.437  23.585  24.532  0.00  0.00    +0.000 A 
ATOM     15  C   UNL     1      26.386  23.573  23.144  0.00  0.00    +0.000 A 
ATOM     16  C   UNL     1      27.583  23.457  22.454  0.00  0.00    +0.000 A 
ATOM     17  C   UNL     1      28.759  23.356  23.148  0.00  0.00    +0.000 A 
ATOM     18  C   UNL     1      28.769  23.366  24.526  0.00  0.00    +0.000 A 
ATOM     19  O   UNL     1      29.944  23.259  25.213  0.00  0.00    +0.000 OA
ENDBRANCH   9  13
BRANCH   6  20
ATOM     20  C   UNL     1      26.596  23.376  30.538  0.00  0.00    +0.000 C 
ATOM     21  O   UNL     1      25.884  22.247  30.644  0.00  0.00    +0.000 OA
ENDBRANCH   6  20
TORSDOF 2
ENDMDL
MODEL 7
REMARK VINA RESULT:      -5.8      2.771      4.256
REMARK  Name = 
REMARK  2 active torsions:
REMARK  status: ('A' for Active; 'I' for Inactive)
REMARK    1  A    between atoms: C_6  and  C_7
REMARK    2  A    between atoms: C_11  and  C_12
REMARK                            x       y       z     vdW  Elec       q    Type
REMARK                         _______ _______ _______ _____ _____    ______ ____
ROOT
ATOM      1  C   UNL     1      27.461  22.448  27.662  0.00  0.00    +0.000 C 
ATOM      2  C   UNL     1      28.225  22.631  26.370  0.00  0.00    +0.000 C 
ATOM      3  C   UNL     1      27.446  22.995  25.417  0.00  0.00    +0.000 C 
ATOM      4  C   UNL     1      28.060  23.236  23.954  0.00  0.00    +0.000 C 
ATOM      5  C   UNL     1      27.222  24.614  23.703  0.00  0.00    +0.000 C 
ATOM      6  C   UNL     1      29.352  24.042  24.580  0.00  0.00    +0.000 C 
ATOM      7  C   UNL     1      29.060  24.786  25.695  0.00  0.00    +0.000 C 
ATOM      8  O   UNL     1      29.558  24.772  26.915  0.00  0.00    +0.000 OA
ATOM      9  C   UNL     1      30.562  23.676  26.985  0.00  0.00    +0.000 C 
ATOM     10  C   UNL     1      29.712  22.374  26.373  0.00  0.00    +0.000 C 
ATOM     11  C   UNL     1      30.110  22.602  24.722  0.00  0.00    +0.000 C 
ATOM     12  C   UNL     1      31.594  23.191  24.863  0.00  0.00    +0.000 C 
ENDROOT
BRANCH   9  13
ATOM     13  C   UNL     1      30.565  23.344  28.461  0.00  0.00    +0.000 A 
ATOM     14  C   UNL     1      29.927  24.179  29.312  0.00  0.00    +0.000 A 
ATOM     15  C   UNL     1      30.011  24.098  30.696  0.00  0.00    +0.000 A 
ATOM     16  C   UNL     1      30.796  23.093  31.238  0.00  0.00    +0.000 A 
ATOM     17  C   UNL     1      31.458  22.227  30.410  0.00  0.00    +0.000 A 
ATOM     18  C   UNL     1      31.354  22.342  29.040  0.00  0.00    +0.000 A 
ATOM     19  O   UNL     1      32.022  21.480  28.218  0.00  0.00    +0.000 OA
ENDBRANCH   9  13
BRANCH   6  20
ATOM     20  C   UNL     1      29.746  24.698  23.322  0.00  0.00    +0.000 C 
ATOM     21  O   UNL     1      29.802  24.037  22.159  0.00  0.00    +0.000 OA
ENDBRANCH   6  20
TORSDOF 2
ENDMDL
MODEL 8
REMARK VINA RESULT:      -5.8      2.163      4.577
REMARK  Name = 
REMARK  2 active torsions:
REMARK  status: ('A' for Active; 'I' for Inactive)
REMARK    1  A    between atoms: C_6  and  C_7
REMARK    2  A    between atoms: C_11  and  C_12
REMARK                            x       y       z     vdW  Elec       q    Type
REMARK                         _______ _______ _______ _____ _____    ______ ____
ROOT
ATOM      1  C   UNL     1      27.648  24.128  22.973  0.00  0.00    +0.000 C 
ATOM      2  C   UNL     1      28.350  23.481  24.146  0.00  0.00    +0.000 C 
ATOM      3  C   UNL     1      29.524  23.079  23.821  0.00  0.00    +0.000 C 
ATOM      4  C   UNL     1      30.436  22.353  24.926  0.00  0.00    +0.000 C 
ATOM      5  C   UNL     1      31.788  23.169  24.512  0.00  0.00    +0.000 C 
ATOM      6  C   UNL     1      30.017  23.465  26.065  0.00  0.00    +0.000 C 
ATOM      7  C   UNL     1      29.834  24.731  25.571  0.00  0.00    +0.000 C 
ATOM      8  O   UNL     1      28.804  25.551  25.618  0.00  0.00    +0.000 OA
ATOM      9  C   UNL     1      27.688  24.843  26.301  0.00  0.00    +0.000 C 
ATOM     10  C   UNL     1      27.618  23.398  25.463  0.00  0.00    +0.000 C 
ATOM     11  C   UNL     1      28.732  22.524  26.429  0.00  0.00    +0.000 C 
ATOM     12  C   UNL     1      28.435  23.170  27.866  0.00  0.00    +0.000 C 
ENDROOT
BRANCH   9  13
ATOM     13  C   UNL     1      26.474  25.553  25.743  0.00  0.00    +0.000 A 
ATOM     14  C   UNL     1      26.665  26.580  24.884  0.00  0.00    +0.000 A 
ATOM     15  C   UNL     1      25.658  27.431  24.448  0.00  0.00    +0.000 A 
ATOM     16  C   UNL     1      24.374  27.210  24.922  0.00  0.00    +0.000 A 
ATOM     17  C   UNL     1      24.141  26.180  25.794  0.00  0.00    +0.000 A 
ATOM     18  C   UNL     1      25.166  25.359  26.207  0.00  0.00    +0.000 A 
ATOM     19  O   UNL     1      24.929  24.337  27.081  0.00  0.00    +0.000 OA
ENDBRANCH   9  13
BRANCH   6  20
ATOM     20  C   UNL     1      31.133  23.170  26.981  0.00  0.00    +0.000 C 
ATOM     21  O   UNL     1      31.694  24.111  27.749  0.00  0.00    +0.000 OA
ENDBRANCH   6  20
TORSDOF 2
ENDMDL
MODEL 9
REMARK VINA RESULT:      -5.7     21.289     23.121
REMARK  Name = 
REMARK  2 active torsions:
REMARK  status: ('A' for Active; 'I' for Inactive)
REMARK    1  A    between atoms: C_6  and  C_7
REMARK    2  A    between atoms: C_11  and  C_12
REMARK                            x       y       z     vdW  Elec       q    Type
REMARK                         _______ _______ _______ _____ _____    ______ ____
ROOT
ATOM      1  C   UNL     1      23.416   4.759  18.678  0.00  0.00    +0.000 C 
ATOM      2  C   UNL     1      23.567   3.309  18.276  0.00  0.00    +0.000 C 
ATOM      3  C   UNL     1      22.423   2.747  18.124  0.00  0.00    +0.000 C 
ATOM      4  C   UNL     1      22.362   1.198  17.705  0.00  0.00    +0.000 C 
ATOM      5  C   UNL     1      21.178   1.425  16.604  0.00  0.00    +0.000 C 
ATOM      6  C   UNL     1      23.551   1.409  16.586  0.00  0.00    +0.000 C 
ATOM      7  C   UNL     1      23.526   2.632  15.966  0.00  0.00    +0.000 C 
ATOM      8  O   UNL     1      24.432   3.582  15.860  0.00  0.00    +0.000 OA
ATOM      9  C   UNL     1      25.627   3.161  16.642  0.00  0.00    +0.000 C 
ATOM     10  C   UNL     1      24.959   2.749  18.118  0.00  0.00    +0.000 C 
ATOM     11  C   UNL     1      24.638   1.103  17.767  0.00  0.00    +0.000 C 
ATOM     12  C   UNL     1      25.871   0.770  16.798  0.00  0.00    +0.000 C 
ENDROOT
BRANCH   9  13
ATOM     13  C   UNL     1      26.267   4.490  16.981  0.00  0.00    +0.000 A 
ATOM     14  C   UNL     1      26.760   4.669  18.227  0.00  0.00    +0.000 A 
ATOM     15  C   UNL     1      27.198   5.889  18.726  0.00  0.00    +0.000 A 
ATOM     16  C   UNL     1      27.129   6.992  17.890  0.00  0.00    +0.000 A 
ATOM     17  C   UNL     1      26.636   6.851  16.620  0.00  0.00    +0.000 A 
ATOM     18  C   UNL     1      26.206   5.624  16.162  0.00  0.00    +0.000 A 
ATOM     19  O   UNL     1      25.709   5.491  14.897  0.00  0.00    +0.000 OA
ENDBRANCH   9  13
BRANCH   6  20
ATOM     20  C   UNL     1      23.267   0.177  15.830  0.00  0.00    +0.000 C 
ATOM     21  O   UNL     1      23.468   0.088  14.510  0.00  0.00    +0.000 OA
ENDBRANCH   6  20
TORSDOF 2
ENDMDL
MODEL 10
REMARK VINA RESULT:      -5.6      2.053      2.663
REMARK  Name = 
REMARK  2 active torsions:
REMARK  status: ('A' for Active; 'I' for Inactive)
REMARK    1  A    between atoms: C_6  and  C_7
REMARK    2  A    between atoms: C_11  and  C_12
REMARK                            x       y       z     vdW  Elec       q    Type
REMARK                         _______ _______ _______ _____ _____    ______ ____
ROOT
ATOM      1  C   UNL     1      30.752  25.699  25.635  0.00  0.00    +0.000 C 
ATOM      2  C   UNL     1      29.521  25.329  24.838  0.00  0.00    +0.000 C 
ATOM      3  C   UNL     1      29.623  25.716  23.619  0.00  0.00    +0.000 C 
ATOM      4  C   UNL     1      28.414  25.427  22.603  0.00  0.00    +0.000 C 
ATOM      5  C   UNL     1      29.396  24.949  21.390  0.00  0.00    +0.000 C 
ATOM      6  C   UNL     1      28.241  23.894  23.176  0.00  0.00    +0.000 C 
ATOM      7  C   UNL     1      29.420  23.299  23.548  0.00  0.00    +0.000 C 
ATOM      8  O   UNL     1      29.814  22.770  24.688  0.00  0.00    +0.000 OA
ATOM      9  C   UNL     1      28.725  22.965  25.683  0.00  0.00    +0.000 C 
ATOM     10  C   UNL     1      28.403  24.600  25.542  0.00  0.00    +0.000 C 
ATOM     11  C   UNL     1      27.223  24.490  24.305  0.00  0.00    +0.000 C 
ATOM     12  C   UNL     1      26.535  23.093  24.687  0.00  0.00    +0.000 C 
ENDROOT
BRANCH   9  13
ATOM     13  C   UNL     1      29.483  22.937  26.992  0.00  0.00    +0.000 A 
ATOM     14  C   UNL     1      30.767  22.513  26.986  0.00  0.00    +0.000 A 
ATOM     15  C   UNL     1      31.512  22.260  28.130  0.00  0.00    +0.000 A 
ATOM     16  C   UNL     1      30.900  22.460  29.357  0.00  0.00    +0.000 A 
ATOM     17  C   UNL     1      29.600  22.889  29.405  0.00  0.00    +0.000 A 
ATOM     18  C   UNL     1      28.892  23.126  28.248  0.00  0.00    +0.000 A 
ATOM     19  O   UNL     1      27.594  23.548  28.301  0.00  0.00    +0.000 OA
ENDBRANCH   9  13
BRANCH   6  20
ATOM     20  C   UNL     1      27.476  23.387  22.023  0.00  0.00    +0.000 C 
ATOM     21  O   UNL     1      26.348  23.972  21.602  0.00  0.00    +0.000 OA
ENDBRANCH   6  20
TORSDOF 2
ENDMDL
