MODEL 1
REMARK VINA RESULT:      -7.6      0.000      0.000
REMARK  Name = 
REMARK  7 active torsions:
REMARK  status: ('A' for Active; 'I' for Inactive)
REMARK    1  A    between atoms: O_2  and  C_3
REMARK    2  A    between atoms: C_6  and  C_7
REMARK    3  A    between atoms: C_9  and  C_10
REMARK    4  A    between atoms: N_12  and  C_13
REMARK    5  A    between atoms: C_13  and  C_15
REMARK    6  A    between atoms: C_15  and  C_16
REMARK    7  A    between atoms: C_16  and  C_17
REMARK                            x       y       z     vdW  Elec       q    Type
REMARK                         _______ _______ _______ _____ _____    ______ ____
ROOT
ATOM      1  C   UNL     1      38.109   4.217  16.771  0.00  0.00    +0.000 A 
ATOM      2  C   UNL     1      38.827   3.808  15.663  0.00  0.00    +0.000 A 
ATOM      3  C   UNL     1      38.523   2.677  14.947  0.00  0.00    +0.000 A 
ATOM      4  C   UNL     1      37.475   1.915  15.332  0.00  0.00    +0.000 A 
ATOM      5  C   UNL     1      37.176   0.792  14.621  0.00  0.00    +0.000 A 
ATOM      6  C   UNL     1      36.106   0.019  15.020  0.00  0.00    +0.000 A 
ATOM      7  C   UNL     1      35.359   0.401  16.134  0.00  0.00    +0.000 A 
ATOM      8  C   UNL     1      35.682   1.537  16.831  0.00  0.00    +0.000 A 
ATOM      9  C   UNL     1      36.751   2.328  16.449  0.00  0.00    +0.000 A 
ATOM     10  N   UNL     1      37.081   3.444  17.124  0.00  0.00    +0.000 NA
ENDROOT
BRANCH   1  14
ATOM     11  C   UNL     1      39.250   7.682  18.976  0.00  0.00    +0.000 A 
ATOM     12  C   UNL     1      39.489   6.414  19.457  0.00  0.00    +0.000 A 
ATOM     13  C   UNL     1      39.098   5.327  18.708  0.00  0.00    +0.000 A 
ATOM     14  C   UNL     1      38.472   5.436  17.483  0.00  0.00    +0.000 A 
ATOM     15  C   UNL     1      38.239   6.694  17.013  0.00  0.00    +0.000 A 
ATOM     16  C   UNL     1      38.625   7.797  17.753  0.00  0.00    +0.000 A 
BRANCH  11  18
ATOM     17  C   UNL     1      38.817   9.265  20.753  0.00  0.00    +0.000 C 
ATOM     18  O   UNL     1      39.634   8.798  19.713  0.00  0.00    +0.000 OA
ENDBRANCH  11  18
ENDBRANCH   1  14
BRANCH   3  19
ATOM     19  C   UNL     1      39.367   2.393  13.788  0.00  0.00    +0.000 C 
ATOM     20  O   UNL     1      39.184   2.986  12.677  0.00  0.00    +0.000 OA
ATOM     21  N   UNL     1      40.359   1.462  13.949  0.00  0.00    +0.000 NA
BRANCH  21  22
ATOM     22  C   UNL     1      41.324   1.074  12.763  0.00  0.00    +0.000 C 
ATOM     23  C   UNL     1      42.429   0.335  13.777  0.00  0.00    +0.000 C 
BRANCH  22  24
ATOM     24  C   UNL     1      40.544  -0.389  12.471  0.00  0.00    +0.000 C 
BRANCH  24  25
ATOM     25  C   UNL     1      40.778  -0.990  13.869  0.00  0.00    +0.000 C 
BRANCH  25  26
ATOM     26  C   UNL     1      39.621  -1.850  14.247  0.00  0.00    +0.000 A 
ATOM     27  C   UNL     1      38.762  -2.439  13.355  0.00  0.00    +0.000 A 
ATOM     28  C   UNL     1      37.701  -3.226  13.708  0.00  0.00    +0.000 A 
ATOM     29  C   UNL     1      37.464  -3.455  15.066  0.00  0.00    +0.000 A 
ATOM     30  C   UNL     1      38.332  -2.860  15.973  0.00  0.00    +0.000 A 
ATOM     31  C   UNL     1      39.392  -2.072  15.586  0.00  0.00    +0.000 A 
ENDBRANCH  25  26
ENDBRANCH  24  25
ENDBRANCH  22  24
ENDBRANCH  21  22
ENDBRANCH   3  19
TORSDOF 7
ENDMDL
MODEL 2
REMARK VINA RESULT:      -7.6      0.922      1.312
REMARK  Name = 
REMARK  7 active torsions:
REMARK  status: ('A' for Active; 'I' for Inactive)
REMARK    1  A    between atoms: O_2  and  C_3
REMARK    2  A    between atoms: C_6  and  C_7
REMARK    3  A    between atoms: C_9  and  C_10
REMARK    4  A    between atoms: N_12  and  C_13
REMARK    5  A    between atoms: C_13  and  C_15
REMARK    6  A    between atoms: C_15  and  C_16
REMARK    7  A    between atoms: C_16  and  C_17
REMARK                            x       y       z     vdW  Elec       q    Type
REMARK                         _______ _______ _______ _____ _____    ______ ____
ROOT
ATOM      1  C   UNL     1      37.788   3.651  16.650  0.00  0.00    +0.000 A 
ATOM      2  C   UNL     1      38.232   3.161  15.436  0.00  0.00    +0.000 A 
ATOM      3  C   UNL     1      37.795   1.974  14.901  0.00  0.00    +0.000 A 
ATOM      4  C   UNL     1      36.890   1.237  15.581  0.00  0.00    +0.000 A 
ATOM      5  C   UNL     1      36.460   0.059  15.048  0.00  0.00    +0.000 A 
ATOM      6  C   UNL     1      35.536  -0.688  15.748  0.00  0.00    +0.000 A 
ATOM      7  C   UNL     1      35.067  -0.225  16.977  0.00  0.00    +0.000 A 
ATOM      8  C   UNL     1      35.516   0.964  17.489  0.00  0.00    +0.000 A 
ATOM      9  C   UNL     1      36.443   1.732  16.805  0.00  0.00    +0.000 A 
ATOM     10  N   UNL     1      36.893   2.899  17.296  0.00  0.00    +0.000 NA
ENDROOT
BRANCH   1  14
ATOM     11  C   UNL     1      39.282   7.290  18.288  0.00  0.00    +0.000 A 
ATOM     12  C   UNL     1      39.345   6.107  18.991  0.00  0.00    +0.000 A 
ATOM     13  C   UNL     1      38.845   4.959  18.419  0.00  0.00    +0.000 A 
ATOM     14  C   UNL     1      38.277   4.924  17.162  0.00  0.00    +0.000 A 
ATOM     15  C   UNL     1      38.219   6.098  16.472  0.00  0.00    +0.000 A 
ATOM     16  C   UNL     1      38.716   7.261  17.032  0.00  0.00    +0.000 A 
BRANCH  11  18
ATOM     17  C   UNL     1      39.783   8.637  20.235  0.00  0.00    +0.000 C 
ATOM     18  O   UNL     1      39.780   8.466  18.843  0.00  0.00    +0.000 OA
ENDBRANCH  11  18
ENDBRANCH   1  14
BRANCH   3  19
ATOM     19  C   UNL     1      38.346   1.608  13.598  0.00  0.00    +0.000 C 
ATOM     20  O   UNL     1      37.796   1.991  12.516  0.00  0.00    +0.000 OA
ATOM     21  N   UNL     1      39.476   0.832  13.591  0.00  0.00    +0.000 NA
BRANCH  21  22
ATOM     22  C   UNL     1      40.151   0.371  12.242  0.00  0.00    +0.000 C 
ATOM     23  C   UNL     1      41.523  -0.195  13.010  0.00  0.00    +0.000 C 
BRANCH  22  24
ATOM     24  C   UNL     1      39.440  -1.153  12.287  0.00  0.00    +0.000 C 
BRANCH  24  25
ATOM     25  C   UNL     1      39.996  -1.561  13.664  0.00  0.00    +0.000 C 
BRANCH  25  26
ATOM     26  C   UNL     1      39.004  -2.418  14.373  0.00  0.00    +0.000 A 
ATOM     27  C   UNL     1      39.025  -2.686  15.717  0.00  0.00    +0.000 A 
ATOM     28  C   UNL     1      38.112  -3.475  16.362  0.00  0.00    +0.000 A 
ATOM     29  C   UNL     1      37.084  -4.053  15.614  0.00  0.00    +0.000 A 
ATOM     30  C   UNL     1      37.060  -3.783  14.251  0.00  0.00    +0.000 A 
ATOM     31  C   UNL     1      37.994  -2.985  13.631  0.00  0.00    +0.000 A 
ENDBRANCH  25  26
ENDBRANCH  24  25
ENDBRANCH  22  24
ENDBRANCH  21  22
ENDBRANCH   3  19
TORSDOF 7
ENDMDL
MODEL 3
REMARK VINA RESULT:      -7.4      3.301      7.857
REMARK  Name = 
REMARK  7 active torsions:
REMARK  status: ('A' for Active; 'I' for Inactive)
REMARK    1  A    between atoms: O_2  and  C_3
REMARK    2  A    between atoms: C_6  and  C_7
REMARK    3  A    between atoms: C_9  and  C_10
REMARK    4  A    between atoms: N_12  and  C_13
REMARK    5  A    between atoms: C_13  and  C_15
REMARK    6  A    between atoms: C_15  and  C_16
REMARK    7  A    between atoms: C_16  and  C_17
REMARK                            x       y       z     vdW  Elec       q    Type
REMARK                         _______ _______ _______ _____ _____    ______ ____
ROOT
ATOM      1  C   UNL     1      39.096  -2.270  15.341  0.00  0.00    +0.000 A 
ATOM      2  C   UNL     1      38.146  -1.268  15.389  0.00  0.00    +0.000 A 
ATOM      3  C   UNL     1      37.441  -0.956  16.525  0.00  0.00    +0.000 A 
ATOM      4  C   UNL     1      37.674  -1.654  17.659  0.00  0.00    +0.000 A 
ATOM      5  C   UNL     1      36.972  -1.345  18.784  0.00  0.00    +0.000 A 
ATOM      6  C   UNL     1      37.215  -2.062  19.937  0.00  0.00    +0.000 A 
ATOM      7  C   UNL     1      38.166  -3.081  19.924  0.00  0.00    +0.000 A 
ATOM      8  C   UNL     1      38.859  -3.371  18.777  0.00  0.00    +0.000 A 
ATOM      9  C   UNL     1      38.633  -2.665  17.609  0.00  0.00    +0.000 A 
ATOM     10  N   UNL     1      39.303  -2.940  16.477  0.00  0.00    +0.000 NA
ENDROOT
BRANCH   1  14
ATOM     11  C   UNL     1      41.370  -3.086  11.830  0.00  0.00    +0.000 A 
ATOM     12  C   UNL     1      41.979  -2.885  13.049  0.00  0.00    +0.000 A 
ATOM     13  C   UNL     1      41.200  -2.621  14.152  0.00  0.00    +0.000 A 
ATOM     14  C   UNL     1      39.823  -2.547  14.108  0.00  0.00    +0.000 A 
ATOM     15  C   UNL     1      39.227  -2.748  12.899  0.00  0.00    +0.000 A 
ATOM     16  C   UNL     1      39.995  -3.013  11.779  0.00  0.00    +0.000 A 
BRANCH  11  18
ATOM     17  C   UNL     1      43.509  -3.080  10.699  0.00  0.00    +0.000 C 
ATOM     18  O   UNL     1      42.134  -3.354  10.698  0.00  0.00    +0.000 OA
ENDBRANCH  11  18
ENDBRANCH   1  14
BRANCH   3  19
ATOM     19  C   UNL     1      36.486   0.145  16.417  0.00  0.00    +0.000 C 
ATOM     20  O   UNL     1      35.251  -0.071  16.198  0.00  0.00    +0.000 OA
ATOM     21  N   UNL     1      36.977   1.416  16.557  0.00  0.00    +0.000 NA
BRANCH  21  22
ATOM     22  C   UNL     1      36.038   2.679  16.451  0.00  0.00    +0.000 C 
ATOM     23  C   UNL     1      37.246   3.736  16.918  0.00  0.00    +0.000 C 
BRANCH  22  24
ATOM     24  C   UNL     1      36.385   2.928  14.823  0.00  0.00    +0.000 C 
BRANCH  24  25
ATOM     25  C   UNL     1      37.907   3.085  14.994  0.00  0.00    +0.000 C 
BRANCH  25  26
ATOM     26  C   UNL     1      38.616   2.246  13.986  0.00  0.00    +0.000 A 
ATOM     27  C   UNL     1      38.093   1.872  12.776  0.00  0.00    +0.000 A 
ATOM     28  C   UNL     1      38.748   1.100  11.856  0.00  0.00    +0.000 A 
ATOM     29  C   UNL     1      40.038   0.658  12.155  0.00  0.00    +0.000 A 
ATOM     30  C   UNL     1      40.573   1.036  13.381  0.00  0.00    +0.000 A 
ATOM     31  C   UNL     1      39.887   1.813  14.287  0.00  0.00    +0.000 A 
ENDBRANCH  25  26
ENDBRANCH  24  25
ENDBRANCH  22  24
ENDBRANCH  21  22
ENDBRANCH   3  19
TORSDOF 7
ENDMDL
MODEL 4
REMARK VINA RESULT:      -7.4      3.259      8.172
REMARK  Name = 
REMARK  7 active torsions:
REMARK  status: ('A' for Active; 'I' for Inactive)
REMARK    1  A    between atoms: O_2  and  C_3
REMARK    2  A    between atoms: C_6  and  C_7
REMARK    3  A    between atoms: C_9  and  C_10
REMARK    4  A    between atoms: N_12  and  C_13
REMARK    5  A    between atoms: C_13  and  C_15
REMARK    6  A    between atoms: C_15  and  C_16
REMARK    7  A    between atoms: C_16  and  C_17
REMARK                            x       y       z     vdW  Elec       q    Type
REMARK                         _______ _______ _______ _____ _____    ______ ____
ROOT
ATOM      1  C   UNL     1      38.845  -2.282  14.916  0.00  0.00    +0.000 A 
ATOM      2  C   UNL     1      38.551  -0.937  14.799  0.00  0.00    +0.000 A 
ATOM      3  C   UNL     1      39.498   0.015  14.511  0.00  0.00    +0.000 A 
ATOM      4  C   UNL     1      40.783  -0.364  14.333  0.00  0.00    +0.000 A 
ATOM      5  C   UNL     1      41.720   0.583  14.050  0.00  0.00    +0.000 A 
ATOM      6  C   UNL     1      43.029   0.188  13.870  0.00  0.00    +0.000 A 
ATOM      7  C   UNL     1      43.361  -1.161  13.981  0.00  0.00    +0.000 A 
ATOM      8  C   UNL     1      42.398  -2.093  14.267  0.00  0.00    +0.000 A 
ATOM      9  C   UNL     1      41.078  -1.721  14.452  0.00  0.00    +0.000 A 
ATOM     10  N   UNL     1      40.122  -2.624  14.733  0.00  0.00    +0.000 NA
ENDROOT
BRANCH   1  14
ATOM     11  C   UNL     1      35.697  -5.066  15.624  0.00  0.00    +0.000 A 
ATOM     12  C   UNL     1      35.671  -4.214  14.543  0.00  0.00    +0.000 A 
ATOM     13  C   UNL     1      36.711  -3.330  14.360  0.00  0.00    +0.000 A 
ATOM     14  C   UNL     1      37.795  -3.249  15.210  0.00  0.00    +0.000 A 
ATOM     15  C   UNL     1      37.814  -4.096  16.278  0.00  0.00    +0.000 A 
ATOM     16  C   UNL     1      36.777  -4.990  16.477  0.00  0.00    +0.000 A 
BRANCH  11  18
ATOM     17  C   UNL     1      34.929  -7.240  16.360  0.00  0.00    +0.000 C 
ATOM     18  O   UNL     1      34.658  -5.969  15.833  0.00  0.00    +0.000 OA
ENDBRANCH  11  18
ENDBRANCH   1  14
BRANCH   3  19
ATOM     19  C   UNL     1      39.022   1.393  14.400  0.00  0.00    +0.000 C 
ATOM     20  O   UNL     1      39.488   2.184  13.518  0.00  0.00    +0.000 OA
ATOM     21  N   UNL     1      38.057   1.795  15.286  0.00  0.00    +0.000 NA
BRANCH  21  22
ATOM     22  C   UNL     1      37.476   3.262  15.262  0.00  0.00    +0.000 C 
ATOM     23  C   UNL     1      36.260   2.866  14.185  0.00  0.00    +0.000 C 
BRANCH  22  24
ATOM     24  C   UNL     1      36.463   2.992  16.578  0.00  0.00    +0.000 C 
BRANCH  24  25
ATOM     25  C   UNL     1      35.631   1.872  15.927  0.00  0.00    +0.000 C 
BRANCH  25  26
ATOM     26  C   UNL     1      35.599   0.682  16.825  0.00  0.00    +0.000 A 
ATOM     27  C   UNL     1      35.161  -0.563  16.456  0.00  0.00    +0.000 A 
ATOM     28  C   UNL     1      35.133  -1.650  17.286  0.00  0.00    +0.000 A 
ATOM     29  C   UNL     1      35.578  -1.496  18.601  0.00  0.00    +0.000 A 
ATOM     30  C   UNL     1      36.024  -0.235  18.979  0.00  0.00    +0.000 A 
ATOM     31  C   UNL     1      36.039   0.840  18.120  0.00  0.00    +0.000 A 
ENDBRANCH  25  26
ENDBRANCH  24  25
ENDBRANCH  22  24
ENDBRANCH  21  22
ENDBRANCH   3  19
TORSDOF 7
ENDMDL
MODEL 5
REMARK VINA RESULT:      -7.2      2.744      8.890
REMARK  Name = 
REMARK  7 active torsions:
REMARK  status: ('A' for Active; 'I' for Inactive)
REMARK    1  A    between atoms: O_2  and  C_3
REMARK    2  A    between atoms: C_6  and  C_7
REMARK    3  A    between atoms: C_9  and  C_10
REMARK    4  A    between atoms: N_12  and  C_13
REMARK    5  A    between atoms: C_13  and  C_15
REMARK    6  A    between atoms: C_15  and  C_16
REMARK    7  A    between atoms: C_16  and  C_17
REMARK                            x       y       z     vdW  Elec       q    Type
REMARK                         _______ _______ _______ _____ _____    ______ ____
ROOT
ATOM      1  C   UNL     1      37.785  -1.771  14.878  0.00  0.00    +0.000 A 
ATOM      2  C   UNL     1      37.790  -0.404  14.678  0.00  0.00    +0.000 A 
ATOM      3  C   UNL     1      38.936   0.317  14.448  0.00  0.00    +0.000 A 
ATOM      4  C   UNL     1      40.124  -0.325  14.414  0.00  0.00    +0.000 A 
ATOM      5  C   UNL     1      41.259   0.392  14.188  0.00  0.00    +0.000 A 
ATOM      6  C   UNL     1      42.468  -0.270  14.155  0.00  0.00    +0.000 A 
ATOM      7  C   UNL     1      42.501  -1.650  14.354  0.00  0.00    +0.000 A 
ATOM      8  C   UNL     1      41.343  -2.347  14.580  0.00  0.00    +0.000 A 
ATOM      9  C   UNL     1      40.118  -1.705  14.616  0.00  0.00    +0.000 A 
ATOM     10  N   UNL     1      38.975  -2.376  14.838  0.00  0.00    +0.000 NA
ENDROOT
BRANCH   1  14
ATOM     11  C   UNL     1      34.186  -3.985  15.432  0.00  0.00    +0.000 A 
ATOM     12  C   UNL     1      35.139  -4.381  14.520  0.00  0.00    +0.000 A 
ATOM     13  C   UNL     1      36.283  -3.630  14.376  0.00  0.00    +0.000 A 
ATOM     14  C   UNL     1      36.535  -2.485  15.105  0.00  0.00    +0.000 A 
ATOM     15  C   UNL     1      35.588  -2.100  16.006  0.00  0.00    +0.000 A 
ATOM     16  C   UNL     1      34.432  -2.843  16.163  0.00  0.00    +0.000 A 
BRANCH  11  18
ATOM     17  C   UNL     1      31.835  -4.089  15.994  0.00  0.00    +0.000 C 
ATOM     18  O   UNL     1      33.019  -4.726  15.596  0.00  0.00    +0.000 OA
ENDBRANCH  11  18
ENDBRANCH   1  14
BRANCH   3  19
ATOM     19  C   UNL     1      38.768   1.753  14.235  0.00  0.00    +0.000 C 
ATOM     20  O   UNL     1      38.832   2.260  13.069  0.00  0.00    +0.000 OA
ATOM     21  N   UNL     1      38.543   2.529  15.342  0.00  0.00    +0.000 NA
BRANCH  21  22
ATOM     22  C   UNL     1      38.356   4.091  15.229  0.00  0.00    +0.000 C 
ATOM     23  C   UNL     1      36.687   3.990  15.265  0.00  0.00    +0.000 C 
BRANCH  22  24
ATOM     24  C   UNL     1      38.424   4.323  16.895  0.00  0.00    +0.000 C 
BRANCH  24  25
ATOM     25  C   UNL     1      39.456   5.465  16.867  0.00  0.00    +0.000 C 
BRANCH  25  26
ATOM     26  C   UNL     1      39.342   6.276  18.112  0.00  0.00    +0.000 A 
ATOM     27  C   UNL     1      40.209   6.205  19.172  0.00  0.00    +0.000 A 
ATOM     28  C   UNL     1      40.098   6.951  20.313  0.00  0.00    +0.000 A 
ATOM     29  C   UNL     1      39.035   7.851  20.420  0.00  0.00    +0.000 A 
ATOM     30  C   UNL     1      38.154   7.925  19.348  0.00  0.00    +0.000 A 
ATOM     31  C   UNL     1      38.292   7.160  18.212  0.00  0.00    +0.000 A 
ENDBRANCH  25  26
ENDBRANCH  24  25
ENDBRANCH  22  24
ENDBRANCH  21  22
ENDBRANCH   3  19
TORSDOF 7
ENDMDL
MODEL 6
REMARK VINA RESULT:      -7.1      2.639      8.453
REMARK  Name = 
REMARK  7 active torsions:
REMARK  status: ('A' for Active; 'I' for Inactive)
REMARK    1  A    between atoms: O_2  and  C_3
REMARK    2  A    between atoms: C_6  and  C_7
REMARK    3  A    between atoms: C_9  and  C_10
REMARK    4  A    between atoms: N_12  and  C_13
REMARK    5  A    between atoms: C_13  and  C_15
REMARK    6  A    between atoms: C_15  and  C_16
REMARK    7  A    between atoms: C_16  and  C_17
REMARK                            x       y       z     vdW  Elec       q    Type
REMARK                         _______ _______ _______ _____ _____    ______ ____
ROOT
ATOM      1  C   UNL     1      39.520  -1.856  14.490  0.00  0.00    +0.000 A 
ATOM      2  C   UNL     1      38.988  -0.586  14.374  0.00  0.00    +0.000 A 
ATOM      3  C   UNL     1      37.754  -0.241  14.870  0.00  0.00    +0.000 A 
ATOM      4  C   UNL     1      37.012  -1.177  15.502  0.00  0.00    +0.000 A 
ATOM      5  C   UNL     1      35.788  -0.833  15.990  0.00  0.00    +0.000 A 
ATOM      6  C   UNL     1      35.036  -1.793  16.634  0.00  0.00    +0.000 A 
ATOM      7  C   UNL     1      35.542  -3.085  16.768  0.00  0.00    +0.000 A 
ATOM      8  C   UNL     1      36.777  -3.404  16.266  0.00  0.00    +0.000 A 
ATOM      9  C   UNL     1      37.550  -2.458  15.617  0.00  0.00    +0.000 A 
ATOM     10  N   UNL     1      38.762  -2.756  15.120  0.00  0.00    +0.000 NA
ENDROOT
BRANCH   1  14
ATOM     11  C   UNL     1      43.454  -2.642  13.050  0.00  0.00    +0.000 A 
ATOM     12  C   UNL     1      43.227  -1.735  14.062  0.00  0.00    +0.000 A 
ATOM     13  C   UNL     1      41.938  -1.514  14.489  0.00  0.00    +0.000 A 
ATOM     14  C   UNL     1      40.841  -2.160  13.955  0.00  0.00    +0.000 A 
ATOM     15  C   UNL     1      41.073  -3.057  12.955  0.00  0.00    +0.000 A 
ATOM     16  C   UNL     1      42.363  -3.290  12.513  0.00  0.00    +0.000 A 
BRANCH  11  18
ATOM     17  C   UNL     1      45.010  -3.996  11.787  0.00  0.00    +0.000 C 
ATOM     18  O   UNL     1      44.748  -2.884  12.599  0.00  0.00    +0.000 OA
ENDBRANCH  11  18
ENDBRANCH   1  14
BRANCH   3  19
ATOM     19  C   UNL     1      37.345   1.149  14.684  0.00  0.00    +0.000 C 
ATOM     20  O   UNL     1      36.430   1.464  13.856  0.00  0.00    +0.000 OA
ATOM     21  N   UNL     1      37.988   2.098  15.435  0.00  0.00    +0.000 NA
BRANCH  21  22
ATOM     22  C   UNL     1      37.632   3.630  15.311  0.00  0.00    +0.000 C 
ATOM     23  C   UNL     1      36.995   3.706  16.855  0.00  0.00    +0.000 C 
BRANCH  22  24
ATOM     24  C   UNL     1      39.142   4.131  15.858  0.00  0.00    +0.000 C 
BRANCH  24  25
ATOM     25  C   UNL     1      38.635   5.318  16.698  0.00  0.00    +0.000 C 
BRANCH  25  26
ATOM     26  C   UNL     1      39.712   5.778  17.620  0.00  0.00    +0.000 A 
ATOM     27  C   UNL     1      40.972   6.146  17.226  0.00  0.00    +0.000 A 
ATOM     28  C   UNL     1      41.957   6.566  18.077  0.00  0.00    +0.000 A 
ATOM     29  C   UNL     1      41.674   6.629  19.444  0.00  0.00    +0.000 A 
ATOM     30  C   UNL     1      40.397   6.257  19.847  0.00  0.00    +0.000 A 
ATOM     31  C   UNL     1      39.427   5.838  18.965  0.00  0.00    +0.000 A 
ENDBRANCH  25  26
ENDBRANCH  24  25
ENDBRANCH  22  24
ENDBRANCH  21  22
ENDBRANCH   3  19
TORSDOF 7
ENDMDL
MODEL 7
REMARK VINA RESULT:      -7.0      2.515      4.099
REMARK  Name = 
REMARK  7 active torsions:
REMARK  status: ('A' for Active; 'I' for Inactive)
REMARK    1  A    between atoms: O_2  and  C_3
REMARK    2  A    between atoms: C_6  and  C_7
REMARK    3  A    between atoms: C_9  and  C_10
REMARK    4  A    between atoms: N_12  and  C_13
REMARK    5  A    between atoms: C_13  and  C_15
REMARK    6  A    between atoms: C_15  and  C_16
REMARK    7  A    between atoms: C_16  and  C_17
REMARK                            x       y       z     vdW  Elec       q    Type
REMARK                         _______ _______ _______ _____ _____    ______ ____
ROOT
ATOM      1  C   UNL     1      38.898   5.592  16.730  0.00  0.00    +0.000 A 
ATOM      2  C   UNL     1      38.191   4.409  16.840  0.00  0.00    +0.000 A 
ATOM      3  C   UNL     1      37.257   4.005  15.917  0.00  0.00    +0.000 A 
ATOM      4  C   UNL     1      37.004   4.790  14.847  0.00  0.00    +0.000 A 
ATOM      5  C   UNL     1      36.076   4.388  13.935  0.00  0.00    +0.000 A 
ATOM      6  C   UNL     1      35.823   5.195  12.845  0.00  0.00    +0.000 A 
ATOM      7  C   UNL     1      36.517   6.396  12.704  0.00  0.00    +0.000 A 
ATOM      8  C   UNL     1      37.446   6.776  13.637  0.00  0.00    +0.000 A 
ATOM      9  C   UNL     1      37.718   5.983  14.738  0.00  0.00    +0.000 A 
ATOM     10  N   UNL     1      38.625   6.344  15.662  0.00  0.00    +0.000 NA
ENDROOT
BRANCH   1  14
ATOM     11  C   UNL     1      41.668   6.653  19.791  0.00  0.00    +0.000 A 
ATOM     12  C   UNL     1      40.338   6.429  20.072  0.00  0.00    +0.000 A 
ATOM     13  C   UNL     1      39.483   6.091  19.048  0.00  0.00    +0.000 A 
ATOM     14  C   UNL     1      39.887   5.962  17.734  0.00  0.00    +0.000 A 
ATOM     15  C   UNL     1      41.204   6.185  17.463  0.00  0.00    +0.000 A 
ATOM     16  C   UNL     1      42.077   6.526  18.481  0.00  0.00    +0.000 A 
BRANCH  11  18
ATOM     17  C   UNL     1      43.890   6.579  20.742  0.00  0.00    +0.000 C 
ATOM     18  O   UNL     1      42.554   6.996  20.807  0.00  0.00    +0.000 OA
ENDBRANCH  11  18
ENDBRANCH   1  14
BRANCH   3  19
ATOM     19  C   UNL     1      36.612   2.718  16.167  0.00  0.00    +0.000 C 
ATOM     20  O   UNL     1      35.453   2.650  16.688  0.00  0.00    +0.000 OA
ATOM     21  N   UNL     1      37.309   1.590  15.818  0.00  0.00    +0.000 NA
BRANCH  21  22
ATOM     22  C   UNL     1      36.712   0.148  16.050  0.00  0.00    +0.000 C 
ATOM     23  C   UNL     1      36.459  -0.114  14.418  0.00  0.00    +0.000 C 
BRANCH  22  24
ATOM     24  C   UNL     1      38.219  -0.598  15.984  0.00  0.00    +0.000 C 
BRANCH  24  25
ATOM     25  C   UNL     1      38.704   0.107  14.704  0.00  0.00    +0.000 C 
BRANCH  25  26
ATOM     26  C   UNL     1      40.132  -0.237  14.451  0.00  0.00    +0.000 A 
ATOM     27  C   UNL     1      41.077   0.644  13.992  0.00  0.00    +0.000 A 
ATOM     28  C   UNL     1      42.386   0.321  13.760  0.00  0.00    +0.000 A 
ATOM     29  C   UNL     1      42.802  -0.990  14.003  0.00  0.00    +0.000 A 
ATOM     30  C   UNL     1      41.847  -1.885  14.469  0.00  0.00    +0.000 A 
ATOM     31  C   UNL     1      40.536  -1.530  14.692  0.00  0.00    +0.000 A 
ENDBRANCH  25  26
ENDBRANCH  24  25
ENDBRANCH  22  24
ENDBRANCH  21  22
ENDBRANCH   3  19
TORSDOF 7
ENDMDL
MODEL 8
REMARK VINA RESULT:      -6.8      2.546      3.680
REMARK  Name = 
REMARK  7 active torsions:
REMARK  status: ('A' for Active; 'I' for Inactive)
REMARK    1  A    between atoms: O_2  and  C_3
REMARK    2  A    between atoms: C_6  and  C_7
REMARK    3  A    between atoms: C_9  and  C_10
REMARK    4  A    between atoms: N_12  and  C_13
REMARK    5  A    between atoms: C_13  and  C_15
REMARK    6  A    between atoms: C_15  and  C_16
REMARK    7  A    between atoms: C_16  and  C_17
REMARK                            x       y       z     vdW  Elec       q    Type
REMARK                         _______ _______ _______ _____ _____    ______ ____
ROOT
ATOM      1  C   UNL     1      38.872   5.692  16.852  0.00  0.00    +0.000 A 
ATOM      2  C   UNL     1      38.349   4.414  16.803  0.00  0.00    +0.000 A 
ATOM      3  C   UNL     1      37.355   4.044  15.930  0.00  0.00    +0.000 A 
ATOM      4  C   UNL     1      36.852   4.961  15.074  0.00  0.00    +0.000 A 
ATOM      5  C   UNL     1      35.865   4.591  14.212  0.00  0.00    +0.000 A 
ATOM      6  C   UNL     1      35.357   5.532  13.342  0.00  0.00    +0.000 A 
ATOM      7  C   UNL     1      35.861   6.832  13.364  0.00  0.00    +0.000 A 
ATOM      8  C   UNL     1      36.855   7.177  14.243  0.00  0.00    +0.000 A 
ATOM      9  C   UNL     1      37.381   6.250  15.125  0.00  0.00    +0.000 A 
ATOM     10  N   UNL     1      38.355   6.574  15.993  0.00  0.00    +0.000 NA
ENDROOT
BRANCH   1  14
ATOM     11  C   UNL     1      41.872   6.632  19.729  0.00  0.00    +0.000 A 
ATOM     12  C   UNL     1      40.574   6.370  20.106  0.00  0.00    +0.000 A 
ATOM     13  C   UNL     1      39.641   6.074  19.138  0.00  0.00    +0.000 A 
ATOM     14  C   UNL     1      39.936   6.024  17.791  0.00  0.00    +0.000 A 
ATOM     15  C   UNL     1      41.223   6.284  17.425  0.00  0.00    +0.000 A 
ATOM     16  C   UNL     1      42.173   6.583  18.385  0.00  0.00    +0.000 A 
BRANCH  11  18
ATOM     17  C   UNL     1      44.167   7.144  20.301  0.00  0.00    +0.000 C 
ATOM     18  O   UNL     1      42.836   6.934  20.688  0.00  0.00    +0.000 OA
ENDBRANCH  11  18
ENDBRANCH   1  14
BRANCH   3  19
ATOM     19  C   UNL     1      36.925   2.648  15.989  0.00  0.00    +0.000 C 
ATOM     20  O   UNL     1      36.100   2.248  16.871  0.00  0.00    +0.000 OA
ATOM     21  N   UNL     1      37.451   1.791  15.058  0.00  0.00    +0.000 NA
BRANCH  21  22
ATOM     22  C   UNL     1      37.063   0.262  15.033  0.00  0.00    +0.000 C 
ATOM     23  C   UNL     1      36.885   0.235  13.371  0.00  0.00    +0.000 C 
BRANCH  22  24
ATOM     24  C   UNL     1      38.663  -0.247  14.917  0.00  0.00    +0.000 C 
BRANCH  24  25
ATOM     25  C   UNL     1      38.371  -1.563  14.174  0.00  0.00    +0.000 C 
BRANCH  25  26
ATOM     26  C   UNL     1      38.189  -2.667  15.158  0.00  0.00    +0.000 A 
ATOM     27  C   UNL     1      37.199  -3.613  15.097  0.00  0.00    +0.000 A 
ATOM     28  C   UNL     1      37.037  -4.623  16.005  0.00  0.00    +0.000 A 
ATOM     29  C   UNL     1      37.934  -4.710  17.072  0.00  0.00    +0.000 A 
ATOM     30  C   UNL     1      38.939  -3.753  17.138  0.00  0.00    +0.000 A 
ATOM     31  C   UNL     1      39.076  -2.748  16.208  0.00  0.00    +0.000 A 
ENDBRANCH  25  26
ENDBRANCH  24  25
ENDBRANCH  22  24
ENDBRANCH  21  22
ENDBRANCH   3  19
TORSDOF 7
ENDMDL
MODEL 9
REMARK VINA RESULT:      -6.8     25.919     29.317
REMARK  Name = 
REMARK  7 active torsions:
REMARK  status: ('A' for Active; 'I' for Inactive)
REMARK    1  A    between atoms: O_2  and  C_3
REMARK    2  A    between atoms: C_6  and  C_7
REMARK    3  A    between atoms: C_9  and  C_10
REMARK    4  A    between atoms: N_12  and  C_13
REMARK    5  A    between atoms: C_13  and  C_15
REMARK    6  A    between atoms: C_15  and  C_16
REMARK    7  A    between atoms: C_16  and  C_17
REMARK                            x       y       z     vdW  Elec       q    Type
REMARK                         _______ _______ _______ _____ _____    ______ ____
ROOT
ATOM      1  C   UNL     1      14.658   0.627  27.538  0.00  0.00    +0.000 A 
ATOM      2  C   UNL     1      14.224   0.017  28.700  0.00  0.00    +0.000 A 
ATOM      3  C   UNL     1      13.008   0.287  29.280  0.00  0.00    +0.000 A 
ATOM      4  C   UNL     1      12.188   1.192  28.702  0.00  0.00    +0.000 A 
ATOM      5  C   UNL     1      10.984   1.460  29.281  0.00  0.00    +0.000 A 
ATOM      6  C   UNL     1      10.152   2.384  28.685  0.00  0.00    +0.000 A 
ATOM      7  C   UNL     1      10.559   3.020  27.513  0.00  0.00    +0.000 A 
ATOM      8  C   UNL     1      11.776   2.731  26.952  0.00  0.00    +0.000 A 
ATOM      9  C   UNL     1      12.628   1.807  27.531  0.00  0.00    +0.000 A 
ATOM     10  N   UNL     1      13.824   1.514  26.992  0.00  0.00    +0.000 NA
ENDROOT
BRANCH   1  14
ATOM     11  C   UNL     1      18.363  -0.467  25.738  0.00  0.00    +0.000 A 
ATOM     12  C   UNL     1      17.180  -1.069  25.369  0.00  0.00    +0.000 A 
ATOM     13  C   UNL     1      16.010  -0.682  25.983  0.00  0.00    +0.000 A 
ATOM     14  C   UNL     1      15.953   0.290  26.961  0.00  0.00    +0.000 A 
ATOM     15  C   UNL     1      17.127   0.881  27.321  0.00  0.00    +0.000 A 
ATOM     16  C   UNL     1      18.312   0.505  26.714  0.00  0.00    +0.000 A 
BRANCH  11  18
ATOM     17  C   UNL     1      19.779  -0.555  23.778  0.00  0.00    +0.000 C 
ATOM     18  O   UNL     1      19.560  -0.839  25.133  0.00  0.00    +0.000 OA
ENDBRANCH  11  18
ENDBRANCH   1  14
BRANCH   3  19
ATOM     19  C   UNL     1      12.688  -0.459  30.495  0.00  0.00    +0.000 C 
ATOM     20  O   UNL     1      11.960  -1.502  30.457  0.00  0.00    +0.000 OA
ATOM     21  N   UNL     1      13.202   0.014  31.674  0.00  0.00    +0.000 NA
BRANCH  21  22
ATOM     22  C   UNL     1      12.914  -0.708  33.047  0.00  0.00    +0.000 C 
ATOM     23  C   UNL     1      14.474  -1.294  33.176  0.00  0.00    +0.000 C 
BRANCH  22  24
ATOM     24  C   UNL     1      13.300   0.652  33.960  0.00  0.00    +0.000 C 
BRANCH  24  25
ATOM     25  C   UNL     1      12.287   1.600  33.292  0.00  0.00    +0.000 C 
BRANCH  25  26
ATOM     26  C   UNL     1      12.570   3.005  33.700  0.00  0.00    +0.000 A 
ATOM     27  C   UNL     1      11.619   3.908  34.101  0.00  0.00    +0.000 A 
ATOM     28  C   UNL     1      11.885   5.197  34.472  0.00  0.00    +0.000 A 
ATOM     29  C   UNL     1      13.210   5.639  34.445  0.00  0.00    +0.000 A 
ATOM     30  C   UNL     1      14.177   4.727  34.039  0.00  0.00    +0.000 A 
ATOM     31  C   UNL     1      13.877   3.435  33.671  0.00  0.00    +0.000 A 
ENDBRANCH  25  26
ENDBRANCH  24  25
ENDBRANCH  22  24
ENDBRANCH  21  22
ENDBRANCH   3  19
TORSDOF 7
ENDMDL
MODEL 10
REMARK VINA RESULT:      -6.8      2.705      7.599
REMARK  Name = 
REMARK  7 active torsions:
REMARK  status: ('A' for Active; 'I' for Inactive)
REMARK    1  A    between atoms: O_2  and  C_3
REMARK    2  A    between atoms: C_6  and  C_7
REMARK    3  A    between atoms: C_9  and  C_10
REMARK    4  A    between atoms: N_12  and  C_13
REMARK    5  A    between atoms: C_13  and  C_15
REMARK    6  A    between atoms: C_15  and  C_16
REMARK    7  A    between atoms: C_16  and  C_17
REMARK                            x       y       z     vdW  Elec       q    Type
REMARK                         _______ _______ _______ _____ _____    ______ ____
ROOT
ATOM      1  C   UNL     1      38.371  -1.435  14.498  0.00  0.00    +0.000 A 
ATOM      2  C   UNL     1      38.103  -0.079  14.488  0.00  0.00    +0.000 A 
ATOM      3  C   UNL     1      37.049   0.483  15.165  0.00  0.00    +0.000 A 
ATOM      4  C   UNL     1      36.223  -0.313  15.879  0.00  0.00    +0.000 A 
ATOM      5  C   UNL     1      35.177   0.246  16.548  0.00  0.00    +0.000 A 
ATOM      6  C   UNL     1      34.339  -0.573  17.274  0.00  0.00    +0.000 A 
ATOM      7  C   UNL     1      34.578  -1.946  17.307  0.00  0.00    +0.000 A 
ATOM      8  C   UNL     1      35.639  -2.483  16.624  0.00  0.00    +0.000 A 
ATOM      9  C   UNL     1      36.494  -1.681  15.889  0.00  0.00    +0.000 A 
ATOM     10  N   UNL     1      37.538  -2.193  15.214  0.00  0.00    +0.000 NA
ENDROOT
BRANCH   1  14
ATOM     11  C   UNL     1      41.612  -3.015  12.226  0.00  0.00    +0.000 A 
ATOM     12  C   UNL     1      40.351  -2.890  11.687  0.00  0.00    +0.000 A 
ATOM     13  C   UNL     1      39.337  -2.376  12.463  0.00  0.00    +0.000 A 
ATOM     14  C   UNL     1      39.513  -1.972  13.771  0.00  0.00    +0.000 A 
ATOM     15  C   UNL     1      40.764  -2.099  14.298  0.00  0.00    +0.000 A 
ATOM     16  C   UNL     1      41.794  -2.613  13.532  0.00  0.00    +0.000 A 
BRANCH  11  18
ATOM     17  C   UNL     1      42.377  -4.242  10.287  0.00  0.00    +0.000 C 
ATOM     18  O   UNL     1      42.655  -3.532  11.463  0.00  0.00    +0.000 OA
ENDBRANCH  11  18
ENDBRANCH   1  14
BRANCH   3  19
ATOM     19  C   UNL     1      36.915   1.935  15.070  0.00  0.00    +0.000 C 
ATOM     20  O   UNL     1      36.033   2.470  14.325  0.00  0.00    +0.000 OA
ATOM     21  N   UNL     1      37.780   2.694  15.814  0.00  0.00    +0.000 NA
BRANCH  21  22
ATOM     22  C   UNL     1      37.731   4.271  15.781  0.00  0.00    +0.000 C 
ATOM     23  C   UNL     1      38.213   4.414  17.375  0.00  0.00    +0.000 C 
BRANCH  22  24
ATOM     24  C   UNL     1      39.318   4.412  15.240  0.00  0.00    +0.000 C 
BRANCH  24  25
ATOM     25  C   UNL     1      38.984   4.446  13.737  0.00  0.00    +0.000 C 
BRANCH  25  26
ATOM     26  C   UNL     1      39.541   3.236  13.070  0.00  0.00    +0.000 A 
ATOM     27  C   UNL     1      40.643   2.544  13.502  0.00  0.00    +0.000 A 
ATOM     28  C   UNL     1      41.150   1.434  12.884  0.00  0.00    +0.000 A 
ATOM     29  C   UNL     1      40.513   0.962  11.734  0.00  0.00    +0.000 A 
ATOM     30  C   UNL     1      39.396   1.660  11.293  0.00  0.00    +0.000 A 
ATOM     31  C   UNL     1      38.909   2.775  11.938  0.00  0.00    +0.000 A 
ENDBRANCH  25  26
ENDBRANCH  24  25
ENDBRANCH  22  24
ENDBRANCH  21  22
ENDBRANCH   3  19
TORSDOF 7
ENDMDL
