MODEL 1
REMARK VINA RESULT:      -7.1      0.000      0.000
REMARK  Name = 
REMARK  3 active torsions:
REMARK  status: ('A' for Active; 'I' for Inactive)
REMARK    1  A    between atoms: S_2  and  C_3
REMARK    2  A    between atoms: C_7  and  N_8
REMARK    3  A    between atoms: C_12  and  C_13
REMARK                            x       y       z     vdW  Elec       q    Type
REMARK                         _______ _______ _______ _____ _____    ______ ____
ROOT
ATOM      1  N   UNL     1      14.455  12.873  34.202  0.00  0.00    +0.000 N 
ATOM      2  C   UNL     1      13.697  13.950  33.909  0.00  0.00    +0.000 A 
ATOM      3  C   UNL     1      12.964  14.790  34.894  0.00  0.00    +0.000 C 
ATOM      4  C   UNL     1      13.741  14.111  32.519  0.00  0.00    +0.000 A 
ATOM      5  C   UNL     1      14.535  13.116  31.995  0.00  0.00    +0.000 A 
ATOM      6  C   UNL     1      14.958  12.369  33.071  0.00  0.00    +0.000 A 
ATOM      7  C   UNL     1      15.842  11.180  32.982  0.00  0.00    +0.000 C 
ENDROOT
BRANCH   1  12
ATOM      8  C   UNL     1      13.782  11.300  37.527  0.00  0.00    +0.000 A 
ATOM      9  C   UNL     1      15.010  11.396  38.142  0.00  0.00    +0.000 A 
ATOM     10  C   UNL     1      16.046  11.983  37.446  0.00  0.00    +0.000 A 
ATOM     11  C   UNL     1      15.885  12.469  36.163  0.00  0.00    +0.000 A 
ATOM     12  C   UNL     1      14.663  12.378  35.536  0.00  0.00    +0.000 A 
ATOM     13  C   UNL     1      13.635  11.789  36.246  0.00  0.00    +0.000 A 
BRANCH   8  15
ATOM     14  C   UNL     1      10.869  10.968  37.623  0.00  0.00    +0.000 C 
ATOM     15  S   UNL     1      12.439  10.540  38.428  0.00  0.00    +0.000 S 
ENDBRANCH   8  15
ENDBRANCH   1  12
BRANCH   5  16
ATOM     16  C   UNL     1      14.867  12.889  30.575  0.00  0.00    +0.000 C 
ATOM     17  N   UNL     1      14.330  11.794  29.858  0.00  0.00    +0.000 NA
ATOM     18  O   UNL     1      15.637  13.659  29.953  0.00  0.00    +0.000 OA
ENDBRANCH   5  16
TORSDOF 3
ENDMDL
MODEL 2
REMARK VINA RESULT:      -6.0      3.246      4.590
REMARK  Name = 
REMARK  3 active torsions:
REMARK  status: ('A' for Active; 'I' for Inactive)
REMARK    1  A    between atoms: S_2  and  C_3
REMARK    2  A    between atoms: C_7  and  N_8
REMARK    3  A    between atoms: C_12  and  C_13
REMARK                            x       y       z     vdW  Elec       q    Type
REMARK                         _______ _______ _______ _____ _____    ______ ____
ROOT
ATOM      1  N   UNL     1      16.441  11.295  35.731  0.00  0.00    +0.000 N 
ATOM      2  C   UNL     1      15.241  11.909  35.807  0.00  0.00    +0.000 A 
ATOM      3  C   UNL     1      14.641  12.491  37.038  0.00  0.00    +0.000 C 
ATOM      4  C   UNL     1      14.691  11.886  34.521  0.00  0.00    +0.000 A 
ATOM      5  C   UNL     1      15.581  11.250  33.683  0.00  0.00    +0.000 A 
ATOM      6  C   UNL     1      16.652  10.900  34.473  0.00  0.00    +0.000 A 
ATOM      7  C   UNL     1      17.862  10.187  33.991  0.00  0.00    +0.000 C 
ENDROOT
BRANCH   1  12
ATOM      8  C   UNL     1      19.135  11.947  38.241  0.00  0.00    +0.000 A 
ATOM      9  C   UNL     1      19.068  10.822  39.030  0.00  0.00    +0.000 A 
ATOM     10  C   UNL     1      18.130   9.859  38.720  0.00  0.00    +0.000 A 
ATOM     11  C   UNL     1      17.266   9.996  37.651  0.00  0.00    +0.000 A 
ATOM     12  C   UNL     1      17.322  11.116  36.853  0.00  0.00    +0.000 A 
ATOM     13  C   UNL     1      18.267  12.071  37.176  0.00  0.00    +0.000 A 
BRANCH   8  15
ATOM     14  C   UNL     1      22.010  12.503  38.397  0.00  0.00    +0.000 C 
ATOM     15  S   UNL     1      20.350  13.194  38.642  0.00  0.00    +0.000 S 
ENDBRANCH   8  15
ENDBRANCH   1  12
BRANCH   5  16
ATOM     16  C   UNL     1      15.424  10.994  32.238  0.00  0.00    +0.000 C 
ATOM     17  N   UNL     1      14.539  10.000  31.758  0.00  0.00    +0.000 NA
ATOM     18  O   UNL     1      16.070  11.648  31.385  0.00  0.00    +0.000 OA
ENDBRANCH   5  16
TORSDOF 3
ENDMDL
MODEL 3
REMARK VINA RESULT:      -5.9     17.670     19.847
REMARK  Name = 
REMARK  3 active torsions:
REMARK  status: ('A' for Active; 'I' for Inactive)
REMARK    1  A    between atoms: S_2  and  C_3
REMARK    2  A    between atoms: C_7  and  N_8
REMARK    3  A    between atoms: C_12  and  C_13
REMARK                            x       y       z     vdW  Elec       q    Type
REMARK                         _______ _______ _______ _____ _____    ______ ____
ROOT
ATOM      1  N   UNL     1      26.246  23.933  26.745  0.00  0.00    +0.000 N 
ATOM      2  C   UNL     1      25.346  24.718  27.376  0.00  0.00    +0.000 A 
ATOM      3  C   UNL     1      24.450  25.708  26.721  0.00  0.00    +0.000 C 
ATOM      4  C   UNL     1      25.429  24.415  28.740  0.00  0.00    +0.000 A 
ATOM      5  C   UNL     1      26.388  23.441  28.907  0.00  0.00    +0.000 A 
ATOM      6  C   UNL     1      26.870  23.170  27.647  0.00  0.00    +0.000 A 
ATOM      7  C   UNL     1      27.929  22.175  27.341  0.00  0.00    +0.000 C 
ENDROOT
BRANCH   1  12
ATOM      8  C   UNL     1      27.699  24.787  23.408  0.00  0.00    +0.000 A 
ATOM      9  C   UNL     1      26.938  24.015  22.559  0.00  0.00    +0.000 A 
ATOM     10  C   UNL     1      25.951  23.222  23.105  0.00  0.00    +0.000 A 
ATOM     11  C   UNL     1      25.711  23.181  24.465  0.00  0.00    +0.000 A 
ATOM     12  C   UNL     1      26.465  23.947  25.324  0.00  0.00    +0.000 A 
ATOM     13  C   UNL     1      27.449  24.737  24.763  0.00  0.00    +0.000 A 
BRANCH   8  15
ATOM     14  C   UNL     1      29.299  25.274  20.999  0.00  0.00    +0.000 C 
ATOM     15  S   UNL     1      28.977  25.815  22.701  0.00  0.00    +0.000 S 
ENDBRANCH   8  15
ENDBRANCH   1  12
BRANCH   5  16
ATOM     16  C   UNL     1      26.816  22.814  30.173  0.00  0.00    +0.000 C 
ATOM     17  N   UNL     1      26.037  21.813  30.801  0.00  0.00    +0.000 NA
ATOM     18  O   UNL     1      27.886  23.145  30.736  0.00  0.00    +0.000 OA
ENDBRANCH   5  16
TORSDOF 3
ENDMDL
MODEL 4
REMARK VINA RESULT:      -5.9     18.047     20.282
REMARK  Name = 
REMARK  3 active torsions:
REMARK  status: ('A' for Active; 'I' for Inactive)
REMARK    1  A    between atoms: S_2  and  C_3
REMARK    2  A    between atoms: C_7  and  N_8
REMARK    3  A    between atoms: C_12  and  C_13
REMARK                            x       y       z     vdW  Elec       q    Type
REMARK                         _______ _______ _______ _____ _____    ______ ____
ROOT
ATOM      1  N   UNL     1      27.418  23.377  26.761  0.00  0.00    +0.000 N 
ATOM      2  C   UNL     1      28.435  22.638  27.252  0.00  0.00    +0.000 A 
ATOM      3  C   UNL     1      29.624  22.178  26.485  0.00  0.00    +0.000 C 
ATOM      4  C   UNL     1      28.148  22.400  28.601  0.00  0.00    +0.000 A 
ATOM      5  C   UNL     1      26.949  23.007  28.900  0.00  0.00    +0.000 A 
ATOM      6  C   UNL     1      26.529  23.602  27.732  0.00  0.00    +0.000 A 
ATOM      7  C   UNL     1      25.273  24.378  27.581  0.00  0.00    +0.000 C 
ENDROOT
BRANCH   1  12
ATOM      8  C   UNL     1      28.001  25.424  23.687  0.00  0.00    +0.000 A 
ATOM      9  C   UNL     1      27.235  24.763  22.754  0.00  0.00    +0.000 A 
ATOM     10  C   UNL     1      26.533  23.646  23.156  0.00  0.00    +0.000 A 
ATOM     11  C   UNL     1      26.581  23.179  24.456  0.00  0.00    +0.000 A 
ATOM     12  C   UNL     1      27.343  23.831  25.398  0.00  0.00    +0.000 A 
ATOM     13  C   UNL     1      28.040  24.948  24.980  0.00  0.00    +0.000 A 
BRANCH   8  15
ATOM     14  C   UNL     1      29.277  26.733  21.393  0.00  0.00    +0.000 C 
ATOM     15  S   UNL     1      28.909  26.872  23.165  0.00  0.00    +0.000 S 
ENDBRANCH   8  15
ENDBRANCH   1  12
BRANCH   5  16
ATOM     16  C   UNL     1      26.252  23.020  30.201  0.00  0.00    +0.000 C 
ATOM     17  N   UNL     1      26.030  24.226  30.906  0.00  0.00    +0.000 NA
ATOM     18  O   UNL     1      25.830  21.963  30.727  0.00  0.00    +0.000 OA
ENDBRANCH   5  16
TORSDOF 3
ENDMDL
MODEL 5
REMARK VINA RESULT:      -5.8     21.050     22.718
REMARK  Name = 
REMARK  3 active torsions:
REMARK  status: ('A' for Active; 'I' for Inactive)
REMARK    1  A    between atoms: S_2  and  C_3
REMARK    2  A    between atoms: C_7  and  N_8
REMARK    3  A    between atoms: C_12  and  C_13
REMARK                            x       y       z     vdW  Elec       q    Type
REMARK                         _______ _______ _______ _____ _____    ______ ____
ROOT
ATOM      1  N   UNL     1      19.516  -7.728  26.450  0.00  0.00    +0.000 N 
ATOM      2  C   UNL     1      19.282  -6.406  26.309  0.00  0.00    +0.000 A 
ATOM      3  C   UNL     1      18.097  -5.674  26.832  0.00  0.00    +0.000 C 
ATOM      4  C   UNL     1      20.359  -5.878  25.587  0.00  0.00    +0.000 A 
ATOM      5  C   UNL     1      21.232  -6.904  25.303  0.00  0.00    +0.000 A 
ATOM      6  C   UNL     1      20.673  -8.035  25.856  0.00  0.00    +0.000 A 
ATOM      7  C   UNL     1      21.271  -9.392  25.796  0.00  0.00    +0.000 C 
ENDROOT
BRANCH   1  12
ATOM      8  C   UNL     1      17.928  -9.692  29.207  0.00  0.00    +0.000 A 
ATOM      9  C   UNL     1      16.938 -10.375  28.538  0.00  0.00    +0.000 A 
ATOM     10  C   UNL     1      16.811 -10.177  27.179  0.00  0.00    +0.000 A 
ATOM     11  C   UNL     1      17.640  -9.319  26.482  0.00  0.00    +0.000 A 
ATOM     12  C   UNL     1      18.633  -8.629  27.139  0.00  0.00    +0.000 A 
ATOM     13  C   UNL     1      18.749  -8.839  28.500  0.00  0.00    +0.000 A 
BRANCH   8  15
ATOM     14  C   UNL     1      16.468 -10.359  31.662  0.00  0.00    +0.000 C 
ATOM     15  S   UNL     1      18.094  -9.949  30.967  0.00  0.00    +0.000 S 
ENDBRANCH   8  15
ENDBRANCH   1  12
BRANCH   5  16
ATOM     16  C   UNL     1      22.504  -6.819  24.561  0.00  0.00    +0.000 C 
ATOM     17  N   UNL     1      22.607  -7.259  23.221  0.00  0.00    +0.000 NA
ATOM     18  O   UNL     1      23.540  -6.351  25.092  0.00  0.00    +0.000 OA
ENDBRANCH   5  16
TORSDOF 3
ENDMDL
MODEL 6
REMARK VINA RESULT:      -5.8      3.315      4.487
REMARK  Name = 
REMARK  3 active torsions:
REMARK  status: ('A' for Active; 'I' for Inactive)
REMARK    1  A    between atoms: S_2  and  C_3
REMARK    2  A    between atoms: C_7  and  N_8
REMARK    3  A    between atoms: C_12  and  C_13
REMARK                            x       y       z     vdW  Elec       q    Type
REMARK                         _______ _______ _______ _____ _____    ______ ____
ROOT
ATOM      1  N   UNL     1      16.580  11.193  36.044  0.00  0.00    +0.000 N 
ATOM      2  C   UNL     1      15.369  11.758  36.235  0.00  0.00    +0.000 A 
ATOM      3  C   UNL     1      14.835  12.246  37.535  0.00  0.00    +0.000 C 
ATOM      4  C   UNL     1      14.736  11.792  34.987  0.00  0.00    +0.000 A 
ATOM      5  C   UNL     1      15.587  11.239  34.057  0.00  0.00    +0.000 A 
ATOM      6  C   UNL     1      16.719  10.880  34.753  0.00  0.00    +0.000 A 
ATOM      7  C   UNL     1      17.916  10.240  34.151  0.00  0.00    +0.000 C 
ENDROOT
BRANCH   1  12
ATOM      8  C   UNL     1      18.520   9.510  38.762  0.00  0.00    +0.000 A 
ATOM      9  C   UNL     1      19.390  10.505  39.149  0.00  0.00    +0.000 A 
ATOM     10  C   UNL     1      19.320  11.722  38.505  0.00  0.00    +0.000 A 
ATOM     11  C   UNL     1      18.413  11.965  37.492  0.00  0.00    +0.000 A 
ATOM     12  C   UNL     1      17.539  10.979  37.094  0.00  0.00    +0.000 A 
ATOM     13  C   UNL     1      17.620   9.766  37.749  0.00  0.00    +0.000 A 
BRANCH   8  15
ATOM     14  C   UNL     1      20.133   7.870  40.582  0.00  0.00    +0.000 C 
ATOM     15  S   UNL     1      18.609   7.933  39.597  0.00  0.00    +0.000 S 
ENDBRANCH   8  15
ENDBRANCH   1  12
BRANCH   5  16
ATOM     16  C   UNL     1      15.343  11.063  32.612  0.00  0.00    +0.000 C 
ATOM     17  N   UNL     1      16.121  11.741  31.645  0.00  0.00    +0.000 NA
ATOM     18  O   UNL     1      14.437  10.305  32.191  0.00  0.00    +0.000 OA
ENDBRANCH   5  16
TORSDOF 3
ENDMDL
MODEL 7
REMARK VINA RESULT:      -5.8     19.073     20.912
REMARK  Name = 
REMARK  3 active torsions:
REMARK  status: ('A' for Active; 'I' for Inactive)
REMARK    1  A    between atoms: S_2  and  C_3
REMARK    2  A    between atoms: C_7  and  N_8
REMARK    3  A    between atoms: C_12  and  C_13
REMARK                            x       y       z     vdW  Elec       q    Type
REMARK                         _______ _______ _______ _____ _____    ______ ____
ROOT
ATOM      1  N   UNL     1      29.390  23.016  28.222  0.00  0.00    +0.000 N 
ATOM      2  C   UNL     1      30.019  22.692  29.371  0.00  0.00    +0.000 A 
ATOM      3  C   UNL     1      31.483  22.484  29.530  0.00  0.00    +0.000 C 
ATOM      4  C   UNL     1      29.033  22.594  30.360  0.00  0.00    +0.000 A 
ATOM      5  C   UNL     1      27.813  22.865  29.780  0.00  0.00    +0.000 A 
ATOM      6  C   UNL     1      28.078  23.121  28.453  0.00  0.00    +0.000 A 
ATOM      7  C   UNL     1      27.054  23.463  27.435  0.00  0.00    +0.000 C 
ENDROOT
BRANCH   1  12
ATOM      8  C   UNL     1      31.392  24.621  25.502  0.00  0.00    +0.000 A 
ATOM      9  C   UNL     1      31.397  23.641  24.535  0.00  0.00    +0.000 A 
ATOM     10  C   UNL     1      30.735  22.460  24.797  0.00  0.00    +0.000 A 
ATOM     11  C   UNL     1      30.077  22.238  25.991  0.00  0.00    +0.000 A 
ATOM     12  C   UNL     1      30.064  23.208  26.966  0.00  0.00    +0.000 A 
ATOM     13  C   UNL     1      30.731  24.386  26.689  0.00  0.00    +0.000 A 
BRANCH   8  15
ATOM     14  C   UNL     1      34.018  25.805  24.952  0.00  0.00    +0.000 C 
ATOM     15  S   UNL     1      32.248  26.151  25.163  0.00  0.00    +0.000 S 
ENDBRANCH   8  15
ENDBRANCH   1  12
BRANCH   5  16
ATOM     16  C   UNL     1      26.492  22.878  30.437  0.00  0.00    +0.000 C 
ATOM     17  N   UNL     1      25.836  24.091  30.750  0.00  0.00    +0.000 NA
ATOM     18  O   UNL     1      25.903  21.813  30.740  0.00  0.00    +0.000 OA
ENDBRANCH   5  16
TORSDOF 3
ENDMDL
MODEL 8
REMARK VINA RESULT:      -5.7     18.792     20.508
REMARK  Name = 
REMARK  3 active torsions:
REMARK  status: ('A' for Active; 'I' for Inactive)
REMARK    1  A    between atoms: S_2  and  C_3
REMARK    2  A    between atoms: C_7  and  N_8
REMARK    3  A    between atoms: C_12  and  C_13
REMARK                            x       y       z     vdW  Elec       q    Type
REMARK                         _______ _______ _______ _____ _____    ______ ____
ROOT
ATOM      1  N   UNL     1      27.687  24.039  24.165  0.00  0.00    +0.000 N 
ATOM      2  C   UNL     1      26.691  23.785  23.291  0.00  0.00    +0.000 A 
ATOM      3  C   UNL     1      25.406  23.108  23.612  0.00  0.00    +0.000 C 
ATOM      4  C   UNL     1      27.106  24.278  22.048  0.00  0.00    +0.000 A 
ATOM      5  C   UNL     1      28.360  24.828  22.200  0.00  0.00    +0.000 A 
ATOM      6  C   UNL     1      28.684  24.659  23.527  0.00  0.00    +0.000 A 
ATOM      7  C   UNL     1      29.956  25.102  24.152  0.00  0.00    +0.000 C 
ENDROOT
BRANCH   1  12
ATOM      8  C   UNL     1      26.992  24.227  27.834  0.00  0.00    +0.000 A 
ATOM      9  C   UNL     1      27.523  23.040  28.287  0.00  0.00    +0.000 A 
ATOM     10  C   UNL     1      28.107  22.193  27.369  0.00  0.00    +0.000 A 
ATOM     11  C   UNL     1      28.169  22.500  26.023  0.00  0.00    +0.000 A 
ATOM     12  C   UNL     1      27.641  23.683  25.558  0.00  0.00    +0.000 A 
ATOM     13  C   UNL     1      27.061  24.522  26.489  0.00  0.00    +0.000 A 
BRANCH   8  15
ATOM     14  C   UNL     1      26.095  24.466  30.617  0.00  0.00    +0.000 C 
ATOM     15  S   UNL     1      26.236  25.325  29.024  0.00  0.00    +0.000 S 
ENDBRANCH   8  15
ENDBRANCH   1  12
BRANCH   5  16
ATOM     16  C   UNL     1      29.191  25.465  21.160  0.00  0.00    +0.000 C 
ATOM     17  N   UNL     1      29.317  26.872  21.077  0.00  0.00    +0.000 NA
ATOM     18  O   UNL     1      29.815  24.782  20.313  0.00  0.00    +0.000 OA
ENDBRANCH   5  16
TORSDOF 3
ENDMDL
MODEL 9
REMARK VINA RESULT:      -5.6     21.450     23.382
REMARK  Name = 
REMARK  3 active torsions:
REMARK  status: ('A' for Active; 'I' for Inactive)
REMARK    1  A    between atoms: S_2  and  C_3
REMARK    2  A    between atoms: C_7  and  N_8
REMARK    3  A    between atoms: C_12  and  C_13
REMARK                            x       y       z     vdW  Elec       q    Type
REMARK                         _______ _______ _______ _____ _____    ______ ____
ROOT
ATOM      1  N   UNL     1      17.475  -8.777  27.296  0.00  0.00    +0.000 N 
ATOM      2  C   UNL     1      16.440  -9.288  26.597  0.00  0.00    +0.000 A 
ATOM      3  C   UNL     1      15.922  -8.763  25.305  0.00  0.00    +0.000 C 
ATOM      4  C   UNL     1      15.964 -10.387  27.321  0.00  0.00    +0.000 A 
ATOM      5  C   UNL     1      16.733 -10.520  28.457  0.00  0.00    +0.000 A 
ATOM      6  C   UNL     1      17.658  -9.502  28.403  0.00  0.00    +0.000 A 
ATOM      7  C   UNL     1      18.703  -9.252  29.428  0.00  0.00    +0.000 C 
ENDROOT
BRANCH   1  12
ATOM      8  C   UNL     1      20.200  -6.713  25.780  0.00  0.00    +0.000 A 
ATOM      9  C   UNL     1      19.764  -5.433  26.037  0.00  0.00    +0.000 A 
ATOM     10  C   UNL     1      18.573  -5.270  26.712  0.00  0.00    +0.000 A 
ATOM     11  C   UNL     1      17.813  -6.346  27.129  0.00  0.00    +0.000 A 
ATOM     12  C   UNL     1      18.237  -7.631  26.878  0.00  0.00    +0.000 A 
ATOM     13  C   UNL     1      19.433  -7.778  26.202  0.00  0.00    +0.000 A 
BRANCH   8  15
ATOM     14  C   UNL     1      22.307  -8.638  25.106  0.00  0.00    +0.000 C 
ATOM     15  S   UNL     1      21.744  -6.924  24.907  0.00  0.00    +0.000 S 
ENDBRANCH   8  15
ENDBRANCH   1  12
BRANCH   5  16
ATOM     16  C   UNL     1      16.597 -11.538  29.516  0.00  0.00    +0.000 C 
ATOM     17  N   UNL     1      17.343 -12.739  29.484  0.00  0.00    +0.000 NA
ATOM     18  O   UNL     1      15.815 -11.374  30.483  0.00  0.00    +0.000 OA
ENDBRANCH   5  16
TORSDOF 3
ENDMDL
MODEL 10
REMARK VINA RESULT:      -5.6     21.378     23.307
REMARK  Name = 
REMARK  3 active torsions:
REMARK  status: ('A' for Active; 'I' for Inactive)
REMARK    1  A    between atoms: S_2  and  C_3
REMARK    2  A    between atoms: C_7  and  N_8
REMARK    3  A    between atoms: C_12  and  C_13
REMARK                            x       y       z     vdW  Elec       q    Type
REMARK                         _______ _______ _______ _____ _____    ______ ____
ROOT
ATOM      1  N   UNL     1      17.428  -8.686  27.144  0.00  0.00    +0.000 N 
ATOM      2  C   UNL     1      17.657  -9.441  28.240  0.00  0.00    +0.000 A 
ATOM      3  C   UNL     1      18.751  -9.229  29.226  0.00  0.00    +0.000 C 
ATOM      4  C   UNL     1      16.678 -10.441  28.256  0.00  0.00    +0.000 A 
ATOM      5  C   UNL     1      15.866 -10.267  27.157  0.00  0.00    +0.000 A 
ATOM      6  C   UNL     1      16.365  -9.168  26.494  0.00  0.00    +0.000 A 
ATOM      7  C   UNL     1      15.801  -8.607  25.240  0.00  0.00    +0.000 C 
ENDROOT
BRANCH   1  12
ATOM      8  C   UNL     1      20.216  -6.650  25.710  0.00  0.00    +0.000 A 
ATOM      9  C   UNL     1      19.824  -5.368  26.024  0.00  0.00    +0.000 A 
ATOM     10  C   UNL     1      18.640  -5.195  26.709  0.00  0.00    +0.000 A 
ATOM     11  C   UNL     1      17.846  -6.263  27.081  0.00  0.00    +0.000 A 
ATOM     12  C   UNL     1      18.226  -7.549  26.773  0.00  0.00    +0.000 A 
ATOM     13  C   UNL     1      19.415  -7.706  26.088  0.00  0.00    +0.000 A 
BRANCH   8  15
ATOM     14  C   UNL     1      21.741  -8.504  24.025  0.00  0.00    +0.000 C 
ATOM     15  S   UNL     1      21.751  -6.874  24.823  0.00  0.00    +0.000 S 
ENDBRANCH   8  15
ENDBRANCH   1  12
BRANCH   5  16
ATOM     16  C   UNL     1      14.702 -11.085  26.764  0.00  0.00    +0.000 C 
ATOM     17  N   UNL     1      13.432 -10.890  27.354  0.00  0.00    +0.000 NA
ATOM     18  O   UNL     1      14.799 -11.981  25.892  0.00  0.00    +0.000 OA
ENDBRANCH   5  16
TORSDOF 3
ENDMDL
