MODEL 1
REMARK VINA RESULT:      -6.3      0.000      0.000
REMARK  Name = 
REMARK  3 active torsions:
REMARK  status: ('A' for Active; 'I' for Inactive)
REMARK    1  A    between atoms: C_6  and  S_7
REMARK    2  A    between atoms: S_7  and  C_8
REMARK    3  A    between atoms: C_9  and  N_10
REMARK                            x       y       z     vdW  Elec       q    Type
REMARK                         _______ _______ _______ _____ _____    ______ ____
ROOT
ATOM      1  C   UNL     1      14.890  12.326  34.420  0.00  0.00    +0.000 C 
ATOM      2  C   UNL     1      15.937  11.439  35.020  0.00  0.00    +0.000 A 
ATOM      3  C   UNL     1      16.079  11.420  36.394  0.00  0.00    +0.000 A 
ATOM      4  C   UNL     1      17.045  10.598  36.967  0.00  0.00    +0.000 A 
ATOM      5  N   UNL     1      17.417  10.342  38.229  0.00  0.00    +0.000 NA
ATOM      6  C   UNL     1      18.422   9.432  38.261  0.00  0.00    +0.000 A 
ATOM      7  N   UNL     1      18.675   9.119  36.998  0.00  0.00    +0.000 NA
ATOM      8  C   UNL     1      17.848   9.816  36.172  0.00  0.00    +0.000 A 
ATOM      9  C   UNL     1      17.677   9.861  34.790  0.00  0.00    +0.000 A 
ATOM     10  C   UNL     1      16.732  10.663  34.199  0.00  0.00    +0.000 A 
ATOM     11  C   UNL     1      16.520  10.736  32.723  0.00  0.00    +0.000 C 
ENDROOT
BRANCH   6  12
ATOM     12  S   UNL     1      19.128   8.840  39.796  0.00  0.00    +0.000 S 
BRANCH  12  13
ATOM     13  C   UNL     1      18.116   7.614  40.561  0.00  0.00    +0.000 A 
ATOM     14  C   UNL     1      16.942   7.924  41.244  0.00  0.00    +0.000 A 
ATOM     15  N   UNL     1      16.405   6.794  41.750  0.00  0.00    +0.000 NA
ATOM     16  C   UNL     1      17.227   5.773  41.393  0.00  0.00    +0.000 A 
ATOM     17  N   UNL     1      18.241   6.283  40.684  0.00  0.00    +0.000 N 
ATOM     18  C   UNL     1      19.332   5.507  40.128  0.00  0.00    +0.000 C 
BRANCH  14  19
ATOM     19  N   UNL     1      16.356   9.199  41.400  0.00  0.00    +0.000 N 
ATOM     20  O   UNL     1      16.784  10.036  42.242  0.00  0.00    +0.000 OA
ATOM     21  O   UNL     1      15.282   9.578  40.639  0.00  0.00    +0.000 OA
ENDBRANCH  14  19
ENDBRANCH  12  13
ENDBRANCH   6  12
TORSDOF 3
ENDMDL
MODEL 2
REMARK VINA RESULT:      -6.3      1.988      3.014
REMARK  Name = 
REMARK  3 active torsions:
REMARK  status: ('A' for Active; 'I' for Inactive)
REMARK    1  A    between atoms: C_6  and  S_7
REMARK    2  A    between atoms: S_7  and  C_8
REMARK    3  A    between atoms: C_9  and  N_10
REMARK                            x       y       z     vdW  Elec       q    Type
REMARK                         _______ _______ _______ _____ _____    ______ ____
ROOT
ATOM      1  C   UNL     1      16.398  10.678  32.437  0.00  0.00    +0.000 C 
ATOM      2  C   UNL     1      16.514  10.717  33.929  0.00  0.00    +0.000 A 
ATOM      3  C   UNL     1      17.421   9.875  34.543  0.00  0.00    +0.000 A 
ATOM      4  C   UNL     1      17.543   9.902  35.929  0.00  0.00    +0.000 A 
ATOM      5  N   UNL     1      18.316   9.245  36.807  0.00  0.00    +0.000 NA
ATOM      6  C   UNL     1      18.059   9.652  38.074  0.00  0.00    +0.000 A 
ATOM      7  N   UNL     1      17.114  10.577  37.980  0.00  0.00    +0.000 NA
ATOM      8  C   UNL     1      16.771  10.759  36.676  0.00  0.00    +0.000 A 
ATOM      9  C   UNL     1      15.868  11.595  36.023  0.00  0.00    +0.000 A 
ATOM     10  C   UNL     1      15.726  11.588  34.657  0.00  0.00    +0.000 A 
ATOM     11  C   UNL     1      14.771  12.469  33.923  0.00  0.00    +0.000 C 
ENDROOT
BRANCH   6  12
ATOM     12  S   UNL     1      18.946   8.999  39.487  0.00  0.00    +0.000 S 
BRANCH  12  13
ATOM     13  C   UNL     1      17.933   7.943  40.473  0.00  0.00    +0.000 A 
ATOM     14  C   UNL     1      18.273   6.621  40.755  0.00  0.00    +0.000 A 
ATOM     15  N   UNL     1      17.297   6.054  41.495  0.00  0.00    +0.000 NA
ATOM     16  C   UNL     1      16.344   7.005  41.684  0.00  0.00    +0.000 A 
ATOM     17  N   UNL     1      16.744   8.124  41.067  0.00  0.00    +0.000 N 
ATOM     18  C   UNL     1      15.992   9.363  41.037  0.00  0.00    +0.000 C 
BRANCH  14  19
ATOM     19  N   UNL     1      19.446   5.939  40.364  0.00  0.00    +0.000 N 
ATOM     20  O   UNL     1      19.409   4.855  39.719  0.00  0.00    +0.000 OA
ATOM     21  O   UNL     1      20.684   6.430  40.682  0.00  0.00    +0.000 OA
ENDBRANCH  14  19
ENDBRANCH  12  13
ENDBRANCH   6  12
TORSDOF 3
ENDMDL
MODEL 3
REMARK VINA RESULT:      -6.1      2.240      3.287
REMARK  Name = 
REMARK  3 active torsions:
REMARK  status: ('A' for Active; 'I' for Inactive)
REMARK    1  A    between atoms: C_6  and  S_7
REMARK    2  A    between atoms: S_7  and  C_8
REMARK    3  A    between atoms: C_9  and  N_10
REMARK                            x       y       z     vdW  Elec       q    Type
REMARK                         _______ _______ _______ _____ _____    ______ ____
ROOT
ATOM      1  C   UNL     1      14.356  12.914  32.753  0.00  0.00    +0.000 C 
ATOM      2  C   UNL     1      15.232  12.044  33.600  0.00  0.00    +0.000 A 
ATOM      3  C   UNL     1      15.171  12.183  34.973  0.00  0.00    +0.000 A 
ATOM      4  C   UNL     1      15.977  11.378  35.775  0.00  0.00    +0.000 A 
ATOM      5  N   UNL     1      16.141  11.255  37.100  0.00  0.00    +0.000 NA
ATOM      6  C   UNL     1      17.055  10.296  37.386  0.00  0.00    +0.000 A 
ATOM      7  N   UNL     1      17.462   9.816  36.219  0.00  0.00    +0.000 NA
ATOM      8  C   UNL     1      16.821  10.457  35.204  0.00  0.00    +0.000 A 
ATOM      9  C   UNL     1      16.855  10.343  33.816  0.00  0.00    +0.000 A 
ATOM     10  C   UNL     1      16.072  11.125  33.002  0.00  0.00    +0.000 A 
ATOM     11  C   UNL     1      16.081  11.030  31.512  0.00  0.00    +0.000 C 
ENDROOT
BRANCH   6  12
ATOM     12  S   UNL     1      17.483   9.852  39.067  0.00  0.00    +0.000 S 
BRANCH  12  13
ATOM     13  C   UNL     1      19.216   9.584  39.259  0.00  0.00    +0.000 A 
ATOM     14  C   UNL     1      19.738   8.480  39.933  0.00  0.00    +0.000 A 
ATOM     15  N   UNL     1      21.085   8.562  39.951  0.00  0.00    +0.000 NA
ATOM     16  C   UNL     1      21.420   9.704  39.296  0.00  0.00    +0.000 A 
ATOM     17  N   UNL     1      20.290  10.298  38.891  0.00  0.00    +0.000 N 
ATOM     18  C   UNL     1      20.232  11.548  38.158  0.00  0.00    +0.000 C 
BRANCH  14  19
ATOM     19  N   UNL     1      19.017   7.413  40.510  0.00  0.00    +0.000 N 
ATOM     20  O   UNL     1      18.610   7.446  41.704  0.00  0.00    +0.000 OA
ATOM     21  O   UNL     1      18.736   6.282  39.790  0.00  0.00    +0.000 OA
ENDBRANCH  14  19
ENDBRANCH  12  13
ENDBRANCH   6  12
TORSDOF 3
ENDMDL
MODEL 4
REMARK VINA RESULT:      -5.9     20.819     22.823
REMARK  Name = 
REMARK  3 active torsions:
REMARK  status: ('A' for Active; 'I' for Inactive)
REMARK    1  A    between atoms: C_6  and  S_7
REMARK    2  A    between atoms: S_7  and  C_8
REMARK    3  A    between atoms: C_9  and  N_10
REMARK                            x       y       z     vdW  Elec       q    Type
REMARK                         _______ _______ _______ _____ _____    ______ ____
ROOT
ATOM      1  C   UNL     1      31.187  22.437  31.821  0.00  0.00    +0.000 C 
ATOM      2  C   UNL     1      30.774  22.411  30.382  0.00  0.00    +0.000 A 
ATOM      3  C   UNL     1      29.452  22.660  30.068  0.00  0.00    +0.000 A 
ATOM      4  C   UNL     1      29.054  22.643  28.735  0.00  0.00    +0.000 A 
ATOM      5  N   UNL     1      27.886  22.854  28.111  0.00  0.00    +0.000 NA
ATOM      6  C   UNL     1      28.027  22.734  26.768  0.00  0.00    +0.000 A 
ATOM      7  N   UNL     1      29.304  22.445  26.557  0.00  0.00    +0.000 NA
ATOM      8  C   UNL     1      29.968  22.382  27.743  0.00  0.00    +0.000 A 
ATOM      9  C   UNL     1      31.293  22.135  28.095  0.00  0.00    +0.000 A 
ATOM     10  C   UNL     1      31.713  22.145  29.403  0.00  0.00    +0.000 A 
ATOM     11  C   UNL     1      33.123  21.888  29.818  0.00  0.00    +0.000 C 
ENDROOT
BRANCH   6  12
ATOM     12  S   UNL     1      26.665  22.990  25.635  0.00  0.00    +0.000 S 
BRANCH  12  13
ATOM     13  C   UNL     1      26.767  24.551  24.820  0.00  0.00    +0.000 A 
ATOM     14  C   UNL     1      26.839  24.674  23.433  0.00  0.00    +0.000 A 
ATOM     15  N   UNL     1      26.945  25.978  23.103  0.00  0.00    +0.000 NA
ATOM     16  C   UNL     1      26.939  26.681  24.266  0.00  0.00    +0.000 A 
ATOM     17  N   UNL     1      26.832  25.810  25.278  0.00  0.00    +0.000 N 
ATOM     18  C   UNL     1      26.797  26.176  26.680  0.00  0.00    +0.000 C 
BRANCH  14  19
ATOM     19  N   UNL     1      26.799  23.633  22.480  0.00  0.00    +0.000 N 
ATOM     20  O   UNL     1      27.836  23.220  21.893  0.00  0.00    +0.000 OA
ATOM     21  O   UNL     1      25.615  23.030  22.147  0.00  0.00    +0.000 OA
ENDBRANCH  14  19
ENDBRANCH  12  13
ENDBRANCH   6  12
TORSDOF 3
ENDMDL
MODEL 5
REMARK VINA RESULT:      -5.7     20.788     22.361
REMARK  Name = 
REMARK  3 active torsions:
REMARK  status: ('A' for Active; 'I' for Inactive)
REMARK    1  A    between atoms: C_6  and  S_7
REMARK    2  A    between atoms: S_7  and  C_8
REMARK    3  A    between atoms: C_9  and  N_10
REMARK                            x       y       z     vdW  Elec       q    Type
REMARK                         _______ _______ _______ _____ _____    ______ ____
ROOT
ATOM      1  C   UNL     1      23.165  27.494  29.694  0.00  0.00    +0.000 C 
ATOM      2  C   UNL     1      24.096  26.401  29.267  0.00  0.00    +0.000 A 
ATOM      3  C   UNL     1      24.165  26.078  27.926  0.00  0.00    +0.000 A 
ATOM      4  C   UNL     1      25.028  25.067  27.514  0.00  0.00    +0.000 A 
ATOM      5  N   UNL     1      25.336  24.536  26.321  0.00  0.00    +0.000 NA
ATOM      6  C   UNL     1      26.270  23.563  26.452  0.00  0.00    +0.000 A 
ATOM      7  N   UNL     1      26.546  23.489  27.747  0.00  0.00    +0.000 NA
ATOM      8  C   UNL     1      25.802  24.400  28.432  0.00  0.00    +0.000 A 
ATOM      9  C   UNL     1      25.707  24.752  29.777  0.00  0.00    +0.000 A 
ATOM     10  C   UNL     1      24.863  25.745  30.211  0.00  0.00    +0.000 A 
ATOM     11  C   UNL     1      24.736  26.151  31.641  0.00  0.00    +0.000 C 
ENDROOT
BRANCH   6  12
ATOM     12  S   UNL     1      26.930  22.674  25.045  0.00  0.00    +0.000 S 
BRANCH  12  13
ATOM     13  C   UNL     1      28.651  22.985  24.813  0.00  0.00    +0.000 A 
ATOM     14  C   UNL     1      29.162  23.572  23.657  0.00  0.00    +0.000 A 
ATOM     15  N   UNL     1      30.506  23.650  23.750  0.00  0.00    +0.000 NA
ATOM     16  C   UNL     1      30.850  23.119  24.953  0.00  0.00    +0.000 A 
ATOM     17  N   UNL     1      29.728  22.729  25.571  0.00  0.00    +0.000 N 
ATOM     18  C   UNL     1      29.681  22.108  26.880  0.00  0.00    +0.000 C 
BRANCH  14  19
ATOM     19  N   UNL     1      28.433  24.041  22.543  0.00  0.00    +0.000 N 
ATOM     20  O   UNL     1      27.893  23.257  21.715  0.00  0.00    +0.000 OA
ATOM     21  O   UNL     1      28.289  25.383  22.311  0.00  0.00    +0.000 OA
ENDBRANCH  14  19
ENDBRANCH  12  13
ENDBRANCH   6  12
TORSDOF 3
ENDMDL
MODEL 6
REMARK VINA RESULT:      -5.6     22.652     25.009
REMARK  Name = 
REMARK  3 active torsions:
REMARK  status: ('A' for Active; 'I' for Inactive)
REMARK    1  A    between atoms: C_6  and  S_7
REMARK    2  A    between atoms: S_7  and  C_8
REMARK    3  A    between atoms: C_9  and  N_10
REMARK                            x       y       z     vdW  Elec       q    Type
REMARK                         _______ _______ _______ _____ _____    ______ ____
ROOT
ATOM      1  C   UNL     1      29.039  30.072  20.458  0.00  0.00    +0.000 C 
ATOM      2  C   UNL     1      29.224  28.589  20.546  0.00  0.00    +0.000 A 
ATOM      3  C   UNL     1      28.990  27.965  21.756  0.00  0.00    +0.000 A 
ATOM      4  C   UNL     1      29.153  26.586  21.853  0.00  0.00    +0.000 A 
ATOM      5  N   UNL     1      28.996  25.699  22.846  0.00  0.00    +0.000 NA
ATOM      6  C   UNL     1      29.272  24.442  22.420  0.00  0.00    +0.000 A 
ATOM      7  N   UNL     1      29.605  24.553  21.141  0.00  0.00    +0.000 NA
ATOM      8  C   UNL     1      29.543  25.856  20.756  0.00  0.00    +0.000 A 
ATOM      9  C   UNL     1      29.770  26.519  19.551  0.00  0.00    +0.000 A 
ATOM     10  C   UNL     1      29.616  27.878  19.428  0.00  0.00    +0.000 A 
ATOM     11  C   UNL     1      29.848  28.621  18.155  0.00  0.00    +0.000 C 
ENDROOT
BRANCH   6  12
ATOM     12  S   UNL     1      29.124  23.014  23.490  0.00  0.00    +0.000 S 
BRANCH  12  13
ATOM     13  C   UNL     1      27.798  23.184  24.641  0.00  0.00    +0.000 A 
ATOM     14  C   UNL     1      27.994  23.192  26.021  0.00  0.00    +0.000 A 
ATOM     15  N   UNL     1      26.801  23.299  26.643  0.00  0.00    +0.000 NA
ATOM     16  C   UNL     1      25.854  23.359  25.671  0.00  0.00    +0.000 A 
ATOM     17  N   UNL     1      26.470  23.290  24.484  0.00  0.00    +0.000 N 
ATOM     18  C   UNL     1      25.795  23.318  23.201  0.00  0.00    +0.000 C 
BRANCH  14  19
ATOM     19  N   UNL     1      29.224  23.117  26.709  0.00  0.00    +0.000 N 
ATOM     20  O   UNL     1      29.840  24.148  27.098  0.00  0.00    +0.000 OA
ATOM     21  O   UNL     1      29.809  21.908  26.975  0.00  0.00    +0.000 OA
ENDBRANCH  14  19
ENDBRANCH  12  13
ENDBRANCH   6  12
TORSDOF 3
ENDMDL
MODEL 7
REMARK VINA RESULT:      -5.6     21.406     23.692
REMARK  Name = 
REMARK  3 active torsions:
REMARK  status: ('A' for Active; 'I' for Inactive)
REMARK    1  A    between atoms: C_6  and  S_7
REMARK    2  A    between atoms: S_7  and  C_8
REMARK    3  A    between atoms: C_9  and  N_10
REMARK                            x       y       z     vdW  Elec       q    Type
REMARK                         _______ _______ _______ _____ _____    ______ ____
ROOT
ATOM      1  C   UNL     1      34.238  26.017  26.933  0.00  0.00    +0.000 C 
ATOM      2  C   UNL     1      33.193  25.142  26.315  0.00  0.00    +0.000 A 
ATOM      3  C   UNL     1      31.983  24.995  26.967  0.00  0.00    +0.000 A 
ATOM      4  C   UNL     1      31.000  24.188  26.403  0.00  0.00    +0.000 A 
ATOM      5  N   UNL     1      29.750  23.858  26.761  0.00  0.00    +0.000 NA
ATOM      6  C   UNL     1      29.187  23.033  25.844  0.00  0.00    +0.000 A 
ATOM      7  N   UNL     1      30.103  22.850  24.903  0.00  0.00    +0.000 NA
ATOM      8  C   UNL     1      31.231  23.545  25.211  0.00  0.00    +0.000 A 
ATOM      9  C   UNL     1      32.462  23.716  24.580  0.00  0.00    +0.000 A 
ATOM     10  C   UNL     1      33.450  24.507  25.115  0.00  0.00    +0.000 A 
ATOM     11  C   UNL     1      34.779  24.714  24.468  0.00  0.00    +0.000 C 
ENDROOT
BRANCH   6  12
ATOM     12  S   UNL     1      27.508  22.433  26.001  0.00  0.00    +0.000 S 
BRANCH  12  13
ATOM     13  C   UNL     1      26.320  23.703  25.706  0.00  0.00    +0.000 A 
ATOM     14  C   UNL     1      25.852  24.018  24.432  0.00  0.00    +0.000 A 
ATOM     15  N   UNL     1      24.986  25.049  24.513  0.00  0.00    +0.000 NA
ATOM     16  C   UNL     1      24.900  25.389  25.826  0.00  0.00    +0.000 A 
ATOM     17  N   UNL     1      25.703  24.574  26.521  0.00  0.00    +0.000 N 
ATOM     18  C   UNL     1      25.889  24.626  27.957  0.00  0.00    +0.000 C 
BRANCH  14  19
ATOM     19  N   UNL     1      26.190  23.382  23.218  0.00  0.00    +0.000 N 
ATOM     20  O   UNL     1      27.351  23.442  22.727  0.00  0.00    +0.000 OA
ATOM     21  O   UNL     1      25.255  22.672  22.511  0.00  0.00    +0.000 OA
ENDBRANCH  14  19
ENDBRANCH  12  13
ENDBRANCH   6  12
TORSDOF 3
ENDMDL
MODEL 8
REMARK VINA RESULT:      -5.5     19.976     22.062
REMARK  Name = 
REMARK  3 active torsions:
REMARK  status: ('A' for Active; 'I' for Inactive)
REMARK    1  A    between atoms: C_6  and  S_7
REMARK    2  A    between atoms: S_7  and  C_8
REMARK    3  A    between atoms: C_9  and  N_10
REMARK                            x       y       z     vdW  Elec       q    Type
REMARK                         _______ _______ _______ _____ _____    ______ ____
ROOT
ATOM      1  C   UNL     1      34.563  24.699  27.403  0.00  0.00    +0.000 C 
ATOM      2  C   UNL     1      33.232  24.308  26.840  0.00  0.00    +0.000 A 
ATOM      3  C   UNL     1      32.226  23.944  27.714  0.00  0.00    +0.000 A 
ATOM      4  C   UNL     1      30.982  23.581  27.206  0.00  0.00    +0.000 A 
ATOM      5  N   UNL     1      29.824  23.203  27.767  0.00  0.00    +0.000 NA
ATOM      6  C   UNL     1      28.883  22.970  26.819  0.00  0.00    +0.000 A 
ATOM      7  N   UNL     1      29.468  23.208  25.653  0.00  0.00    +0.000 NA
ATOM      8  C   UNL     1      30.759  23.588  25.851  0.00  0.00    +0.000 A 
ATOM      9  C   UNL     1      31.796  23.961  24.998  0.00  0.00    +0.000 A 
ATOM     10  C   UNL     1      33.034  24.322  25.473  0.00  0.00    +0.000 A 
ATOM     11  C   UNL     1      34.167  24.729  24.591  0.00  0.00    +0.000 C 
ENDROOT
BRANCH   6  12
ATOM     12  S   UNL     1      27.210  22.483  27.231  0.00  0.00    +0.000 S 
BRANCH  12  13
ATOM     13  C   UNL     1      26.431  23.641  28.311  0.00  0.00    +0.000 A 
ATOM     14  C   UNL     1      26.240  23.395  29.670  0.00  0.00    +0.000 A 
ATOM     15  N   UNL     1      25.590  24.437  30.228  0.00  0.00    +0.000 NA
ATOM     16  C   UNL     1      25.368  25.340  29.237  0.00  0.00    +0.000 A 
ATOM     17  N   UNL     1      25.878  24.845  28.102  0.00  0.00    +0.000 N 
ATOM     18  C   UNL     1      25.834  25.516  26.817  0.00  0.00    +0.000 C 
BRANCH  14  19
ATOM     19  N   UNL     1      26.655  22.258  30.398  0.00  0.00    +0.000 N 
ATOM     20  O   UNL     1      27.872  22.004  30.610  0.00  0.00    +0.000 OA
ATOM     21  O   UNL     1      25.739  21.372  30.900  0.00  0.00    +0.000 OA
ENDBRANCH  14  19
ENDBRANCH  12  13
ENDBRANCH   6  12
TORSDOF 3
ENDMDL
MODEL 9
REMARK VINA RESULT:      -5.3     21.742     23.248
REMARK  Name = 
REMARK  3 active torsions:
REMARK  status: ('A' for Active; 'I' for Inactive)
REMARK    1  A    between atoms: C_6  and  S_7
REMARK    2  A    between atoms: S_7  and  C_8
REMARK    3  A    between atoms: C_9  and  N_10
REMARK                            x       y       z     vdW  Elec       q    Type
REMARK                         _______ _______ _______ _____ _____    ______ ____
ROOT
ATOM      1  C   UNL     1      23.292  26.765  29.494  0.00  0.00    +0.000 C 
ATOM      2  C   UNL     1      23.799  26.454  28.120  0.00  0.00    +0.000 A 
ATOM      3  C   UNL     1      24.669  25.392  27.961  0.00  0.00    +0.000 A 
ATOM      4  C   UNL     1      25.146  25.087  26.689  0.00  0.00    +0.000 A 
ATOM      5  N   UNL     1      25.964  24.141  26.206  0.00  0.00    +0.000 NA
ATOM      6  C   UNL     1      26.104  24.265  24.863  0.00  0.00    +0.000 A 
ATOM      7  N   UNL     1      25.359  25.304  24.509  0.00  0.00    +0.000 NA
ATOM      8  C   UNL     1      24.754  25.835  25.606  0.00  0.00    +0.000 A 
ATOM      9  C   UNL     1      23.875  26.899  25.803  0.00  0.00    +0.000 A 
ATOM     10  C   UNL     1      23.390  27.221  27.047  0.00  0.00    +0.000 A 
ATOM     11  C   UNL     1      22.447  28.351  27.296  0.00  0.00    +0.000 C 
ENDROOT
BRANCH   6  12
ATOM     12  S   UNL     1      27.102  23.135  23.897  0.00  0.00    +0.000 S 
BRANCH  12  13
ATOM     13  C   UNL     1      28.827  23.364  24.185  0.00  0.00    +0.000 A 
ATOM     14  C   UNL     1      29.656  24.050  23.299  0.00  0.00    +0.000 A 
ATOM     15  N   UNL     1      30.923  24.032  23.763  0.00  0.00    +0.000 NA
ATOM     16  C   UNL     1      30.903  23.343  24.934  0.00  0.00    +0.000 A 
ATOM     17  N   UNL     1      29.644  22.954  25.168  0.00  0.00    +0.000 N 
ATOM     18  C   UNL     1      29.218  22.187  26.322  0.00  0.00    +0.000 C 
BRANCH  14  19
ATOM     19  N   UNL     1      29.278  24.691  22.099  0.00  0.00    +0.000 N 
ATOM     20  O   UNL     1      28.532  25.709  22.088  0.00  0.00    +0.000 OA
ATOM     21  O   UNL     1      29.704  24.222  20.886  0.00  0.00    +0.000 OA
ENDBRANCH  14  19
ENDBRANCH  12  13
ENDBRANCH   6  12
TORSDOF 3
ENDMDL
MODEL 10
REMARK VINA RESULT:      -5.3     20.943     22.577
REMARK  Name = 
REMARK  3 active torsions:
REMARK  status: ('A' for Active; 'I' for Inactive)
REMARK    1  A    between atoms: C_6  and  S_7
REMARK    2  A    between atoms: S_7  and  C_8
REMARK    3  A    between atoms: C_9  and  N_10
REMARK                            x       y       z     vdW  Elec       q    Type
REMARK                         _______ _______ _______ _____ _____    ______ ____
ROOT
ATOM      1  C   UNL     1      22.449  27.357  28.640  0.00  0.00    +0.000 C 
ATOM      2  C   UNL     1      23.612  26.414  28.603  0.00  0.00    +0.000 A 
ATOM      3  C   UNL     1      23.992  25.882  27.387  0.00  0.00    +0.000 A 
ATOM      4  C   UNL     1      25.073  25.006  27.335  0.00  0.00    +0.000 A 
ATOM      5  N   UNL     1      25.689  24.348  26.342  0.00  0.00    +0.000 NA
ATOM      6  C   UNL     1      26.727  23.617  26.819  0.00  0.00    +0.000 A 
ATOM      7  N   UNL     1      26.754  23.827  28.128  0.00  0.00    +0.000 NA
ATOM      8  C   UNL     1      25.753  24.677  28.483  0.00  0.00    +0.000 A 
ATOM      9  C   UNL     1      25.341  25.233  29.693  0.00  0.00    +0.000 A 
ATOM     10  C   UNL     1      24.278  26.099  29.772  0.00  0.00    +0.000 A 
ATOM     11  C   UNL     1      23.810  26.714  31.048  0.00  0.00    +0.000 C 
ENDROOT
BRANCH   6  12
ATOM     12  S   UNL     1      27.784  22.646  25.750  0.00  0.00    +0.000 S 
BRANCH  12  13
ATOM     13  C   UNL     1      27.918  23.347  24.137  0.00  0.00    +0.000 A 
ATOM     14  C   UNL     1      29.112  23.867  23.637  0.00  0.00    +0.000 A 
ATOM     15  N   UNL     1      28.901  24.364  22.400  0.00  0.00    +0.000 NA
ATOM     16  C   UNL     1      27.588  24.164  22.113  0.00  0.00    +0.000 A 
ATOM     17  N   UNL     1      27.021  23.555  23.162  0.00  0.00    +0.000 N 
ATOM     18  C   UNL     1      25.623  23.178  23.239  0.00  0.00    +0.000 C 
BRANCH  14  19
ATOM     19  N   UNL     1      30.370  23.882  24.276  0.00  0.00    +0.000 N 
ATOM     20  O   UNL     1      31.191  22.931  24.166  0.00  0.00    +0.000 OA
ATOM     21  O   UNL     1      30.748  24.941  25.059  0.00  0.00    +0.000 OA
ENDBRANCH  14  19
ENDBRANCH  12  13
ENDBRANCH   6  12
TORSDOF 3
ENDMDL
