MODEL 1
REMARK VINA RESULT:      -8.6      0.000      0.000
REMARK  Name = 
REMARK  7 active torsions:
REMARK  status: ('A' for Active; 'I' for Inactive)
REMARK    1  A    between atoms: O_2  and  C_3
REMARK    2  A    between atoms: C_6  and  C_7
REMARK    3  A    between atoms: C_7  and  N_8
REMARK    4  A    between atoms: C_9  and  C_11
REMARK    5  A    between atoms: C_13  and  C_14
REMARK    6  A    between atoms: C_17  and  C_18
REMARK    7  A    between atoms: C_18  and  C_19
REMARK                            x       y       z     vdW  Elec       q    Type
REMARK                         _______ _______ _______ _____ _____    ______ ____
ROOT
ATOM      1  C   UNL     1      37.391   4.041  15.740  0.00  0.00    +0.000 A 
ATOM      2  C   UNL     1      38.334   4.393  16.690  0.00  0.00    +0.000 A 
ATOM      3  C   UNL     1      38.758   5.701  16.840  0.00  0.00    +0.000 A 
ATOM      4  N   UNL     1      38.210   6.613  16.017  0.00  0.00    +0.000 NA
ATOM      5  C   UNL     1      37.298   6.312  15.088  0.00  0.00    +0.000 A 
ATOM      6  C   UNL     1      36.741   7.258  14.242  0.00  0.00    +0.000 A 
ATOM      7  C   UNL     1      35.801   6.956  13.278  0.00  0.00    +0.000 A 
ATOM      8  C   UNL     1      35.401   5.642  13.158  0.00  0.00    +0.000 A 
ATOM      9  C   UNL     1      35.918   4.663  13.966  0.00  0.00    +0.000 A 
ATOM     10  C   UNL     1      36.858   5.019  14.918  0.00  0.00    +0.000 A 
ENDROOT
BRANCH   3  11
ATOM     11  C   UNL     1      39.747   6.067  17.850  0.00  0.00    +0.000 A 
ATOM     12  C   UNL     1      41.032   6.386  17.460  0.00  0.00    +0.000 A 
ATOM     13  C   UNL     1      42.004   6.739  18.373  0.00  0.00    +0.000 A 
ATOM     14  C   UNL     1      41.733   6.788  19.725  0.00  0.00    +0.000 A 
ATOM     15  C   UNL     1      40.449   6.470  20.124  0.00  0.00    +0.000 A 
ATOM     16  C   UNL     1      39.475   6.114  19.194  0.00  0.00    +0.000 A 
BRANCH  14  17
ATOM     17  C   UNL     1      42.778   7.173  20.725  0.00  0.00    +0.000 C 
BRANCH  17  18
ATOM     18  C   UNL     1      43.627   5.996  21.132  0.00  0.00    +0.000 C 
ATOM     19  C   UNL     1      44.981   6.081  20.452  0.00  0.00    +0.000 C 
ATOM     20  C   UNL     1      43.829   6.058  22.636  0.00  0.00    +0.000 C 
ENDBRANCH  17  18
ENDBRANCH  14  17
ENDBRANCH   3  11
BRANCH   1  22
ATOM     21  N   UNL     1      35.841   2.231  16.383  0.00  0.00    +0.000 NA
ATOM     22  C   UNL     1      36.961   2.653  15.619  0.00  0.00    +0.000 C 
ATOM     23  O   UNL     1      37.594   1.889  14.850  0.00  0.00    +0.000 OA
BRANCH  21  24
ATOM     24  C   UNL     1      35.363   0.872  16.308  0.00  0.00    +0.000 C 
BRANCH  24  28
ATOM     25  C   UNL     1      37.275  -1.757  19.030  0.00  0.00    +0.000 A 
ATOM     26  C   UNL     1      37.535  -1.827  17.674  0.00  0.00    +0.000 A 
ATOM     27  C   UNL     1      36.917  -0.977  16.781  0.00  0.00    +0.000 A 
ATOM     28  C   UNL     1      36.023  -0.044  17.271  0.00  0.00    +0.000 A 
ATOM     29  C   UNL     1      35.730   0.067  18.612  0.00  0.00    +0.000 A 
ATOM     30  C   UNL     1      36.378  -0.810  19.458  0.00  0.00    +0.000 A 
BRANCH  25  32
ATOM     31  C   UNL     1      38.818  -3.609  19.508  0.00  0.00    +0.000 C 
ATOM     32  O   UNL     1      37.909  -2.624  19.909  0.00  0.00    +0.000 OA
ENDBRANCH  25  32
ENDBRANCH  24  28
ENDBRANCH  21  24
ENDBRANCH   1  22
TORSDOF 7
ENDMDL
MODEL 2
REMARK VINA RESULT:      -8.3      2.273      2.737
REMARK  Name = 
REMARK  7 active torsions:
REMARK  status: ('A' for Active; 'I' for Inactive)
REMARK    1  A    between atoms: O_2  and  C_3
REMARK    2  A    between atoms: C_6  and  C_7
REMARK    3  A    between atoms: C_7  and  N_8
REMARK    4  A    between atoms: C_9  and  C_11
REMARK    5  A    between atoms: C_13  and  C_14
REMARK    6  A    between atoms: C_17  and  C_18
REMARK    7  A    between atoms: C_18  and  C_19
REMARK                            x       y       z     vdW  Elec       q    Type
REMARK                         _______ _______ _______ _____ _____    ______ ____
ROOT
ATOM      1  C   UNL     1      37.275   3.549  16.087  0.00  0.00    +0.000 A 
ATOM      2  C   UNL     1      38.028   4.191  17.055  0.00  0.00    +0.000 A 
ATOM      3  C   UNL     1      39.101   4.998  16.721  0.00  0.00    +0.000 A 
ATOM      4  N   UNL     1      39.376   5.128  15.411  0.00  0.00    +0.000 NA
ATOM      5  C   UNL     1      38.673   4.524  14.448  0.00  0.00    +0.000 A 
ATOM      6  C   UNL     1      38.966   4.661  13.101  0.00  0.00    +0.000 A 
ATOM      7  C   UNL     1      38.247   4.040  12.100  0.00  0.00    +0.000 A 
ATOM      8  C   UNL     1      37.185   3.244  12.469  0.00  0.00    +0.000 A 
ATOM      9  C   UNL     1      36.848   3.070  13.786  0.00  0.00    +0.000 A 
ATOM     10  C   UNL     1      37.601   3.716  14.752  0.00  0.00    +0.000 A 
ENDROOT
BRANCH   3  11
ATOM     11  C   UNL     1      39.885   5.679  17.747  0.00  0.00    +0.000 A 
ATOM     12  C   UNL     1      41.142   6.158  17.436  0.00  0.00    +0.000 A 
ATOM     13  C   UNL     1      41.924   6.809  18.368  0.00  0.00    +0.000 A 
ATOM     14  C   UNL     1      41.482   7.011  19.659  0.00  0.00    +0.000 A 
ATOM     15  C   UNL     1      40.226   6.534  19.979  0.00  0.00    +0.000 A 
ATOM     16  C   UNL     1      39.444   5.877  19.032  0.00  0.00    +0.000 A 
BRANCH  14  17
ATOM     17  C   UNL     1      42.321   7.718  20.677  0.00  0.00    +0.000 C 
BRANCH  17  18
ATOM     18  C   UNL     1      43.718   7.159  20.741  0.00  0.00    +0.000 C 
ATOM     19  C   UNL     1      44.666   8.210  21.290  0.00  0.00    +0.000 C 
ATOM     20  C   UNL     1      43.708   5.969  21.684  0.00  0.00    +0.000 C 
ENDBRANCH  17  18
ENDBRANCH  14  17
ENDBRANCH   3  11
BRANCH   1  22
ATOM     21  N   UNL     1      36.415   1.490  17.142  0.00  0.00    +0.000 NA
ATOM     22  C   UNL     1      36.145   2.714  16.477  0.00  0.00    +0.000 C 
ATOM     23  O   UNL     1      34.982   3.109  16.212  0.00  0.00    +0.000 OA
BRANCH  21  24
ATOM     24  C   UNL     1      35.343   0.620  17.557  0.00  0.00    +0.000 C 
BRANCH  24  28
ATOM     25  C   UNL     1      35.146  -3.035  15.419  0.00  0.00    +0.000 A 
ATOM     26  C   UNL     1      34.314  -2.798  16.496  0.00  0.00    +0.000 A 
ATOM     27  C   UNL     1      34.371  -1.613  17.200  0.00  0.00    +0.000 A 
ATOM     28  C   UNL     1      35.286  -0.656  16.802  0.00  0.00    +0.000 A 
ATOM     29  C   UNL     1      36.137  -0.843  15.736  0.00  0.00    +0.000 A 
ATOM     30  C   UNL     1      36.034  -2.048  15.071  0.00  0.00    +0.000 A 
BRANCH  25  32
ATOM     31  C   UNL     1      33.879  -4.763  14.214  0.00  0.00    +0.000 C 
ATOM     32  O   UNL     1      35.070  -4.237  14.728  0.00  0.00    +0.000 OA
ENDBRANCH  25  32
ENDBRANCH  24  28
ENDBRANCH  21  24
ENDBRANCH   1  22
TORSDOF 7
ENDMDL
MODEL 3
REMARK VINA RESULT:      -8.1      4.534      8.623
REMARK  Name = 
REMARK  7 active torsions:
REMARK  status: ('A' for Active; 'I' for Inactive)
REMARK    1  A    between atoms: O_2  and  C_3
REMARK    2  A    between atoms: C_6  and  C_7
REMARK    3  A    between atoms: C_7  and  N_8
REMARK    4  A    between atoms: C_9  and  C_11
REMARK    5  A    between atoms: C_13  and  C_14
REMARK    6  A    between atoms: C_17  and  C_18
REMARK    7  A    between atoms: C_18  and  C_19
REMARK                            x       y       z     vdW  Elec       q    Type
REMARK                         _______ _______ _______ _____ _____    ______ ____
ROOT
ATOM      1  C   UNL     1      37.889   1.535  15.198  0.00  0.00    +0.000 A 
ATOM      2  C   UNL     1      38.907   0.805  14.610  0.00  0.00    +0.000 A 
ATOM      3  C   UNL     1      38.895  -0.579  14.600  0.00  0.00    +0.000 A 
ATOM      4  N   UNL     1      37.845  -1.178  15.190  0.00  0.00    +0.000 NA
ATOM      5  C   UNL     1      36.844  -0.508  15.768  0.00  0.00    +0.000 A 
ATOM      6  C   UNL     1      35.768  -1.134  16.377  0.00  0.00    +0.000 A 
ATOM      7  C   UNL     1      34.731  -0.451  16.978  0.00  0.00    +0.000 A 
ATOM      8  C   UNL     1      34.777   0.926  16.967  0.00  0.00    +0.000 A 
ATOM      9  C   UNL     1      35.816   1.601  16.382  0.00  0.00    +0.000 A 
ATOM     10  C   UNL     1      36.831   0.868  15.792  0.00  0.00    +0.000 A 
ENDROOT
BRANCH   3  11
ATOM     11  C   UNL     1      39.968  -1.343  13.971  0.00  0.00    +0.000 A 
ATOM     12  C   UNL     1      41.267  -1.177  14.408  0.00  0.00    +0.000 A 
ATOM     13  C   UNL     1      42.318  -1.875  13.848  0.00  0.00    +0.000 A 
ATOM     14  C   UNL     1      42.115  -2.773  12.821  0.00  0.00    +0.000 A 
ATOM     15  C   UNL     1      40.818  -2.944  12.377  0.00  0.00    +0.000 A 
ATOM     16  C   UNL     1      39.764  -2.234  12.948  0.00  0.00    +0.000 A 
BRANCH  14  17
ATOM     17  C   UNL     1      43.247  -3.537  12.208  0.00  0.00    +0.000 C 
BRANCH  17  18
ATOM     18  C   UNL     1      44.581  -2.907  12.512  0.00  0.00    +0.000 C 
ATOM     19  C   UNL     1      45.589  -3.985  12.865  0.00  0.00    +0.000 C 
ATOM     20  C   UNL     1      45.055  -2.181  11.265  0.00  0.00    +0.000 C 
ENDBRANCH  17  18
ENDBRANCH  14  17
ENDBRANCH   3  11
BRANCH   1  22
ATOM     21  N   UNL     1      38.558   3.658  16.264  0.00  0.00    +0.000 NA
ATOM     22  C   UNL     1      37.932   2.993  15.178  0.00  0.00    +0.000 C 
ATOM     23  O   UNL     1      37.416   3.599  14.207  0.00  0.00    +0.000 OA
BRANCH  21  24
ATOM     24  C   UNL     1      38.637   5.097  16.305  0.00  0.00    +0.000 C 
BRANCH  24  28
ATOM     25  C   UNL     1      41.294   6.586  19.253  0.00  0.00    +0.000 A 
ATOM     26  C   UNL     1      41.670   6.525  17.925  0.00  0.00    +0.000 A 
ATOM     27  C   UNL     1      40.814   6.041  16.959  0.00  0.00    +0.000 A 
ATOM     28  C   UNL     1      39.558   5.613  17.347  0.00  0.00    +0.000 A 
ATOM     29  C   UNL     1      39.134   5.654  18.656  0.00  0.00    +0.000 A 
ATOM     30  C   UNL     1      40.034   6.147  19.579  0.00  0.00    +0.000 A 
BRANCH  25  32
ATOM     31  C   UNL     1      42.918   6.262  21.070  0.00  0.00    +0.000 C 
ATOM     32  O   UNL     1      42.175   7.076  20.208  0.00  0.00    +0.000 OA
ENDBRANCH  25  32
ENDBRANCH  24  28
ENDBRANCH  21  24
ENDBRANCH   1  22
TORSDOF 7
ENDMDL
MODEL 4
REMARK VINA RESULT:      -8.0      2.554      8.325
REMARK  Name = 
REMARK  7 active torsions:
REMARK  status: ('A' for Active; 'I' for Inactive)
REMARK    1  A    between atoms: O_2  and  C_3
REMARK    2  A    between atoms: C_6  and  C_7
REMARK    3  A    between atoms: C_7  and  N_8
REMARK    4  A    between atoms: C_9  and  C_11
REMARK    5  A    between atoms: C_13  and  C_14
REMARK    6  A    between atoms: C_17  and  C_18
REMARK    7  A    between atoms: C_18  and  C_19
REMARK                            x       y       z     vdW  Elec       q    Type
REMARK                         _______ _______ _______ _____ _____    ______ ____
ROOT
ATOM      1  C   UNL     1      37.589   4.767  14.844  0.00  0.00    +0.000 A 
ATOM      2  C   UNL     1      37.328   3.467  15.239  0.00  0.00    +0.000 A 
ATOM      3  C   UNL     1      36.046   2.947  15.223  0.00  0.00    +0.000 A 
ATOM      4  N   UNL     1      35.066   3.768  14.805  0.00  0.00    +0.000 NA
ATOM      5  C   UNL     1      35.278   5.030  14.417  0.00  0.00    +0.000 A 
ATOM      6  C   UNL     1      34.262   5.870  13.991  0.00  0.00    +0.000 A 
ATOM      7  C   UNL     1      34.472   7.173  13.591  0.00  0.00    +0.000 A 
ATOM      8  C   UNL     1      35.762   7.656  13.619  0.00  0.00    +0.000 A 
ATOM      9  C   UNL     1      36.807   6.872  14.031  0.00  0.00    +0.000 A 
ATOM     10  C   UNL     1      36.544   5.571  14.423  0.00  0.00    +0.000 A 
ENDROOT
BRANCH   3  11
ATOM     11  C   UNL     1      35.779   1.572  15.633  0.00  0.00    +0.000 A 
ATOM     12  C   UNL     1      36.380   0.531  14.954  0.00  0.00    +0.000 A 
ATOM     13  C   UNL     1      36.163  -0.787  15.301  0.00  0.00    +0.000 A 
ATOM     14  C   UNL     1      35.329  -1.124  16.348  0.00  0.00    +0.000 A 
ATOM     15  C   UNL     1      34.723  -0.088  17.032  0.00  0.00    +0.000 A 
ATOM     16  C   UNL     1      34.948   1.239  16.673  0.00  0.00    +0.000 A 
BRANCH  14  17
ATOM     17  C   UNL     1      35.089  -2.550  16.735  0.00  0.00    +0.000 C 
BRANCH  17  18
ATOM     18  C   UNL     1      35.218  -3.481  15.558  0.00  0.00    +0.000 C 
ATOM     19  C   UNL     1      36.123  -4.644  15.922  0.00  0.00    +0.000 C 
ATOM     20  C   UNL     1      33.837  -4.019  15.227  0.00  0.00    +0.000 C 
ENDBRANCH  17  18
ENDBRANCH  14  17
ENDBRANCH   3  11
BRANCH   1  22
ATOM     21  N   UNL     1      39.472   5.756  16.096  0.00  0.00    +0.000 NA
ATOM     22  C   UNL     1      38.956   5.275  14.864  0.00  0.00    +0.000 C 
ATOM     23  O   UNL     1      39.620   5.266  13.798  0.00  0.00    +0.000 OA
BRANCH  21  24
ATOM     24  C   UNL     1      40.817   6.269  16.185  0.00  0.00    +0.000 C 
BRANCH  24  28
ATOM     25  C   UNL     1      42.239   6.515  20.171  0.00  0.00    +0.000 A 
ATOM     26  C   UNL     1      40.905   6.270  19.907  0.00  0.00    +0.000 A 
ATOM     27  C   UNL     1      40.432   6.190  18.614  0.00  0.00    +0.000 A 
ATOM     28  C   UNL     1      41.327   6.361  17.575  0.00  0.00    +0.000 A 
ATOM     29  C   UNL     1      42.666   6.607  17.784  0.00  0.00    +0.000 A 
ATOM     30  C   UNL     1      43.081   6.676  19.099  0.00  0.00    +0.000 A 
BRANCH  25  32
ATOM     31  C   UNL     1      44.036   6.482  21.847  0.00  0.00    +0.000 C 
ATOM     32  O   UNL     1      42.690   6.593  21.482  0.00  0.00    +0.000 OA
ENDBRANCH  25  32
ENDBRANCH  24  28
ENDBRANCH  21  24
ENDBRANCH   1  22
TORSDOF 7
ENDMDL
MODEL 5
REMARK VINA RESULT:      -8.0     24.728     27.985
REMARK  Name = 
REMARK  7 active torsions:
REMARK  status: ('A' for Active; 'I' for Inactive)
REMARK    1  A    between atoms: O_2  and  C_3
REMARK    2  A    between atoms: C_6  and  C_7
REMARK    3  A    between atoms: C_7  and  N_8
REMARK    4  A    between atoms: C_9  and  C_11
REMARK    5  A    between atoms: C_13  and  C_14
REMARK    6  A    between atoms: C_17  and  C_18
REMARK    7  A    between atoms: C_18  and  C_19
REMARK                            x       y       z     vdW  Elec       q    Type
REMARK                         _______ _______ _______ _____ _____    ______ ____
ROOT
ATOM      1  C   UNL     1      12.741  -0.202  26.792  0.00  0.00    +0.000 A 
ATOM      2  C   UNL     1      13.971  -0.223  26.157  0.00  0.00    +0.000 A 
ATOM      3  C   UNL     1      15.153  -0.085  26.863  0.00  0.00    +0.000 A 
ATOM      4  N   UNL     1      15.047   0.070  28.194  0.00  0.00    +0.000 NA
ATOM      5  C   UNL     1      13.879   0.096  28.843  0.00  0.00    +0.000 A 
ATOM      6  C   UNL     1      13.780   0.261  30.214  0.00  0.00    +0.000 A 
ATOM      7  C   UNL     1      12.578   0.291  30.892  0.00  0.00    +0.000 A 
ATOM      8  C   UNL     1      11.421   0.149  30.156  0.00  0.00    +0.000 A 
ATOM      9  C   UNL     1      11.457  -0.015  28.796  0.00  0.00    +0.000 A 
ATOM     10  C   UNL     1      12.688  -0.039  28.165  0.00  0.00    +0.000 A 
ENDROOT
BRANCH   3  11
ATOM     11  C   UNL     1      16.447  -0.117  26.188  0.00  0.00    +0.000 A 
ATOM     12  C   UNL     1      17.039  -1.332  25.910  0.00  0.00    +0.000 A 
ATOM     13  C   UNL     1      18.261  -1.418  25.274  0.00  0.00    +0.000 A 
ATOM     14  C   UNL     1      18.949  -0.286  24.886  0.00  0.00    +0.000 A 
ATOM     15  C   UNL     1      18.363   0.935  25.162  0.00  0.00    +0.000 A 
ATOM     16  C   UNL     1      17.130   1.011  25.805  0.00  0.00    +0.000 A 
BRANCH  14  17
ATOM     17  C   UNL     1      20.273  -0.367  24.193  0.00  0.00    +0.000 C 
BRANCH  17  18
ATOM     18  C   UNL     1      20.119  -0.497  22.700  0.00  0.00    +0.000 C 
ATOM     19  C   UNL     1      21.130   0.393  22.001  0.00  0.00    +0.000 C 
ATOM     20  C   UNL     1      20.393  -1.942  22.321  0.00  0.00    +0.000 C 
ENDBRANCH  17  18
ENDBRANCH  14  17
ENDBRANCH   3  11
BRANCH   1  22
ATOM     21  N   UNL     1      10.742   0.795  25.743  0.00  0.00    +0.000 NA
ATOM     22  C   UNL     1      11.517  -0.362  26.014  0.00  0.00    +0.000 C 
ATOM     23  O   UNL     1      11.199  -1.510  25.618  0.00  0.00    +0.000 OA
BRANCH  21  24
ATOM     24  C   UNL     1       9.522   0.707  24.978  0.00  0.00    +0.000 C 
BRANCH  24  28
ATOM     25  C   UNL     1       6.400   3.200  26.393  0.00  0.00    +0.000 A 
ATOM     26  C   UNL     1       6.247   2.459  25.238  0.00  0.00    +0.000 A 
ATOM     27  C   UNL     1       7.257   1.646  24.768  0.00  0.00    +0.000 A 
ATOM     28  C   UNL     1       8.439   1.586  25.483  0.00  0.00    +0.000 A 
ATOM     29  C   UNL     1       8.641   2.303  26.640  0.00  0.00    +0.000 A 
ATOM     30  C   UNL     1       7.595   3.100  27.061  0.00  0.00    +0.000 A 
BRANCH  25  32
ATOM     31  C   UNL     1       5.376   4.659  28.086  0.00  0.00    +0.000 C 
ATOM     32  O   UNL     1       5.368   4.012  26.845  0.00  0.00    +0.000 OA
ENDBRANCH  25  32
ENDBRANCH  24  28
ENDBRANCH  21  24
ENDBRANCH   1  22
TORSDOF 7
ENDMDL
MODEL 6
REMARK VINA RESULT:      -7.9      3.549      9.821
REMARK  Name = 
REMARK  7 active torsions:
REMARK  status: ('A' for Active; 'I' for Inactive)
REMARK    1  A    between atoms: O_2  and  C_3
REMARK    2  A    between atoms: C_6  and  C_7
REMARK    3  A    between atoms: C_7  and  N_8
REMARK    4  A    between atoms: C_9  and  C_11
REMARK    5  A    between atoms: C_13  and  C_14
REMARK    6  A    between atoms: C_17  and  C_18
REMARK    7  A    between atoms: C_18  and  C_19
REMARK                            x       y       z     vdW  Elec       q    Type
REMARK                         _______ _______ _______ _____ _____    ______ ____
ROOT
ATOM      1  C   UNL     1      36.616   4.528  14.884  0.00  0.00    +0.000 A 
ATOM      2  C   UNL     1      36.167   3.223  14.990  0.00  0.00    +0.000 A 
ATOM      3  C   UNL     1      36.516   2.422  16.063  0.00  0.00    +0.000 A 
ATOM      4  N   UNL     1      37.312   2.973  16.996  0.00  0.00    +0.000 NA
ATOM      5  C   UNL     1      37.766   4.228  16.928  0.00  0.00    +0.000 A 
ATOM      6  C   UNL     1      38.589   4.787  17.892  0.00  0.00    +0.000 A 
ATOM      7  C   UNL     1      39.065   6.080  17.829  0.00  0.00    +0.000 A 
ATOM      8  C   UNL     1      38.696   6.849  16.747  0.00  0.00    +0.000 A 
ATOM      9  C   UNL     1      37.885   6.351  15.761  0.00  0.00    +0.000 A 
ATOM     10  C   UNL     1      37.435   5.047  15.872  0.00  0.00    +0.000 A 
ENDROOT
BRANCH   3  11
ATOM     11  C   UNL     1      36.031   1.049  16.174  0.00  0.00    +0.000 A 
ATOM     12  C   UNL     1      36.521   0.084  15.317  0.00  0.00    +0.000 A 
ATOM     13  C   UNL     1      36.097  -1.228  15.379  0.00  0.00    +0.000 A 
ATOM     14  C   UNL     1      35.160  -1.635  16.306  0.00  0.00    +0.000 A 
ATOM     15  C   UNL     1      34.664  -0.675  17.167  0.00  0.00    +0.000 A 
ATOM     16  C   UNL     1      35.097   0.647  17.095  0.00  0.00    +0.000 A 
BRANCH  14  17
ATOM     17  C   UNL     1      34.696  -3.056  16.385  0.00  0.00    +0.000 C 
BRANCH  17  18
ATOM     18  C   UNL     1      34.750  -3.740  15.044  0.00  0.00    +0.000 C 
ATOM     19  C   UNL     1      35.843  -4.793  15.049  0.00  0.00    +0.000 C 
ATOM     20  C   UNL     1      33.414  -4.422  14.807  0.00  0.00    +0.000 C 
ENDBRANCH  17  18
ENDBRANCH  14  17
ENDBRANCH   3  11
BRANCH   1  22
ATOM     21  N   UNL     1      34.975   6.026  13.810  0.00  0.00    +0.000 NA
ATOM     22  C   UNL     1      36.218   5.344  13.743  0.00  0.00    +0.000 C 
ATOM     23  O   UNL     1      36.986   5.412  12.751  0.00  0.00    +0.000 OA
BRANCH  21  24
ATOM     24  C   UNL     1      34.524   6.852  12.717  0.00  0.00    +0.000 C 
BRANCH  24  28
ATOM     25  C   UNL     1      34.146  10.961  13.687  0.00  0.00    +0.000 A 
ATOM     26  C   UNL     1      34.433  10.561  12.396  0.00  0.00    +0.000 A 
ATOM     27  C   UNL     1      34.559   9.226  12.071  0.00  0.00    +0.000 A 
ATOM     28  C   UNL     1      34.392   8.287  13.071  0.00  0.00    +0.000 A 
ATOM     29  C   UNL     1      34.104   8.633  14.372  0.00  0.00    +0.000 A 
ATOM     30  C   UNL     1      33.990   9.983  14.638  0.00  0.00    +0.000 A 
BRANCH  25  32
ATOM     31  C   UNL     1      33.094  12.821  14.902  0.00  0.00    +0.000 C 
ATOM     32  O   UNL     1      34.025  12.311  13.990  0.00  0.00    +0.000 OA
ENDBRANCH  25  32
ENDBRANCH  24  28
ENDBRANCH  21  24
ENDBRANCH   1  22
TORSDOF 7
ENDMDL
MODEL 7
REMARK VINA RESULT:      -7.9      2.440      2.907
REMARK  Name = 
REMARK  7 active torsions:
REMARK  status: ('A' for Active; 'I' for Inactive)
REMARK    1  A    between atoms: O_2  and  C_3
REMARK    2  A    between atoms: C_6  and  C_7
REMARK    3  A    between atoms: C_7  and  N_8
REMARK    4  A    between atoms: C_9  and  C_11
REMARK    5  A    between atoms: C_13  and  C_14
REMARK    6  A    between atoms: C_17  and  C_18
REMARK    7  A    between atoms: C_18  and  C_19
REMARK                            x       y       z     vdW  Elec       q    Type
REMARK                         _______ _______ _______ _____ _____    ______ ____
ROOT
ATOM      1  C   UNL     1      37.568   3.980  16.173  0.00  0.00    +0.000 A 
ATOM      2  C   UNL     1      38.560   4.352  17.063  0.00  0.00    +0.000 A 
ATOM      3  C   UNL     1      39.056   5.643  17.099  0.00  0.00    +0.000 A 
ATOM      4  N   UNL     1      38.526   6.518  16.227  0.00  0.00    +0.000 NA
ATOM      5  C   UNL     1      37.568   6.198  15.352  0.00  0.00    +0.000 A 
ATOM      6  C   UNL     1      37.030   7.106  14.454  0.00  0.00    +0.000 A 
ATOM      7  C   UNL     1      36.042   6.783  13.546  0.00  0.00    +0.000 A 
ATOM      8  C   UNL     1      35.572   5.488  13.540  0.00  0.00    +0.000 A 
ATOM      9  C   UNL     1      36.066   4.546  14.404  0.00  0.00    +0.000 A 
ATOM     10  C   UNL     1      37.057   4.920  15.296  0.00  0.00    +0.000 A 
ENDROOT
BRANCH   3  11
ATOM     11  C   UNL     1      40.097   6.030  18.047  0.00  0.00    +0.000 A 
ATOM     12  C   UNL     1      41.361   6.331  17.583  0.00  0.00    +0.000 A 
ATOM     13  C   UNL     1      42.381   6.703  18.435  0.00  0.00    +0.000 A 
ATOM     14  C   UNL     1      42.180   6.790  19.797  0.00  0.00    +0.000 A 
ATOM     15  C   UNL     1      40.917   6.490  20.270  0.00  0.00    +0.000 A 
ATOM     16  C   UNL     1      39.895   6.114  19.402  0.00  0.00    +0.000 A 
BRANCH  14  17
ATOM     17  C   UNL     1      43.277   7.195  20.731  0.00  0.00    +0.000 C 
BRANCH  17  18
ATOM     18  C   UNL     1      43.505   6.170  21.810  0.00  0.00    +0.000 C 
ATOM     19  C   UNL     1      44.585   5.196  21.373  0.00  0.00    +0.000 C 
ATOM     20  C   UNL     1      43.975   6.894  23.059  0.00  0.00    +0.000 C 
ENDBRANCH  17  18
ENDBRANCH  14  17
ENDBRANCH   3  11
BRANCH   1  22
ATOM     21  N   UNL     1      37.791   1.631  15.450  0.00  0.00    +0.000 NA
ATOM     22  C   UNL     1      37.064   2.612  16.174  0.00  0.00    +0.000 C 
ATOM     23  O   UNL     1      36.012   2.355  16.810  0.00  0.00    +0.000 OA
BRANCH  21  24
ATOM     24  C   UNL     1      37.347   0.259  15.411  0.00  0.00    +0.000 C 
BRANCH  24  28
ATOM     25  C   UNL     1      40.353  -2.435  14.116  0.00  0.00    +0.000 A 
ATOM     26  C   UNL     1      39.892  -1.433  13.284  0.00  0.00    +0.000 A 
ATOM     27  C   UNL     1      38.913  -0.553  13.695  0.00  0.00    +0.000 A 
ATOM     28  C   UNL     1      38.397  -0.692  14.969  0.00  0.00    +0.000 A 
ATOM     29  C   UNL     1      38.822  -1.672  15.837  0.00  0.00    +0.000 A 
ATOM     30  C   UNL     1      39.803  -2.524  15.371  0.00  0.00    +0.000 A 
BRANCH  25  32
ATOM     31  C   UNL     1      41.853  -3.311  12.377  0.00  0.00    +0.000 C 
ATOM     32  O   UNL     1      41.338  -3.310  13.678  0.00  0.00    +0.000 OA
ENDBRANCH  25  32
ENDBRANCH  24  28
ENDBRANCH  21  24
ENDBRANCH   1  22
TORSDOF 7
ENDMDL
MODEL 8
REMARK VINA RESULT:      -7.9      3.270      7.492
REMARK  Name = 
REMARK  7 active torsions:
REMARK  status: ('A' for Active; 'I' for Inactive)
REMARK    1  A    between atoms: O_2  and  C_3
REMARK    2  A    between atoms: C_6  and  C_7
REMARK    3  A    between atoms: C_7  and  N_8
REMARK    4  A    between atoms: C_9  and  C_11
REMARK    5  A    between atoms: C_13  and  C_14
REMARK    6  A    between atoms: C_17  and  C_18
REMARK    7  A    between atoms: C_18  and  C_19
REMARK                            x       y       z     vdW  Elec       q    Type
REMARK                         _______ _______ _______ _____ _____    ______ ____
ROOT
ATOM      1  C   UNL     1      37.015   5.319  15.086  0.00  0.00    +0.000 A 
ATOM      2  C   UNL     1      37.998   5.838  15.909  0.00  0.00    +0.000 A 
ATOM      3  C   UNL     1      38.479   5.131  16.997  0.00  0.00    +0.000 A 
ATOM      4  N   UNL     1      37.943   3.917  17.215  0.00  0.00    +0.000 NA
ATOM      5  C   UNL     1      36.992   3.383  16.443  0.00  0.00    +0.000 A 
ATOM      6  C   UNL     1      36.443   2.133  16.677  0.00  0.00    +0.000 A 
ATOM      7  C   UNL     1      35.459   1.575  15.886  0.00  0.00    +0.000 A 
ATOM      8  C   UNL     1      35.005   2.307  14.811  0.00  0.00    +0.000 A 
ATOM      9  C   UNL     1      35.510   3.550  14.530  0.00  0.00    +0.000 A 
ATOM     10  C   UNL     1      36.496   4.065  15.354  0.00  0.00    +0.000 A 
ENDROOT
BRANCH   3  11
ATOM     11  C   UNL     1      39.523   5.681  17.857  0.00  0.00    +0.000 A 
ATOM     12  C   UNL     1      40.753   5.998  17.316  0.00  0.00    +0.000 A 
ATOM     13  C   UNL     1      41.774   6.519  18.084  0.00  0.00    +0.000 A 
ATOM     14  C   UNL     1      41.609   6.749  19.435  0.00  0.00    +0.000 A 
ATOM     15  C   UNL     1      40.382   6.434  19.985  0.00  0.00    +0.000 A 
ATOM     16  C   UNL     1      39.358   5.906  19.201  0.00  0.00    +0.000 A 
BRANCH  14  17
ATOM     17  C   UNL     1      42.708   7.318  20.277  0.00  0.00    +0.000 C 
BRANCH  17  18
ATOM     18  C   UNL     1      43.670   6.255  20.740  0.00  0.00    +0.000 C 
ATOM     19  C   UNL     1      45.061   6.557  20.212  0.00  0.00    +0.000 C 
ATOM     20  C   UNL     1      43.705   6.278  22.257  0.00  0.00    +0.000 C 
ENDBRANCH  17  18
ENDBRANCH  14  17
ENDBRANCH   3  11
BRANCH   1  22
ATOM     21  N   UNL     1      35.376   6.883  14.105  0.00  0.00    +0.000 NA
ATOM     22  C   UNL     1      36.541   6.090  13.941  0.00  0.00    +0.000 C 
ATOM     23  O   UNL     1      37.179   6.023  12.862  0.00  0.00    +0.000 OA
BRANCH  21  24
ATOM     24  C   UNL     1      34.857   7.671  13.014  0.00  0.00    +0.000 C 
BRANCH  24  28
ATOM     25  C   UNL     1      33.965  11.664  14.124  0.00  0.00    +0.000 A 
ATOM     26  C   UNL     1      33.781  10.623  15.014  0.00  0.00    +0.000 A 
ATOM     27  C   UNL     1      34.067   9.320  14.662  0.00  0.00    +0.000 A 
ATOM     28  C   UNL     1      34.546   9.073  13.389  0.00  0.00    +0.000 A 
ATOM     29  C   UNL     1      34.746  10.074  12.466  0.00  0.00    +0.000 A 
ATOM     30  C   UNL     1      34.443  11.358  12.874  0.00  0.00    +0.000 A 
BRANCH  25  32
ATOM     31  C   UNL     1      33.780  13.440  15.814  0.00  0.00    +0.000 C 
ATOM     32  O   UNL     1      33.668  12.967  14.502  0.00  0.00    +0.000 OA
ENDBRANCH  25  32
ENDBRANCH  24  28
ENDBRANCH  21  24
ENDBRANCH   1  22
TORSDOF 7
ENDMDL
MODEL 9
REMARK VINA RESULT:      -7.8      3.174      9.051
REMARK  Name = 
REMARK  7 active torsions:
REMARK  status: ('A' for Active; 'I' for Inactive)
REMARK    1  A    between atoms: O_2  and  C_3
REMARK    2  A    between atoms: C_6  and  C_7
REMARK    3  A    between atoms: C_7  and  N_8
REMARK    4  A    between atoms: C_9  and  C_11
REMARK    5  A    between atoms: C_13  and  C_14
REMARK    6  A    between atoms: C_17  and  C_18
REMARK    7  A    between atoms: C_18  and  C_19
REMARK                            x       y       z     vdW  Elec       q    Type
REMARK                         _______ _______ _______ _____ _____    ______ ____
ROOT
ATOM      1  C   UNL     1      37.711   4.547  16.134  0.00  0.00    +0.000 A 
ATOM      2  C   UNL     1      37.346   3.231  16.354  0.00  0.00    +0.000 A 
ATOM      3  C   UNL     1      36.322   2.634  15.641  0.00  0.00    +0.000 A 
ATOM      4  N   UNL     1      35.699   3.395  14.724  0.00  0.00    +0.000 NA
ATOM      5  C   UNL     1      36.022   4.670  14.484  0.00  0.00    +0.000 A 
ATOM      6  C   UNL     1      35.372   5.448  13.540  0.00  0.00    +0.000 A 
ATOM      7  C   UNL     1      35.698   6.765  13.286  0.00  0.00    +0.000 A 
ATOM      8  C   UNL     1      36.724   7.326  14.015  0.00  0.00    +0.000 A 
ATOM      9  C   UNL     1      37.402   6.606  14.963  0.00  0.00    +0.000 A 
ATOM     10  C   UNL     1      37.037   5.288  15.179  0.00  0.00    +0.000 A 
ENDROOT
BRANCH   3  11
ATOM     11  C   UNL     1      35.947   1.241  15.872  0.00  0.00    +0.000 A 
ATOM     12  C   UNL     1      36.517   0.247  15.103  0.00  0.00    +0.000 A 
ATOM     13  C   UNL     1      36.199  -1.084  15.281  0.00  0.00    +0.000 A 
ATOM     14  C   UNL     1      35.291  -1.482  16.241  0.00  0.00    +0.000 A 
ATOM     15  C   UNL     1      34.716  -0.492  17.015  0.00  0.00    +0.000 A 
ATOM     16  C   UNL     1      35.043   0.849  16.827  0.00  0.00    +0.000 A 
BRANCH  14  17
ATOM     17  C   UNL     1      34.941  -2.922  16.445  0.00  0.00    +0.000 C 
BRANCH  17  18
ATOM     18  C   UNL     1      34.742  -3.643  15.137  0.00  0.00    +0.000 C 
ATOM     19  C   UNL     1      35.793  -4.726  14.983  0.00  0.00    +0.000 C 
ATOM     20  C   UNL     1      33.369  -4.292  15.160  0.00  0.00    +0.000 C 
ENDBRANCH  17  18
ENDBRANCH  14  17
ENDBRANCH   3  11
BRANCH   1  22
ATOM     21  N   UNL     1      38.571   5.453  18.263  0.00  0.00    +0.000 NA
ATOM     22  C   UNL     1      38.803   5.138  16.899  0.00  0.00    +0.000 C 
ATOM     23  O   UNL     1      39.900   5.345  16.324  0.00  0.00    +0.000 OA
BRANCH  21  24
ATOM     24  C   UNL     1      39.609   6.037  19.076  0.00  0.00    +0.000 C 
BRANCH  24  28
ATOM     25  C   UNL     1      39.031  10.168  19.831  0.00  0.00    +0.000 A 
ATOM     26  C   UNL     1      39.509   9.730  18.611  0.00  0.00    +0.000 A 
ATOM     27  C   UNL     1      39.702   8.388  18.356  0.00  0.00    +0.000 A 
ATOM     28  C   UNL     1      39.405   7.480  19.355  0.00  0.00    +0.000 A 
ATOM     29  C   UNL     1      38.926   7.864  20.587  0.00  0.00    +0.000 A 
ATOM     30  C   UNL     1      38.753   9.220  20.784  0.00  0.00    +0.000 A 
BRANCH  25  32
ATOM     31  C   UNL     1      38.591  12.067  21.328  0.00  0.00    +0.000 C 
ATOM     32  O   UNL     1      38.846  11.525  20.064  0.00  0.00    +0.000 OA
ENDBRANCH  25  32
ENDBRANCH  24  28
ENDBRANCH  21  24
ENDBRANCH   1  22
TORSDOF 7
ENDMDL
MODEL 10
REMARK VINA RESULT:      -7.8     24.289     28.284
REMARK  Name = 
REMARK  7 active torsions:
REMARK  status: ('A' for Active; 'I' for Inactive)
REMARK    1  A    between atoms: O_2  and  C_3
REMARK    2  A    between atoms: C_6  and  C_7
REMARK    3  A    between atoms: C_7  and  N_8
REMARK    4  A    between atoms: C_9  and  C_11
REMARK    5  A    between atoms: C_13  and  C_14
REMARK    6  A    between atoms: C_17  and  C_18
REMARK    7  A    between atoms: C_18  and  C_19
REMARK                            x       y       z     vdW  Elec       q    Type
REMARK                         _______ _______ _______ _____ _____    ______ ____
ROOT
ATOM      1  C   UNL     1      12.756   0.327  26.816  0.00  0.00    +0.000 A 
ATOM      2  C   UNL     1      12.149  -0.781  26.252  0.00  0.00    +0.000 A 
ATOM      3  C   UNL     1      10.911  -0.697  25.641  0.00  0.00    +0.000 A 
ATOM      4  N   UNL     1      10.326   0.514  25.624  0.00  0.00    +0.000 NA
ATOM      5  C   UNL     1      10.879   1.607  26.159  0.00  0.00    +0.000 A 
ATOM      6  C   UNL     1      10.267   2.849  26.140  0.00  0.00    +0.000 A 
ATOM      7  C   UNL     1      10.830   3.982  26.692  0.00  0.00    +0.000 A 
ATOM      8  C   UNL     1      12.065   3.861  27.291  0.00  0.00    +0.000 A 
ATOM      9  C   UNL     1      12.718   2.657  27.341  0.00  0.00    +0.000 A 
ATOM     10  C   UNL     1      12.110   1.551  26.772  0.00  0.00    +0.000 A 
ENDROOT
BRANCH   3  11
ATOM     11  C   UNL     1      10.280  -1.869  25.040  0.00  0.00    +0.000 A 
ATOM     12  C   UNL     1      11.012  -2.674  24.191  0.00  0.00    +0.000 A 
ATOM     13  C   UNL     1      10.465  -3.793  23.596  0.00  0.00    +0.000 A 
ATOM     14  C   UNL     1       9.154  -4.158  23.826  0.00  0.00    +0.000 A 
ATOM     15  C   UNL     1       8.414  -3.357  24.675  0.00  0.00    +0.000 A 
ATOM     16  C   UNL     1       8.976  -2.229  25.269  0.00  0.00    +0.000 A 
BRANCH  14  17
ATOM     17  C   UNL     1       8.551  -5.371  23.190  0.00  0.00    +0.000 C 
BRANCH  17  18
ATOM     18  C   UNL     1       8.726  -5.366  21.694  0.00  0.00    +0.000 C 
ATOM     19  C   UNL     1       8.471  -6.758  21.144  0.00  0.00    +0.000 C 
ATOM     20  C   UNL     1       7.705  -4.411  21.102  0.00  0.00    +0.000 C 
ENDBRANCH  17  18
ENDBRANCH  14  17
ENDBRANCH   3  11
BRANCH   1  22
ATOM     21  N   UNL     1      15.211   0.188  26.600  0.00  0.00    +0.000 NA
ATOM     22  C   UNL     1      14.068   0.201  27.441  0.00  0.00    +0.000 C 
ATOM     23  O   UNL     1      14.135   0.109  28.692  0.00  0.00    +0.000 OA
BRANCH  21  24
ATOM     24  C   UNL     1      16.537   0.068  27.155  0.00  0.00    +0.000 C 
BRANCH  24  28
ATOM     25  C   UNL     1      19.532  -0.682  24.250  0.00  0.00    +0.000 A 
ATOM     26  C   UNL     1      19.035   0.592  24.444  0.00  0.00    +0.000 A 
ATOM     27  C   UNL     1      18.060   0.847  25.385  0.00  0.00    +0.000 A 
ATOM     28  C   UNL     1      17.583  -0.209  26.140  0.00  0.00    +0.000 A 
ATOM     29  C   UNL     1      18.045  -1.497  25.986  0.00  0.00    +0.000 A 
ATOM     30  C   UNL     1      19.020  -1.691  25.029  0.00  0.00    +0.000 A 
BRANCH  25  32
ATOM     31  C   UNL     1      20.396  -1.864  22.275  0.00  0.00    +0.000 C 
ATOM     32  O   UNL     1      20.513  -0.913  23.295  0.00  0.00    +0.000 OA
ENDBRANCH  25  32
ENDBRANCH  24  28
ENDBRANCH  21  24
ENDBRANCH   1  22
TORSDOF 7
ENDMDL
