MODEL 1
REMARK VINA RESULT:      -7.4      0.000      0.000
REMARK  Name = 
REMARK  2 active torsions:
REMARK  status: ('A' for Active; 'I' for Inactive)
REMARK    1  A    between atoms: C_2  and  C_3
REMARK    2  A    between atoms: C_3  and  C_5
REMARK                            x       y       z     vdW  Elec       q    Type
REMARK                         _______ _______ _______ _____ _____    ______ ____
ROOT
ATOM      1  C   UNL     1      14.853  11.944  35.647  0.00  0.00    +0.000 A 
ATOM      2  C   UNL     1      14.460  12.422  34.444  0.00  0.00    +0.000 A 
ATOM      3  C   UNL     1      15.186  12.172  33.265  0.00  0.00    +0.000 A 
ATOM      4  N   UNL     1      14.762  12.681  32.006  0.00  0.00    +0.000 NA
ATOM      5  N   UNL     1      16.300  11.438  33.329  0.00  0.00    +0.000 NA
ATOM      6  C   UNL     1      16.684  10.965  34.531  0.00  0.00    +0.000 A 
ATOM      7  N   UNL     1      17.748  10.201  34.900  0.00  0.00    +0.000 NA
ATOM      8  C   UNL     1      17.696   9.984  36.228  0.00  0.00    +0.000 A 
ATOM      9  C   UNL     1      18.461   9.306  37.152  0.00  0.00    +0.000 A 
ATOM     10  C   UNL     1      18.140   9.258  38.495  0.00  0.00    +0.000 A 
ATOM     11  C   UNL     1      18.953   8.534  39.500  0.00  0.00    +0.000 C 
ATOM     12  C   UNL     1      17.012   9.908  38.948  0.00  0.00    +0.000 A 
ATOM     13  C   UNL     1      16.583   9.915  40.366  0.00  0.00    +0.000 C 
ATOM     14  C   UNL     1      16.264  10.577  38.006  0.00  0.00    +0.000 A 
ATOM     15  C   UNL     1      16.582  10.624  36.685  0.00  0.00    +0.000 A 
ATOM     16  N   UNL     1      15.960  11.222  35.668  0.00  0.00    +0.000 N 
ENDROOT
BRANCH   1  17
ATOM     17  C   UNL     1      14.038  12.230  36.896  0.00  0.00    +0.000 C 
ATOM     18  C   UNL     1      12.922  13.340  36.450  0.00  0.00    +0.000 C 
BRANCH  17  20
ATOM     19  C   UNL     1      11.629  11.558  37.200  0.00  0.00    +0.000 C 
ATOM     20  C   UNL     1      12.983  11.007  36.773  0.00  0.00    +0.000 C 
ENDBRANCH  17  20
ENDBRANCH   1  17
TORSDOF 2
ENDMDL
MODEL 2
REMARK VINA RESULT:      -6.7     18.021     19.884
REMARK  Name = 
REMARK  2 active torsions:
REMARK  status: ('A' for Active; 'I' for Inactive)
REMARK    1  A    between atoms: C_2  and  C_3
REMARK    2  A    between atoms: C_3  and  C_5
REMARK                            x       y       z     vdW  Elec       q    Type
REMARK                         _______ _______ _______ _____ _____    ______ ____
ROOT
ATOM      1  C   UNL     1      28.251  22.577  29.628  0.00  0.00    +0.000 A 
ATOM      2  C   UNL     1      28.850  22.469  30.836  0.00  0.00    +0.000 A 
ATOM      3  C   UNL     1      30.249  22.462  30.981  0.00  0.00    +0.000 A 
ATOM      4  N   UNL     1      30.866  22.347  32.258  0.00  0.00    +0.000 NA
ATOM      5  N   UNL     1      31.018  22.568  29.893  0.00  0.00    +0.000 NA
ATOM      6  C   UNL     1      30.414  22.677  28.694  0.00  0.00    +0.000 A 
ATOM      7  N   UNL     1      30.921  22.801  27.438  0.00  0.00    +0.000 NA
ATOM      8  C   UNL     1      29.905  22.881  26.557  0.00  0.00    +0.000 A 
ATOM      9  C   UNL     1      29.786  23.015  25.191  0.00  0.00    +0.000 A 
ATOM     10  C   UNL     1      28.564  23.074  24.550  0.00  0.00    +0.000 A 
ATOM     11  C   UNL     1      28.421  23.218  23.082  0.00  0.00    +0.000 C 
ATOM     12  C   UNL     1      27.404  22.996  25.291  0.00  0.00    +0.000 A 
ATOM     13  C   UNL     1      26.047  23.049  24.699  0.00  0.00    +0.000 C 
ATOM     14  C   UNL     1      27.549  22.862  26.653  0.00  0.00    +0.000 A 
ATOM     15  C   UNL     1      28.753  22.805  27.282  0.00  0.00    +0.000 A 
ATOM     16  N   UNL     1      29.045  22.681  28.577  0.00  0.00    +0.000 N 
ENDROOT
BRANCH   1  17
ATOM     17  C   UNL     1      26.737  22.588  29.514  0.00  0.00    +0.000 C 
ATOM     18  C   UNL     1      26.207  21.457  30.571  0.00  0.00    +0.000 C 
BRANCH  17  20
ATOM     19  C   UNL     1      25.637  24.840  29.762  0.00  0.00    +0.000 C 
ATOM     20  C   UNL     1      26.432  23.802  30.541  0.00  0.00    +0.000 C 
ENDBRANCH  17  20
ENDBRANCH   1  17
TORSDOF 2
ENDMDL
MODEL 3
REMARK VINA RESULT:      -6.7      2.262      5.774
REMARK  Name = 
REMARK  2 active torsions:
REMARK  status: ('A' for Active; 'I' for Inactive)
REMARK    1  A    between atoms: C_2  and  C_3
REMARK    2  A    between atoms: C_3  and  C_5
REMARK                            x       y       z     vdW  Elec       q    Type
REMARK                         _______ _______ _______ _____ _____    ______ ____
ROOT
ATOM      1  C   UNL     1      17.987   9.538  39.400  0.00  0.00    +0.000 A 
ATOM      2  C   UNL     1      19.314   9.288  39.490  0.00  0.00    +0.000 A 
ATOM      3  C   UNL     1      20.251   9.899  38.638  0.00  0.00    +0.000 A 
ATOM      4  N   UNL     1      21.644   9.626  38.743  0.00  0.00    +0.000 NA
ATOM      5  N   UNL     1      19.824  10.757  37.707  0.00  0.00    +0.000 NA
ATOM      6  C   UNL     1      18.502  11.002  37.624  0.00  0.00    +0.000 A 
ATOM      7  N   UNL     1      17.786  11.813  36.799  0.00  0.00    +0.000 NA
ATOM      8  C   UNL     1      16.480  11.718  37.111  0.00  0.00    +0.000 A 
ATOM      9  C   UNL     1      15.308  12.278  36.651  0.00  0.00    +0.000 A 
ATOM     10  C   UNL     1      14.074  11.978  37.194  0.00  0.00    +0.000 A 
ATOM     11  C   UNL     1      12.806  12.572  36.709  0.00  0.00    +0.000 C 
ATOM     12  C   UNL     1      13.991  11.083  38.240  0.00  0.00    +0.000 A 
ATOM     13  C   UNL     1      12.717  10.697  38.890  0.00  0.00    +0.000 C 
ATOM     14  C   UNL     1      15.175  10.539  38.682  0.00  0.00    +0.000 A 
ATOM     15  C   UNL     1      16.388  10.835  38.146  0.00  0.00    +0.000 A 
ATOM     16  N   UNL     1      17.605  10.393  38.467  0.00  0.00    +0.000 N 
ENDROOT
BRANCH   1  17
ATOM     17  C   UNL     1      17.007   8.864  40.342  0.00  0.00    +0.000 C 
ATOM     18  C   UNL     1      17.673   7.416  40.709  0.00  0.00    +0.000 C 
BRANCH  17  20
ATOM     19  C   UNL     1      16.288   9.661  42.622  0.00  0.00    +0.000 C 
ATOM     20  C   UNL     1      17.514   9.534  41.727  0.00  0.00    +0.000 C 
ENDBRANCH  17  20
ENDBRANCH   1  17
TORSDOF 2
ENDMDL
MODEL 4
REMARK VINA RESULT:      -6.5      1.988      3.802
REMARK  Name = 
REMARK  2 active torsions:
REMARK  status: ('A' for Active; 'I' for Inactive)
REMARK    1  A    between atoms: C_2  and  C_3
REMARK    2  A    between atoms: C_3  and  C_5
REMARK                            x       y       z     vdW  Elec       q    Type
REMARK                         _______ _______ _______ _____ _____    ______ ____
ROOT
ATOM      1  C   UNL     1      15.728  11.436  36.059  0.00  0.00    +0.000 A 
ATOM      2  C   UNL     1      14.441  11.834  35.933  0.00  0.00    +0.000 A 
ATOM      3  C   UNL     1      13.521  11.744  36.993  0.00  0.00    +0.000 A 
ATOM      4  N   UNL     1      12.171  12.166  36.846  0.00  0.00    +0.000 NA
ATOM      5  N   UNL     1      13.925  11.250  38.167  0.00  0.00    +0.000 NA
ATOM      6  C   UNL     1      15.208  10.856  38.285  0.00  0.00    +0.000 A 
ATOM      7  N   UNL     1      15.896  10.330  39.334  0.00  0.00    +0.000 NA
ATOM      8  C   UNL     1      17.169  10.102  38.959  0.00  0.00    +0.000 A 
ATOM      9  C   UNL     1      18.304   9.601  39.558  0.00  0.00    +0.000 A 
ATOM     10  C   UNL     1      19.510   9.488  38.894  0.00  0.00    +0.000 A 
ATOM     11  C   UNL     1      20.738   8.952  39.525  0.00  0.00    +0.000 C 
ATOM     12  C   UNL     1      19.601   9.888  37.578  0.00  0.00    +0.000 A 
ATOM     13  C   UNL     1      20.847   9.808  36.781  0.00  0.00    +0.000 C 
ATOM     14  C   UNL     1      18.454  10.385  37.002  0.00  0.00    +0.000 A 
ATOM     15  C   UNL     1      17.268  10.495  37.657  0.00  0.00    +0.000 A 
ATOM     16  N   UNL     1      16.089  10.954  37.236  0.00  0.00    +0.000 N 
ENDROOT
BRANCH   1  17
ATOM     17  C   UNL     1      16.693  11.556  34.894  0.00  0.00    +0.000 C 
ATOM     18  C   UNL     1      16.712  10.082  34.183  0.00  0.00    +0.000 C 
BRANCH  17  20
ATOM     19  C   UNL     1      16.062  11.556  32.455  0.00  0.00    +0.000 C 
ATOM     20  C   UNL     1      15.665  12.156  33.797  0.00  0.00    +0.000 C 
ENDBRANCH  17  20
ENDBRANCH   1  17
TORSDOF 2
ENDMDL
MODEL 5
REMARK VINA RESULT:      -6.5     19.089     20.755
REMARK  Name = 
REMARK  2 active torsions:
REMARK  status: ('A' for Active; 'I' for Inactive)
REMARK    1  A    between atoms: C_2  and  C_3
REMARK    2  A    between atoms: C_3  and  C_5
REMARK                            x       y       z     vdW  Elec       q    Type
REMARK                         _______ _______ _______ _____ _____    ______ ____
ROOT
ATOM      1  C   UNL     1      33.879   0.576  35.955  0.00  0.00    +0.000 A 
ATOM      2  C   UNL     1      33.784  -0.643  35.377  0.00  0.00    +0.000 A 
ATOM      3  C   UNL     1      33.634  -0.803  33.987  0.00  0.00    +0.000 A 
ATOM      4  N   UNL     1      33.534  -2.092  33.392  0.00  0.00    +0.000 NA
ATOM      5  N   UNL     1      33.584   0.281  33.207  0.00  0.00    +0.000 NA
ATOM      6  C   UNL     1      33.680   1.491  33.791  0.00  0.00    +0.000 A 
ATOM      7  N   UNL     1      33.668   2.747  33.268  0.00  0.00    +0.000 NA
ATOM      8  C   UNL     1      33.801   3.642  34.264  0.00  0.00    +0.000 A 
ATOM      9  C   UNL     1      33.858   5.015  34.362  0.00  0.00    +0.000 A 
ATOM     10  C   UNL     1      34.008   5.672  35.568  0.00  0.00    +0.000 A 
ATOM     11  C   UNL     1      34.072   7.148  35.688  0.00  0.00    +0.000 C 
ATOM     12  C   UNL     1      34.106   4.941  36.733  0.00  0.00    +0.000 A 
ATOM     13  C   UNL     1      34.269   5.550  38.073  0.00  0.00    +0.000 C 
ATOM     14  C   UNL     1      34.046   3.572  36.609  0.00  0.00    +0.000 A 
ATOM     15  C   UNL     1      33.898   2.927  35.422  0.00  0.00    +0.000 A 
ATOM     16  N   UNL     1      33.827   1.623  35.150  0.00  0.00    +0.000 N 
ENDROOT
BRANCH   1  17
ATOM     17  C   UNL     1      34.048   0.709  37.458  0.00  0.00    +0.000 C 
ATOM     18  C   UNL     1      33.263  -0.574  38.104  0.00  0.00    +0.000 C 
BRANCH  17  20
ATOM     19  C   UNL     1      36.475   1.074  38.023  0.00  0.00    +0.000 C 
ATOM     20  C   UNL     1      35.493  -0.009  37.597  0.00  0.00    +0.000 C 
ENDBRANCH  17  20
ENDBRANCH   1  17
TORSDOF 2
ENDMDL
MODEL 6
REMARK VINA RESULT:      -6.4     20.945     23.652
REMARK  Name = 
REMARK  2 active torsions:
REMARK  status: ('A' for Active; 'I' for Inactive)
REMARK    1  A    between atoms: C_2  and  C_3
REMARK    2  A    between atoms: C_3  and  C_5
REMARK                            x       y       z     vdW  Elec       q    Type
REMARK                         _______ _______ _______ _____ _____    ______ ____
ROOT
ATOM      1  C   UNL     1      33.158  -5.465  32.722  0.00  0.00    +0.000 A 
ATOM      2  C   UNL     1      32.823  -6.776  32.734  0.00  0.00    +0.000 A 
ATOM      3  C   UNL     1      32.127  -7.362  33.807  0.00  0.00    +0.000 A 
ATOM      4  N   UNL     1      31.782  -8.742  33.806  0.00  0.00    +0.000 NA
ATOM      5  N   UNL     1      31.781  -6.604  34.851  0.00  0.00    +0.000 NA
ATOM      6  C   UNL     1      32.117  -5.300  34.832  0.00  0.00    +0.000 A 
ATOM      7  N   UNL     1      31.900  -4.300  35.729  0.00  0.00    +0.000 NA
ATOM      8  C   UNL     1      32.428  -3.157  35.253  0.00  0.00    +0.000 A 
ATOM      9  C   UNL     1      32.522  -1.853  35.687  0.00  0.00    +0.000 A 
ATOM     10  C   UNL     1      33.142  -0.863  34.949  0.00  0.00    +0.000 A 
ATOM     11  C   UNL     1      33.252   0.543  35.403  0.00  0.00    +0.000 C 
ATOM     12  C   UNL     1      33.696  -1.174  33.725  0.00  0.00    +0.000 A 
ATOM     13  C   UNL     1      34.380  -0.187  32.859  0.00  0.00    +0.000 C 
ATOM     14  C   UNL     1      33.588  -2.483  33.313  0.00  0.00    +0.000 A 
ATOM     15  C   UNL     1      32.978  -3.455  34.041  0.00  0.00    +0.000 A 
ATOM     16  N   UNL     1      32.797  -4.749  33.773  0.00  0.00    +0.000 N 
ENDROOT
BRANCH   1  17
ATOM     17  C   UNL     1      33.903  -4.867  31.543  0.00  0.00    +0.000 C 
ATOM     18  C   UNL     1      35.158  -5.877  31.257  0.00  0.00    +0.000 C 
BRANCH  17  20
ATOM     19  C   UNL     1      33.922  -5.601  29.133  0.00  0.00    +0.000 C 
ATOM     20  C   UNL     1      33.014  -5.511  30.352  0.00  0.00    +0.000 C 
ENDBRANCH  17  20
ENDBRANCH   1  17
TORSDOF 2
ENDMDL
MODEL 7
REMARK VINA RESULT:      -6.2     19.901     21.601
REMARK  Name = 
REMARK  2 active torsions:
REMARK  status: ('A' for Active; 'I' for Inactive)
REMARK    1  A    between atoms: C_2  and  C_3
REMARK    2  A    between atoms: C_3  and  C_5
REMARK                            x       y       z     vdW  Elec       q    Type
REMARK                         _______ _______ _______ _____ _____    ______ ____
ROOT
ATOM      1  C   UNL     1      27.561  23.673  25.409  0.00  0.00    +0.000 A 
ATOM      2  C   UNL     1      26.474  23.390  24.654  0.00  0.00    +0.000 A 
ATOM      3  C   UNL     1      26.561  23.170  23.267  0.00  0.00    +0.000 A 
ATOM      4  N   UNL     1      25.411  22.873  22.486  0.00  0.00    +0.000 NA
ATOM      5  N   UNL     1      27.755  23.241  22.670  0.00  0.00    +0.000 NA
ATOM      6  C   UNL     1      28.832  23.523  23.428  0.00  0.00    +0.000 A 
ATOM      7  N   UNL     1      30.148  23.654  23.110  0.00  0.00    +0.000 NA
ATOM      8  C   UNL     1      30.846  23.939  24.226  0.00  0.00    +0.000 A 
ATOM      9  C   UNL     1      32.168  24.174  24.535  0.00  0.00    +0.000 A 
ATOM     10  C   UNL     1      32.597  24.446  25.819  0.00  0.00    +0.000 A 
ATOM     11  C   UNL     1      34.015  24.700  26.166  0.00  0.00    +0.000 C 
ATOM     12  C   UNL     1      31.680  24.490  26.848  0.00  0.00    +0.000 A 
ATOM     13  C   UNL     1      32.039  24.772  28.256  0.00  0.00    +0.000 C 
ATOM     14  C   UNL     1      30.366  24.252  26.514  0.00  0.00    +0.000 A 
ATOM     15  C   UNL     1      29.946  23.984  25.249  0.00  0.00    +0.000 A 
ATOM     16  N   UNL     1      28.722  23.734  24.781  0.00  0.00    +0.000 N 
ENDROOT
BRANCH   1  17
ATOM     17  C   UNL     1      27.427  23.897  26.904  0.00  0.00    +0.000 C 
ATOM     18  C   UNL     1      25.819  23.972  27.197  0.00  0.00    +0.000 C 
BRANCH  17  20
ATOM     19  C   UNL     1      27.690  22.376  28.896  0.00  0.00    +0.000 C 
ATOM     20  C   UNL     1      27.520  22.353  27.382  0.00  0.00    +0.000 C 
ENDBRANCH  17  20
ENDBRANCH   1  17
TORSDOF 2
ENDMDL
MODEL 8
REMARK VINA RESULT:      -6.2     21.152     22.766
REMARK  Name = 
REMARK  2 active torsions:
REMARK  status: ('A' for Active; 'I' for Inactive)
REMARK    1  A    between atoms: C_2  and  C_3
REMARK    2  A    between atoms: C_3  and  C_5
REMARK                            x       y       z     vdW  Elec       q    Type
REMARK                         _______ _______ _______ _____ _____    ______ ____
ROOT
ATOM      1  C   UNL     1      18.822  -8.438  27.272  0.00  0.00    +0.000 A 
ATOM      2  C   UNL     1      17.967  -8.676  28.293  0.00  0.00    +0.000 A 
ATOM      3  C   UNL     1      18.262  -9.590  29.321  0.00  0.00    +0.000 A 
ATOM      4  N   UNL     1      17.354  -9.830  30.389  0.00  0.00    +0.000 NA
ATOM      5  N   UNL     1      19.425 -10.248  29.293  0.00  0.00    +0.000 NA
ATOM      6  C   UNL     1      20.271 -10.006  28.274  0.00  0.00    +0.000 A 
ATOM      7  N   UNL     1      21.501 -10.510  27.985  0.00  0.00    +0.000 NA
ATOM      8  C   UNL     1      21.953  -9.948  26.848  0.00  0.00    +0.000 A 
ATOM      9  C   UNL     1      23.091 -10.047  26.078  0.00  0.00    +0.000 A 
ATOM     10  C   UNL     1      23.277  -9.314  24.923  0.00  0.00    +0.000 A 
ATOM     11  C   UNL     1      24.495  -9.410  24.085  0.00  0.00    +0.000 C 
ATOM     12  C   UNL     1      22.293  -8.442  24.505  0.00  0.00    +0.000 A 
ATOM     13  C   UNL     1      22.397  -7.613  23.283  0.00  0.00    +0.000 C 
ATOM     14  C   UNL     1      21.166  -8.361  25.291  0.00  0.00    +0.000 A 
ATOM     15  C   UNL     1      20.986  -9.084  26.428  0.00  0.00    +0.000 A 
ATOM     16  N   UNL     1      19.961  -9.109  27.282  0.00  0.00    +0.000 N 
ENDROOT
BRANCH   1  17
ATOM     17  C   UNL     1      18.471  -7.438  26.185  0.00  0.00    +0.000 C 
ATOM     18  C   UNL     1      16.847  -7.534  26.006  0.00  0.00    +0.000 C 
BRANCH  17  20
ATOM     19  C   UNL     1      19.141  -5.018  26.387  0.00  0.00    +0.000 C 
ATOM     20  C   UNL     1      18.368  -6.113  27.110  0.00  0.00    +0.000 C 
ENDBRANCH  17  20
ENDBRANCH   1  17
TORSDOF 2
ENDMDL
MODEL 9
REMARK VINA RESULT:      -6.1     21.187     22.845
REMARK  Name = 
REMARK  2 active torsions:
REMARK  status: ('A' for Active; 'I' for Inactive)
REMARK    1  A    between atoms: C_2  and  C_3
REMARK    2  A    between atoms: C_3  and  C_5
REMARK                            x       y       z     vdW  Elec       q    Type
REMARK                         _______ _______ _______ _____ _____    ______ ____
ROOT
ATOM      1  C   UNL     1      19.943  -8.485  26.540  0.00  0.00    +0.000 A 
ATOM      2  C   UNL     1      18.747  -8.051  27.000  0.00  0.00    +0.000 A 
ATOM      3  C   UNL     1      18.265  -6.757  26.731  0.00  0.00    +0.000 A 
ATOM      4  N   UNL     1      17.005  -6.314  27.221  0.00  0.00    +0.000 NA
ATOM      5  N   UNL     1      19.009  -5.924  25.997  0.00  0.00    +0.000 NA
ATOM      6  C   UNL     1      20.198  -6.364  25.543  0.00  0.00    +0.000 A 
ATOM      7  N   UNL     1      21.152  -5.759  24.784  0.00  0.00    +0.000 NA
ATOM      8  C   UNL     1      22.170  -6.618  24.587  0.00  0.00    +0.000 A 
ATOM      9  C   UNL     1      23.377  -6.588  23.924  0.00  0.00    +0.000 A 
ATOM     10  C   UNL     1      24.241  -7.666  23.896  0.00  0.00    +0.000 A 
ATOM     11  C   UNL     1      25.542  -7.648  23.187  0.00  0.00    +0.000 C 
ATOM     12  C   UNL     1      23.898  -8.828  24.554  0.00  0.00    +0.000 A 
ATOM     13  C   UNL     1      24.753 -10.037  24.583  0.00  0.00    +0.000 C 
ATOM     14  C   UNL     1      22.687  -8.833  25.209  0.00  0.00    +0.000 A 
ATOM     15  C   UNL     1      21.839  -7.771  25.235  0.00  0.00    +0.000 A 
ATOM     16  N   UNL     1      20.648  -7.632  25.818  0.00  0.00    +0.000 N 
ENDROOT
BRANCH   1  17
ATOM     17  C   UNL     1      20.425  -9.892  26.846  0.00  0.00    +0.000 C 
ATOM     18  C   UNL     1      20.374 -10.031  28.475  0.00  0.00    +0.000 C 
BRANCH  17  20
ATOM     19  C   UNL     1      19.117 -11.437  25.347  0.00  0.00    +0.000 C 
ATOM     20  C   UNL     1      19.017 -10.669  26.658  0.00  0.00    +0.000 C 
ENDBRANCH  17  20
ENDBRANCH   1  17
TORSDOF 2
ENDMDL
MODEL 10
REMARK VINA RESULT:      -6.0     18.139     19.426
REMARK  Name = 
REMARK  2 active torsions:
REMARK  status: ('A' for Active; 'I' for Inactive)
REMARK    1  A    between atoms: C_2  and  C_3
REMARK    2  A    between atoms: C_3  and  C_5
REMARK                            x       y       z     vdW  Elec       q    Type
REMARK                         _______ _______ _______ _____ _____    ______ ____
ROOT
ATOM      1  C   UNL     1      27.479  23.428  28.113  0.00  0.00    +0.000 A 
ATOM      2  C   UNL     1      26.517  23.526  27.167  0.00  0.00    +0.000 A 
ATOM      3  C   UNL     1      26.728  23.118  25.837  0.00  0.00    +0.000 A 
ATOM      4  N   UNL     1      25.707  23.227  24.853  0.00  0.00    +0.000 NA
ATOM      5  N   UNL     1      27.916  22.614  25.491  0.00  0.00    +0.000 NA
ATOM      6  C   UNL     1      28.869  22.518  26.438  0.00  0.00    +0.000 A 
ATOM      7  N   UNL     1      30.146  22.053  26.387  0.00  0.00    +0.000 NA
ATOM      8  C   UNL     1      30.705  22.161  27.608  0.00  0.00    +0.000 A 
ATOM      9  C   UNL     1      31.929  21.865  28.167  0.00  0.00    +0.000 A 
ATOM     10  C   UNL     1      32.216  22.094  29.498  0.00  0.00    +0.000 A 
ATOM     11  C   UNL     1      33.527  21.781  30.114  0.00  0.00    +0.000 C 
ATOM     12  C   UNL     1      31.251  22.641  30.317  0.00  0.00    +0.000 A 
ATOM     13  C   UNL     1      31.460  22.924  31.756  0.00  0.00    +0.000 C 
ATOM     14  C   UNL     1      30.037  22.928  29.736  0.00  0.00    +0.000 A 
ATOM     15  C   UNL     1      29.757  22.702  28.425  0.00  0.00    +0.000 A 
ATOM     16  N   UNL     1      28.640  22.923  27.730  0.00  0.00    +0.000 N 
ENDROOT
BRANCH   1  17
ATOM     17  C   UNL     1      27.211  23.872  29.539  0.00  0.00    +0.000 C 
ATOM     18  C   UNL     1      26.161  25.122  29.421  0.00  0.00    +0.000 C 
BRANCH  17  20
ATOM     19  C   UNL     1      26.715  21.601  30.510  0.00  0.00    +0.000 C 
ATOM     20  C   UNL     1      26.035  22.818  29.897  0.00  0.00    +0.000 C 
ENDBRANCH  17  20
ENDBRANCH   1  17
TORSDOF 2
ENDMDL
