MODEL 1
REMARK VINA RESULT:      -7.9      0.000      0.000
REMARK  Name = 
REMARK  9 active torsions:
REMARK  status: ('A' for Active; 'I' for Inactive)
REMARK    1  A    between atoms: C_2  and  C_3
REMARK    2  A    between atoms: C_3  and  C_4
REMARK    3  A    between atoms: C_4  and  C_5
REMARK    4  A    between atoms: C_8  and  N_9
REMARK    5  A    between atoms: C_14  and  N_15
REMARK    6  A    between atoms: N_15  and  C_16
REMARK    7  A    between atoms: N_15  and  C_23
REMARK    8  A    between atoms: C_16  and  C_17
REMARK    9  A    between atoms: C_23  and  C_24
REMARK                            x       y       z     vdW  Elec       q    Type
REMARK                         _______ _______ _______ _____ _____    ______ ____
ROOT
ATOM      1  N   UNL     1      38.225   5.215  16.701  0.00  0.00    +0.000 N 
ATOM      2  C   UNL     1      37.698   5.709  15.488  0.00  0.00    +0.000 C 
ATOM      3  O   UNL     1      37.985   6.848  14.987  0.00  0.00    +0.000 OA
ATOM      4  C   UNL     1      36.774   4.716  14.898  0.00  0.00    +0.000 C 
ATOM      5 CL   UNL     1      35.901   4.919  13.395  0.00  0.00    +0.000 Cl
ATOM      6  C   UNL     1      36.751   3.684  15.714  0.00  0.00    +0.000 C 
ATOM      7  C   UNL     1      37.621   3.911  16.854  0.00  0.00    +0.000 C 
ATOM      8  O   UNL     1      37.847   3.160  17.821  0.00  0.00    +0.000 OA
ENDROOT
BRANCH   1  12
ATOM      9  C   UNL     1      40.972   7.019  19.329  0.00  0.00    +0.000 A 
ATOM     10  C   UNL     1      39.652   6.912  19.670  0.00  0.00    +0.000 A 
ATOM     11  C   UNL     1      38.737   6.322  18.799  0.00  0.00    +0.000 A 
ATOM     12  C   UNL     1      39.142   5.835  17.577  0.00  0.00    +0.000 A 
ATOM     13  C   UNL     1      40.473   5.951  17.249  0.00  0.00    +0.000 A 
ATOM     14  C   UNL     1      41.392   6.540  18.116  0.00  0.00    +0.000 A 
BRANCH   9  15
ATOM     15  C   UNL     1      41.915   7.639  20.279  0.00  0.00    +0.000 C 
BRANCH  15  16
ATOM     16  C   UNL     1      43.217   6.836  20.159  0.00  0.00    +0.000 C 
BRANCH  16  18
ATOM     17  C   UNL     1      43.899   6.478  22.491  0.00  0.00    +0.000 C 
ATOM     18  C   UNL     1      43.181   5.839  21.327  0.00  0.00    +0.000 C 
ENDBRANCH  16  18
ENDBRANCH  15  16
ENDBRANCH   9  15
ENDBRANCH   1  12
BRANCH   6  19
ATOM     19  N   UNL     1      35.997   2.466  15.569  0.00  0.00    +0.000 N 
BRANCH  19  20
ATOM     20  C   UNL     1      36.340   1.558  14.511  0.00  0.00    +0.000 C 
BRANCH  20  21
ATOM     21  C   UNL     1      37.682   0.968  14.600  0.00  0.00    +0.000 A 
ATOM     22  C   UNL     1      37.779  -0.324  15.116  0.00  0.00    +0.000 A 
ATOM     23  C   UNL     1      38.983  -0.993  15.248  0.00  0.00    +0.000 A 
ATOM     24  C   UNL     1      40.143  -0.371  14.859  0.00  0.00    +0.000 A 
ATOM     25  C   UNL     1      40.073   0.906  14.347  0.00  0.00    +0.000 A 
ATOM     26  C   UNL     1      38.845   1.581  14.216  0.00  0.00    +0.000 A 
ENDBRANCH  20  21
ENDBRANCH  19  20
BRANCH  19  27
ATOM     27  C   UNL     1      34.912   2.230  16.503  0.00  0.00    +0.000 C 
BRANCH  27  28
ATOM     28  C   UNL     1      35.206   0.917  17.193  0.00  0.00    +0.000 A 
ATOM     29  C   UNL     1      34.503  -0.174  16.731  0.00  0.00    +0.000 A 
ATOM     30  C   UNL     1      34.680  -1.429  17.294  0.00  0.00    +0.000 A 
ATOM     31  C   UNL     1      35.571  -1.587  18.332  0.00  0.00    +0.000 A 
ATOM     32  C   UNL     1      36.259  -0.486  18.776  0.00  0.00    +0.000 A 
ATOM     33  C   UNL     1      36.090   0.784  18.216  0.00  0.00    +0.000 A 
ENDBRANCH  27  28
ENDBRANCH  19  27
ENDBRANCH   6  19
TORSDOF 9
ENDMDL
MODEL 2
REMARK VINA RESULT:      -7.9     22.880     26.364
REMARK  Name = 
REMARK  9 active torsions:
REMARK  status: ('A' for Active; 'I' for Inactive)
REMARK    1  A    between atoms: C_2  and  C_3
REMARK    2  A    between atoms: C_3  and  C_4
REMARK    3  A    between atoms: C_4  and  C_5
REMARK    4  A    between atoms: C_8  and  N_9
REMARK    5  A    between atoms: C_14  and  N_15
REMARK    6  A    between atoms: N_15  and  C_16
REMARK    7  A    between atoms: N_15  and  C_23
REMARK    8  A    between atoms: C_16  and  C_17
REMARK    9  A    between atoms: C_23  and  C_24
REMARK                            x       y       z     vdW  Elec       q    Type
REMARK                         _______ _______ _______ _____ _____    ______ ____
ROOT
ATOM      1  N   UNL     1      16.013  -0.104  27.100  0.00  0.00    +0.000 N 
ATOM      2  C   UNL     1      16.031   0.162  28.487  0.00  0.00    +0.000 C 
ATOM      3  O   UNL     1      17.086   0.415  29.159  0.00  0.00    +0.000 OA
ATOM      4  C   UNL     1      14.656   0.102  29.029  0.00  0.00    +0.000 C 
ATOM      5 CL   UNL     1      14.220   0.371  30.703  0.00  0.00    +0.000 Cl
ATOM      6  C   UNL     1      13.860  -0.184  28.022  0.00  0.00    +0.000 C 
ATOM      7  C   UNL     1      14.619  -0.328  26.793  0.00  0.00    +0.000 C 
ATOM      8  O   UNL     1      14.204  -0.596  25.649  0.00  0.00    +0.000 OA
ENDROOT
BRANCH   1  12
ATOM      9  C   UNL     1      19.219  -0.209  24.377  0.00  0.00    +0.000 A 
ATOM     10  C   UNL     1      18.692  -1.369  24.875  0.00  0.00    +0.000 A 
ATOM     11  C   UNL     1      17.635  -1.338  25.783  0.00  0.00    +0.000 A 
ATOM     12  C   UNL     1      17.099  -0.141  26.199  0.00  0.00    +0.000 A 
ATOM     13  C   UNL     1      17.641   1.016  25.690  0.00  0.00    +0.000 A 
ATOM     14  C   UNL     1      18.698   0.992  24.781  0.00  0.00    +0.000 A 
BRANCH   9  15
ATOM     15  C   UNL     1      20.330  -0.277  23.409  0.00  0.00    +0.000 C 
BRANCH  15  16
ATOM     16  C   UNL     1      20.177   0.956  22.509  0.00  0.00    +0.000 C 
BRANCH  16  18
ATOM     17  C   UNL     1      19.308   1.168  20.223  0.00  0.00    +0.000 C 
ATOM     18  C   UNL     1      20.307   0.424  21.074  0.00  0.00    +0.000 C 
ENDBRANCH  16  18
ENDBRANCH  15  16
ENDBRANCH   9  15
ENDBRANCH   1  12
BRANCH   6  19
ATOM     19  N   UNL     1      12.430  -0.348  28.051  0.00  0.00    +0.000 N 
BRANCH  19  20
ATOM     20  C   UNL     1      11.848  -1.500  27.422  0.00  0.00    +0.000 C 
BRANCH  20  21
ATOM     21  C   UNL     1      12.160  -2.787  28.059  0.00  0.00    +0.000 A 
ATOM     22  C   UNL     1      12.436  -3.865  27.219  0.00  0.00    +0.000 A 
ATOM     23  C   UNL     1      12.748  -5.126  27.694  0.00  0.00    +0.000 A 
ATOM     24  C   UNL     1      12.792  -5.344  29.049  0.00  0.00    +0.000 A 
ATOM     25  C   UNL     1      12.522  -4.294  29.899  0.00  0.00    +0.000 A 
ATOM     26  C   UNL     1      12.205  -3.012  29.409  0.00  0.00    +0.000 A 
ENDBRANCH  20  21
ENDBRANCH  19  20
BRANCH  19  27
ATOM     27  C   UNL     1      11.648   0.682  28.710  0.00  0.00    +0.000 C 
BRANCH  27  28
ATOM     28  C   UNL     1      11.408   1.770  27.688  0.00  0.00    +0.000 A 
ATOM     29  C   UNL     1      12.210   2.884  27.799  0.00  0.00    +0.000 A 
ATOM     30  C   UNL     1      12.074   3.953  26.925  0.00  0.00    +0.000 A 
ATOM     31  C   UNL     1      11.121   3.899  25.932  0.00  0.00    +0.000 A 
ATOM     32  C   UNL     1      10.333   2.780  25.842  0.00  0.00    +0.000 A 
ATOM     33  C   UNL     1      10.461   1.696  26.716  0.00  0.00    +0.000 A 
ENDBRANCH  27  28
ENDBRANCH  19  27
ENDBRANCH   6  19
TORSDOF 9
ENDMDL
MODEL 3
REMARK VINA RESULT:      -7.8     22.700     26.138
REMARK  Name = 
REMARK  9 active torsions:
REMARK  status: ('A' for Active; 'I' for Inactive)
REMARK    1  A    between atoms: C_2  and  C_3
REMARK    2  A    between atoms: C_3  and  C_4
REMARK    3  A    between atoms: C_4  and  C_5
REMARK    4  A    between atoms: C_8  and  N_9
REMARK    5  A    between atoms: C_14  and  N_15
REMARK    6  A    between atoms: N_15  and  C_16
REMARK    7  A    between atoms: N_15  and  C_23
REMARK    8  A    between atoms: C_16  and  C_17
REMARK    9  A    between atoms: C_23  and  C_24
REMARK                            x       y       z     vdW  Elec       q    Type
REMARK                         _______ _______ _______ _____ _____    ______ ____
ROOT
ATOM      1  N   UNL     1      16.332  -0.107  26.846  0.00  0.00    +0.000 N 
ATOM      2  C   UNL     1      16.375   0.119  28.239  0.00  0.00    +0.000 C 
ATOM      3  O   UNL     1      17.449   0.281  28.911  0.00  0.00    +0.000 OA
ATOM      4  C   UNL     1      15.002   0.138  28.789  0.00  0.00    +0.000 C 
ATOM      5 CL   UNL     1      14.593   0.390  30.472  0.00  0.00    +0.000 Cl
ATOM      6  C   UNL     1      14.184  -0.066  27.779  0.00  0.00    +0.000 C 
ATOM      7  C   UNL     1      14.925  -0.228  26.542  0.00  0.00    +0.000 C 
ATOM      8  O   UNL     1      14.487  -0.435  25.394  0.00  0.00    +0.000 OA
ENDROOT
BRANCH   1  12
ATOM      9  C   UNL     1      19.573  -0.367  24.175  0.00  0.00    +0.000 A 
ATOM     10  C   UNL     1      19.086   0.852  24.558  0.00  0.00    +0.000 A 
ATOM     11  C   UNL     1      18.007   0.942  25.437  0.00  0.00    +0.000 A 
ATOM     12  C   UNL     1      17.409  -0.193  25.937  0.00  0.00    +0.000 A 
ATOM     13  C   UNL     1      17.911  -1.410  25.540  0.00  0.00    +0.000 A 
ATOM     14  C   UNL     1      18.989  -1.507  24.662  0.00  0.00    +0.000 A 
BRANCH   9  15
ATOM     15  C   UNL     1      20.723  -0.427  23.252  0.00  0.00    +0.000 C 
BRANCH  15  16
ATOM     16  C   UNL     1      20.604   0.811  22.354  0.00  0.00    +0.000 C 
BRANCH  16  18
ATOM     17  C   UNL     1      19.327   1.253  20.304  0.00  0.00    +0.000 C 
ATOM     18  C   UNL     1      20.260   0.265  20.961  0.00  0.00    +0.000 C 
ENDBRANCH  16  18
ENDBRANCH  15  16
ENDBRANCH   9  15
ENDBRANCH   1  12
BRANCH   6  19
ATOM     19  N   UNL     1      12.746  -0.133  27.814  0.00  0.00    +0.000 N 
BRANCH  19  20
ATOM     20  C   UNL     1      12.020   0.861  28.554  0.00  0.00    +0.000 C 
BRANCH  20  21
ATOM     21  C   UNL     1      11.671   2.072  27.801  0.00  0.00    +0.000 A 
ATOM     22  C   UNL     1      10.321   2.284  27.523  0.00  0.00    +0.000 A 
ATOM     23  C   UNL     1       9.861   3.388  26.828  0.00  0.00    +0.000 A 
ATOM     24  C   UNL     1      10.760   4.326  26.383  0.00  0.00    +0.000 A 
ATOM     25  C   UNL     1      12.100   4.138  26.645  0.00  0.00    +0.000 A 
ATOM     26  C   UNL     1      12.561   3.012  27.354  0.00  0.00    +0.000 A 
ENDBRANCH  20  21
ENDBRANCH  19  20
BRANCH  19  27
ATOM     27  C   UNL     1      12.105  -1.224  27.101  0.00  0.00    +0.000 C 
BRANCH  27  28
ATOM     28  C   UNL     1      12.298  -2.466  27.940  0.00  0.00    +0.000 A 
ATOM     29  C   UNL     1      12.537  -3.630  27.243  0.00  0.00    +0.000 A 
ATOM     30  C   UNL     1      12.718  -4.837  27.904  0.00  0.00    +0.000 A 
ATOM     31  C   UNL     1      12.657  -4.870  29.279  0.00  0.00    +0.000 A 
ATOM     32  C   UNL     1      12.416  -3.700  29.952  0.00  0.00    +0.000 A 
ATOM     33  C   UNL     1      12.233  -2.478  29.297  0.00  0.00    +0.000 A 
ENDBRANCH  27  28
ENDBRANCH  19  27
ENDBRANCH   6  19
TORSDOF 9
ENDMDL
MODEL 4
REMARK VINA RESULT:      -7.8      1.928      4.176
REMARK  Name = 
REMARK  9 active torsions:
REMARK  status: ('A' for Active; 'I' for Inactive)
REMARK    1  A    between atoms: C_2  and  C_3
REMARK    2  A    between atoms: C_3  and  C_4
REMARK    3  A    between atoms: C_4  and  C_5
REMARK    4  A    between atoms: C_8  and  N_9
REMARK    5  A    between atoms: C_14  and  N_15
REMARK    6  A    between atoms: N_15  and  C_16
REMARK    7  A    between atoms: N_15  and  C_23
REMARK    8  A    between atoms: C_16  and  C_17
REMARK    9  A    between atoms: C_23  and  C_24
REMARK                            x       y       z     vdW  Elec       q    Type
REMARK                         _______ _______ _______ _____ _____    ______ ____
ROOT
ATOM      1  N   UNL     1      38.651   4.400  15.047  0.00  0.00    +0.000 N 
ATOM      2  C   UNL     1      38.072   5.059  13.940  0.00  0.00    +0.000 C 
ATOM      3  O   UNL     1      37.847   6.315  13.885  0.00  0.00    +0.000 OA
ATOM      4  C   UNL     1      37.771   4.081  12.873  0.00  0.00    +0.000 C 
ATOM      5 CL   UNL     1      37.049   4.467  11.326  0.00  0.00    +0.000 Cl
ATOM      6  C   UNL     1      38.149   2.902  13.317  0.00  0.00    +0.000 C 
ATOM      7  C   UNL     1      38.704   3.011  14.654  0.00  0.00    +0.000 C 
ATOM      8  O   UNL     1      39.160   2.109  15.383  0.00  0.00    +0.000 OA
ENDROOT
BRANCH   1  12
ATOM      9  C   UNL     1      39.998   6.021  18.689  0.00  0.00    +0.000 A 
ATOM     10  C   UNL     1      38.898   5.209  18.655  0.00  0.00    +0.000 A 
ATOM     11  C   UNL     1      38.444   4.676  17.449  0.00  0.00    +0.000 A 
ATOM     12  C   UNL     1      39.092   4.956  16.267  0.00  0.00    +0.000 A 
ATOM     13  C   UNL     1      40.195   5.775  16.319  0.00  0.00    +0.000 A 
ATOM     14  C   UNL     1      40.654   6.311  17.522  0.00  0.00    +0.000 A 
BRANCH   9  15
ATOM     15  C   UNL     1      40.458   6.559  19.983  0.00  0.00    +0.000 C 
BRANCH  15  16
ATOM     16  C   UNL     1      40.114   8.054  19.961  0.00  0.00    +0.000 C 
BRANCH  16  18
ATOM     17  C   UNL     1      37.737   8.637  19.762  0.00  0.00    +0.000 C 
ATOM     18  C   UNL     1      38.793   8.172  20.735  0.00  0.00    +0.000 C 
ENDBRANCH  16  18
ENDBRANCH  15  16
ENDBRANCH   9  15
ENDBRANCH   1  12
BRANCH   6  19
ATOM     19  N   UNL     1      38.060   1.636  12.636  0.00  0.00    +0.000 N 
BRANCH  19  20
ATOM     20  C   UNL     1      36.829   0.899  12.696  0.00  0.00    +0.000 C 
BRANCH  20  21
ATOM     21  C   UNL     1      36.409   0.490  14.043  0.00  0.00    +0.000 A 
ATOM     22  C   UNL     1      35.605   1.377  14.758  0.00  0.00    +0.000 A 
ATOM     23  C   UNL     1      35.138   1.108  16.032  0.00  0.00    +0.000 A 
ATOM     24  C   UNL     1      35.473  -0.080  16.635  0.00  0.00    +0.000 A 
ATOM     25  C   UNL     1      36.267  -0.972  15.948  0.00  0.00    +0.000 A 
ATOM     26  C   UNL     1      36.738  -0.692  14.651  0.00  0.00    +0.000 A 
ENDBRANCH  20  21
ENDBRANCH  19  20
BRANCH  19  27
ATOM     27  C   UNL     1      39.239   1.166  11.932  0.00  0.00    +0.000 C 
BRANCH  27  28
ATOM     28  C   UNL     1      39.589  -0.183  12.517  0.00  0.00    +0.000 A 
ATOM     29  C   UNL     1      40.313  -0.159  13.689  0.00  0.00    +0.000 A 
ATOM     30  C   UNL     1      40.703  -1.335  14.313  0.00  0.00    +0.000 A 
ATOM     31  C   UNL     1      40.360  -2.545  13.752  0.00  0.00    +0.000 A 
ATOM     32  C   UNL     1      39.641  -2.544  12.584  0.00  0.00    +0.000 A 
ATOM     33  C   UNL     1      39.242  -1.366  11.946  0.00  0.00    +0.000 A 
ENDBRANCH  27  28
ENDBRANCH  19  27
ENDBRANCH   6  19
TORSDOF 9
ENDMDL
MODEL 5
REMARK VINA RESULT:      -7.6      1.687      2.616
REMARK  Name = 
REMARK  9 active torsions:
REMARK  status: ('A' for Active; 'I' for Inactive)
REMARK    1  A    between atoms: C_2  and  C_3
REMARK    2  A    between atoms: C_3  and  C_4
REMARK    3  A    between atoms: C_4  and  C_5
REMARK    4  A    between atoms: C_8  and  N_9
REMARK    5  A    between atoms: C_14  and  N_15
REMARK    6  A    between atoms: N_15  and  C_16
REMARK    7  A    between atoms: N_15  and  C_23
REMARK    8  A    between atoms: C_16  and  C_17
REMARK    9  A    between atoms: C_23  and  C_24
REMARK                            x       y       z     vdW  Elec       q    Type
REMARK                         _______ _______ _______ _____ _____    ______ ____
ROOT
ATOM      1  N   UNL     1      38.670   4.525  15.171  0.00  0.00    +0.000 N 
ATOM      2  C   UNL     1      38.041   5.224  14.117  0.00  0.00    +0.000 C 
ATOM      3  O   UNL     1      37.852   6.486  14.101  0.00  0.00    +0.000 OA
ATOM      4  C   UNL     1      37.641   4.278  13.053  0.00  0.00    +0.000 C 
ATOM      5 CL   UNL     1      36.833   4.718  11.565  0.00  0.00    +0.000 Cl
ATOM      6  C   UNL     1      38.011   3.079  13.449  0.00  0.00    +0.000 C 
ATOM      7  C   UNL     1      38.655   3.143  14.749  0.00  0.00    +0.000 C 
ATOM      8  O   UNL     1      39.128   2.213  15.429  0.00  0.00    +0.000 OA
ENDROOT
BRANCH   1  12
ATOM      9  C   UNL     1      40.238   6.105  18.742  0.00  0.00    +0.000 A 
ATOM     10  C   UNL     1      40.885   6.300  17.553  0.00  0.00    +0.000 A 
ATOM     11  C   UNL     1      40.373   5.772  16.369  0.00  0.00    +0.000 A 
ATOM     12  C   UNL     1      39.206   5.042  16.370  0.00  0.00    +0.000 A 
ATOM     13  C   UNL     1      38.569   4.854  17.574  0.00  0.00    +0.000 A 
ATOM     14  C   UNL     1      39.076   5.379  18.762  0.00  0.00    +0.000 A 
BRANCH   9  15
ATOM     15  C   UNL     1      40.801   6.687  19.975  0.00  0.00    +0.000 C 
BRANCH  15  16
ATOM     16  C   UNL     1      42.324   6.652  19.797  0.00  0.00    +0.000 C 
BRANCH  16  18
ATOM     17  C   UNL     1      44.367   6.173  21.072  0.00  0.00    +0.000 C 
ATOM     18  C   UNL     1      42.865   6.033  21.095  0.00  0.00    +0.000 C 
ENDBRANCH  16  18
ENDBRANCH  15  16
ENDBRANCH   9  15
ENDBRANCH   1  12
BRANCH   6  19
ATOM     19  N   UNL     1      37.839   1.831  12.752  0.00  0.00    +0.000 N 
BRANCH  19  20
ATOM     20  C   UNL     1      38.975   1.228  12.113  0.00  0.00    +0.000 C 
BRANCH  20  21
ATOM     21  C   UNL     1      39.416  -0.048  12.694  0.00  0.00    +0.000 A 
ATOM     22  C   UNL     1      40.416   0.004  13.663  0.00  0.00    +0.000 A 
ATOM     23  C   UNL     1      40.914  -1.125  14.290  0.00  0.00    +0.000 A 
ATOM     24  C   UNL     1      40.414  -2.358  13.953  0.00  0.00    +0.000 A 
ATOM     25  C   UNL     1      39.425  -2.434  12.996  0.00  0.00    +0.000 A 
ATOM     26  C   UNL     1      38.922  -1.282  12.363  0.00  0.00    +0.000 A 
ENDBRANCH  20  21
ENDBRANCH  19  20
BRANCH  19  27
ATOM     27  C   UNL     1      36.506   1.256  12.721  0.00  0.00    +0.000 C 
BRANCH  27  28
ATOM     28  C   UNL     1      36.093   1.035  14.158  0.00  0.00    +0.000 A 
ATOM     29  C   UNL     1      35.270   1.997  14.701  0.00  0.00    +0.000 A 
ATOM     30  C   UNL     1      34.835   1.909  16.015  0.00  0.00    +0.000 A 
ATOM     31  C   UNL     1      35.232   0.841  16.789  0.00  0.00    +0.000 A 
ATOM     32  C   UNL     1      36.052  -0.104  16.228  0.00  0.00    +0.000 A 
ATOM     33  C   UNL     1      36.497  -0.026  14.905  0.00  0.00    +0.000 A 
ENDBRANCH  27  28
ENDBRANCH  19  27
ENDBRANCH   6  19
TORSDOF 9
ENDMDL
MODEL 6
REMARK VINA RESULT:      -7.6      0.551      3.180
REMARK  Name = 
REMARK  9 active torsions:
REMARK  status: ('A' for Active; 'I' for Inactive)
REMARK    1  A    between atoms: C_2  and  C_3
REMARK    2  A    between atoms: C_3  and  C_4
REMARK    3  A    between atoms: C_4  and  C_5
REMARK    4  A    between atoms: C_8  and  N_9
REMARK    5  A    between atoms: C_14  and  N_15
REMARK    6  A    between atoms: N_15  and  C_16
REMARK    7  A    between atoms: N_15  and  C_23
REMARK    8  A    between atoms: C_16  and  C_17
REMARK    9  A    between atoms: C_23  and  C_24
REMARK                            x       y       z     vdW  Elec       q    Type
REMARK                         _______ _______ _______ _____ _____    ______ ____
ROOT
ATOM      1  N   UNL     1      38.283   5.213  16.590  0.00  0.00    +0.000 N 
ATOM      2  C   UNL     1      37.691   5.825  15.463  0.00  0.00    +0.000 C 
ATOM      3  O   UNL     1      37.976   6.998  15.047  0.00  0.00    +0.000 OA
ATOM      4  C   UNL     1      36.705   4.908  14.852  0.00  0.00    +0.000 C 
ATOM      5 CL   UNL     1      35.743   5.263  13.434  0.00  0.00    +0.000 Cl
ATOM      6  C   UNL     1      36.707   3.808  15.574  0.00  0.00    +0.000 C 
ATOM      7  C   UNL     1      37.654   3.914  16.669  0.00  0.00    +0.000 C 
ATOM      8  O   UNL     1      37.923   3.074  17.549  0.00  0.00    +0.000 OA
ENDROOT
BRANCH   1  12
ATOM      9  C   UNL     1      41.246   6.716  19.172  0.00  0.00    +0.000 A 
ATOM     10  C   UNL     1      39.988   6.453  19.638  0.00  0.00    +0.000 A 
ATOM     11  C   UNL     1      39.001   5.962  18.784  0.00  0.00    +0.000 A 
ATOM     12  C   UNL     1      39.271   5.733  17.454  0.00  0.00    +0.000 A 
ATOM     13  C   UNL     1      40.541   6.004  17.002  0.00  0.00    +0.000 A 
ATOM     14  C   UNL     1      41.532   6.495  17.850  0.00  0.00    +0.000 A 
BRANCH   9  15
ATOM     15  C   UNL     1      42.270   7.225  20.104  0.00  0.00    +0.000 C 
BRANCH  15  16
ATOM     16  C   UNL     1      42.642   6.039  21.004  0.00  0.00    +0.000 C 
BRANCH  16  18
ATOM     17  C   UNL     1      45.095   5.927  20.941  0.00  0.00    +0.000 C 
ATOM     18  C   UNL     1      43.927   6.472  21.726  0.00  0.00    +0.000 C 
ENDBRANCH  16  18
ENDBRANCH  15  16
ENDBRANCH   9  15
ENDBRANCH   1  12
BRANCH   6  19
ATOM     19  N   UNL     1      35.913   2.624  15.373  0.00  0.00    +0.000 N 
BRANCH  19  20
ATOM     20  C   UNL     1      34.935   2.266  16.361  0.00  0.00    +0.000 C 
BRANCH  20  21
ATOM     21  C   UNL     1      35.207   1.020  17.090  0.00  0.00    +0.000 A 
ATOM     22  C   UNL     1      34.653  -0.153  16.579  0.00  0.00    +0.000 A 
ATOM     23  C   UNL     1      34.839  -1.391  17.168  0.00  0.00    +0.000 A 
ATOM     24  C   UNL     1      35.599  -1.487  18.308  0.00  0.00    +0.000 A 
ATOM     25  C   UNL     1      36.156  -0.340  18.832  0.00  0.00    +0.000 A 
ATOM     26  C   UNL     1      35.963   0.916  18.227  0.00  0.00    +0.000 A 
ENDBRANCH  20  21
ENDBRANCH  19  20
BRANCH  19  27
ATOM     27  C   UNL     1      36.161   1.843  14.175  0.00  0.00    +0.000 C 
BRANCH  27  28
ATOM     28  C   UNL     1      37.561   1.286  14.298  0.00  0.00    +0.000 A 
ATOM     29  C   UNL     1      38.536   1.951  13.588  0.00  0.00    +0.000 A 
ATOM     30  C   UNL     1      39.856   1.525  13.613  0.00  0.00    +0.000 A 
ATOM     31  C   UNL     1      40.197   0.420  14.361  0.00  0.00    +0.000 A 
ATOM     32  C   UNL     1      39.209  -0.227  15.059  0.00  0.00    +0.000 A 
ATOM     33  C   UNL     1      37.875   0.193  15.041  0.00  0.00    +0.000 A 
ENDBRANCH  27  28
ENDBRANCH  19  27
ENDBRANCH   6  19
TORSDOF 9
ENDMDL
MODEL 7
REMARK VINA RESULT:      -7.6     23.403     26.816
REMARK  Name = 
REMARK  9 active torsions:
REMARK  status: ('A' for Active; 'I' for Inactive)
REMARK    1  A    between atoms: C_2  and  C_3
REMARK    2  A    between atoms: C_3  and  C_4
REMARK    3  A    between atoms: C_4  and  C_5
REMARK    4  A    between atoms: C_8  and  N_9
REMARK    5  A    between atoms: C_14  and  N_15
REMARK    6  A    between atoms: N_15  and  C_16
REMARK    7  A    between atoms: N_15  and  C_23
REMARK    8  A    between atoms: C_16  and  C_17
REMARK    9  A    between atoms: C_23  and  C_24
REMARK                            x       y       z     vdW  Elec       q    Type
REMARK                         _______ _______ _______ _____ _____    ______ ____
ROOT
ATOM      1  N   UNL     1      15.577  -0.075  27.100  0.00  0.00    +0.000 N 
ATOM      2  C   UNL     1      15.589   0.165  28.492  0.00  0.00    +0.000 C 
ATOM      3  O   UNL     1      16.635   0.448  29.166  0.00  0.00    +0.000 OA
ATOM      4  C   UNL     1      14.219   0.039  29.036  0.00  0.00    +0.000 C 
ATOM      5 CL   UNL     1      13.778   0.258  30.716  0.00  0.00    +0.000 Cl
ATOM      6  C   UNL     1      13.432  -0.260  28.025  0.00  0.00    +0.000 C 
ATOM      7  C   UNL     1      14.192  -0.350  26.792  0.00  0.00    +0.000 C 
ATOM      8  O   UNL     1      13.784  -0.612  25.644  0.00  0.00    +0.000 OA
ENDROOT
BRANCH   1  12
ATOM      9  C   UNL     1      18.839  -0.007  24.443  0.00  0.00    +0.000 A 
ATOM     10  C   UNL     1      18.296   1.160  24.906  0.00  0.00    +0.000 A 
ATOM     11  C   UNL     1      17.210   1.142  25.780  0.00  0.00    +0.000 A 
ATOM     12  C   UNL     1      16.661  -0.050  26.196  0.00  0.00    +0.000 A 
ATOM     13  C   UNL     1      17.218  -1.214  25.721  0.00  0.00    +0.000 A 
ATOM     14  C   UNL     1      18.304  -1.202  24.846  0.00  0.00    +0.000 A 
BRANCH   9  15
ATOM     15  C   UNL     1      19.994   0.047  23.527  0.00  0.00    +0.000 C 
BRANCH  15  16
ATOM     16  C   UNL     1      20.172  -1.380  22.994  0.00  0.00    +0.000 C 
BRANCH  16  18
ATOM     17  C   UNL     1      20.486   0.234  21.170  0.00  0.00    +0.000 C 
ATOM     18  C   UNL     1      20.694  -1.209  21.559  0.00  0.00    +0.000 C 
ENDBRANCH  16  18
ENDBRANCH  15  16
ENDBRANCH   9  15
ENDBRANCH   1  12
BRANCH   6  19
ATOM     19  N   UNL     1      12.010  -0.483  28.055  0.00  0.00    +0.000 N 
BRANCH  19  20
ATOM     20  C   UNL     1      11.146   0.590  28.463  0.00  0.00    +0.000 C 
BRANCH  20  21
ATOM     21  C   UNL     1      11.166   1.775  27.596  0.00  0.00    +0.000 A 
ATOM     22  C   UNL     1      11.979   2.839  27.987  0.00  0.00    +0.000 A 
ATOM     23  C   UNL     1      12.090   4.008  27.256  0.00  0.00    +0.000 A 
ATOM     24  C   UNL     1      11.375   4.144  26.092  0.00  0.00    +0.000 A 
ATOM     25  C   UNL     1      10.564   3.107  25.686  0.00  0.00    +0.000 A 
ATOM     26  C   UNL     1      10.456   1.920  26.434  0.00  0.00    +0.000 A 
ENDBRANCH  20  21
ENDBRANCH  19  20
BRANCH  19  27
ATOM     27  C   UNL     1      11.527  -1.799  27.681  0.00  0.00    +0.000 C 
BRANCH  27  28
ATOM     28  C   UNL     1      10.354  -1.585  26.750  0.00  0.00    +0.000 A 
ATOM     29  C   UNL     1      10.665  -1.453  25.414  0.00  0.00    +0.000 A 
ATOM     30  C   UNL     1       9.674  -1.240  24.467  0.00  0.00    +0.000 A 
ATOM     31  C   UNL     1       8.359  -1.161  24.869  0.00  0.00    +0.000 A 
ATOM     32  C   UNL     1       8.074  -1.294  26.204  0.00  0.00    +0.000 A 
ATOM     33  C   UNL     1       9.064  -1.509  27.168  0.00  0.00    +0.000 A 
ENDBRANCH  27  28
ENDBRANCH  19  27
ENDBRANCH   6  19
TORSDOF 9
ENDMDL
MODEL 8
REMARK VINA RESULT:      -7.5      1.609      3.566
REMARK  Name = 
REMARK  9 active torsions:
REMARK  status: ('A' for Active; 'I' for Inactive)
REMARK    1  A    between atoms: C_2  and  C_3
REMARK    2  A    between atoms: C_3  and  C_4
REMARK    3  A    between atoms: C_4  and  C_5
REMARK    4  A    between atoms: C_8  and  N_9
REMARK    5  A    between atoms: C_14  and  N_15
REMARK    6  A    between atoms: N_15  and  C_16
REMARK    7  A    between atoms: N_15  and  C_23
REMARK    8  A    between atoms: C_16  and  C_17
REMARK    9  A    between atoms: C_23  and  C_24
REMARK                            x       y       z     vdW  Elec       q    Type
REMARK                         _______ _______ _______ _____ _____    ______ ____
ROOT
ATOM      1  N   UNL     1      38.638   4.718  15.231  0.00  0.00    +0.000 N 
ATOM      2  C   UNL     1      38.041   5.377  14.134  0.00  0.00    +0.000 C 
ATOM      3  O   UNL     1      37.896   6.642  14.044  0.00  0.00    +0.000 OA
ATOM      4  C   UNL     1      37.617   4.386  13.121  0.00  0.00    +0.000 C 
ATOM      5 CL   UNL     1      36.836   4.768  11.602  0.00  0.00    +0.000 Cl
ATOM      6  C   UNL     1      37.942   3.200  13.588  0.00  0.00    +0.000 C 
ATOM      7  C   UNL     1      38.578   3.316  14.888  0.00  0.00    +0.000 C 
ATOM      8  O   UNL     1      39.013   2.410  15.624  0.00  0.00    +0.000 OA
ENDROOT
BRANCH   1  12
ATOM      9  C   UNL     1      40.229   6.443  18.724  0.00  0.00    +0.000 A 
ATOM     10  C   UNL     1      40.860   6.602  17.521  0.00  0.00    +0.000 A 
ATOM     11  C   UNL     1      40.340   6.026  16.363  0.00  0.00    +0.000 A 
ATOM     12  C   UNL     1      39.182   5.283  16.405  0.00  0.00    +0.000 A 
ATOM     13  C   UNL     1      38.561   5.132  17.622  0.00  0.00    +0.000 A 
ATOM     14  C   UNL     1      39.075   5.706  18.784  0.00  0.00    +0.000 A 
BRANCH   9  15
ATOM     15  C   UNL     1      40.800   7.075  19.929  0.00  0.00    +0.000 C 
BRANCH  15  16
ATOM     16  C   UNL     1      41.642   5.989  20.612  0.00  0.00    +0.000 C 
BRANCH  16  18
ATOM     17  C   UNL     1      43.715   6.370  21.872  0.00  0.00    +0.000 C 
ATOM     18  C   UNL     1      43.093   6.479  20.501  0.00  0.00    +0.000 C 
ENDBRANCH  16  18
ENDBRANCH  15  16
ENDBRANCH   9  15
ENDBRANCH   1  12
BRANCH   6  19
ATOM     19  N   UNL     1      37.732   1.921  12.960  0.00  0.00    +0.000 N 
BRANCH  19  20
ATOM     20  C   UNL     1      36.454   1.281  13.096  0.00  0.00    +0.000 C 
BRANCH  20  21
ATOM     21  C   UNL     1      35.984   1.105  14.476  0.00  0.00    +0.000 A 
ATOM     22  C   UNL     1      36.356  -0.068  15.132  0.00  0.00    +0.000 A 
ATOM     23  C   UNL     1      35.983  -0.352  16.434  0.00  0.00    +0.000 A 
ATOM     24  C   UNL     1      35.213   0.551  17.125  0.00  0.00    +0.000 A 
ATOM     25  C   UNL     1      34.833   1.717  16.497  0.00  0.00    +0.000 A 
ATOM     26  C   UNL     1      35.216   1.999  15.173  0.00  0.00    +0.000 A 
ENDBRANCH  20  21
ENDBRANCH  19  20
BRANCH  19  27
ATOM     27  C   UNL     1      38.843   1.339  12.230  0.00  0.00    +0.000 C 
BRANCH  27  28
ATOM     28  C   UNL     1      39.200   0.049  12.932  0.00  0.00    +0.000 A 
ATOM     29  C   UNL     1      38.699  -1.102  12.364  0.00  0.00    +0.000 A 
ATOM     30  C   UNL     1      38.949  -2.345  12.927  0.00  0.00    +0.000 A 
ATOM     31  C   UNL     1      39.710  -2.429  14.071  0.00  0.00    +0.000 A 
ATOM     32  C   UNL     1      40.197  -1.270  14.620  0.00  0.00    +0.000 A 
ATOM     33  C   UNL     1      39.952  -0.011  14.062  0.00  0.00    +0.000 A 
ENDBRANCH  27  28
ENDBRANCH  19  27
ENDBRANCH   6  19
TORSDOF 9
ENDMDL
MODEL 9
REMARK VINA RESULT:      -7.2      2.509      4.560
REMARK  Name = 
REMARK  9 active torsions:
REMARK  status: ('A' for Active; 'I' for Inactive)
REMARK    1  A    between atoms: C_2  and  C_3
REMARK    2  A    between atoms: C_3  and  C_4
REMARK    3  A    between atoms: C_4  and  C_5
REMARK    4  A    between atoms: C_8  and  N_9
REMARK    5  A    between atoms: C_14  and  N_15
REMARK    6  A    between atoms: N_15  and  C_16
REMARK    7  A    between atoms: N_15  and  C_23
REMARK    8  A    between atoms: C_16  and  C_17
REMARK    9  A    between atoms: C_23  and  C_24
REMARK                            x       y       z     vdW  Elec       q    Type
REMARK                         _______ _______ _______ _____ _____    ______ ____
ROOT
ATOM      1  N   UNL     1      38.494   4.912  15.599  0.00  0.00    +0.000 N 
ATOM      2  C   UNL     1      37.680   5.667  14.726  0.00  0.00    +0.000 C 
ATOM      3  O   UNL     1      37.460   6.918  14.846  0.00  0.00    +0.000 OA
ATOM      4  C   UNL     1      37.133   4.791  13.666  0.00  0.00    +0.000 C 
ATOM      5 CL   UNL     1      36.076   5.315  12.373  0.00  0.00    +0.000 Cl
ATOM      6  C   UNL     1      37.593   3.580  13.895  0.00  0.00    +0.000 C 
ATOM      7  C   UNL     1      38.443   3.568  15.072  0.00  0.00    +0.000 C 
ATOM      8  O   UNL     1      39.047   2.606  15.585  0.00  0.00    +0.000 OA
ENDROOT
BRANCH   1  12
ATOM      9  C   UNL     1      40.602   6.272  18.978  0.00  0.00    +0.000 A 
ATOM     10  C   UNL     1      41.152   6.371  17.730  0.00  0.00    +0.000 A 
ATOM     11  C   UNL     1      40.460   5.915  16.609  0.00  0.00    +0.000 A 
ATOM     12  C   UNL     1      39.209   5.354  16.734  0.00  0.00    +0.000 A 
ATOM     13  C   UNL     1      38.671   5.261  17.996  0.00  0.00    +0.000 A 
ATOM     14  C   UNL     1      39.357   5.716  19.120  0.00  0.00    +0.000 A 
BRANCH   9  15
ATOM     15  C   UNL     1      41.356   6.775  20.142  0.00  0.00    +0.000 C 
BRANCH  15  16
ATOM     16  C   UNL     1      42.838   6.601  19.787  0.00  0.00    +0.000 C 
BRANCH  16  18
ATOM     17  C   UNL     1      44.979   5.969  20.810  0.00  0.00    +0.000 C 
ATOM     18  C   UNL     1      43.532   6.271  21.117  0.00  0.00    +0.000 C 
ENDBRANCH  16  18
ENDBRANCH  15  16
ENDBRANCH   9  15
ENDBRANCH   1  12
BRANCH   6  19
ATOM     19  N   UNL     1      37.339   2.386  13.133  0.00  0.00    +0.000 N 
BRANCH  19  20
ATOM     20  C   UNL     1      36.106   1.679  13.339  0.00  0.00    +0.000 C 
BRANCH  20  21
ATOM     21  C   UNL     1      35.863   1.228  14.716  0.00  0.00    +0.000 A 
ATOM     22  C   UNL     1      36.507   0.063  15.129  0.00  0.00    +0.000 A 
ATOM     23  C   UNL     1      36.367  -0.463  16.401  0.00  0.00    +0.000 A 
ATOM     24  C   UNL     1      35.560   0.178  17.309  0.00  0.00    +0.000 A 
ATOM     25  C   UNL     1      34.912   1.331  16.922  0.00  0.00    +0.000 A 
ATOM     26  C   UNL     1      35.060   1.861  15.627  0.00  0.00    +0.000 A 
ENDBRANCH  20  21
ENDBRANCH  19  20
BRANCH  19  27
ATOM     27  C   UNL     1      38.363   1.951  12.201  0.00  0.00    +0.000 C 
BRANCH  27  28
ATOM     28  C   UNL     1      37.900   2.361  10.821  0.00  0.00    +0.000 A 
ATOM     29  C   UNL     1      37.142   1.434  10.141  0.00  0.00    +0.000 A 
ATOM     30  C   UNL     1      36.671   1.693   8.862  0.00  0.00    +0.000 A 
ATOM     31  C   UNL     1      36.967   2.897   8.263  0.00  0.00    +0.000 A 
ATOM     32  C   UNL     1      37.724   3.805   8.959  0.00  0.00    +0.000 A 
ATOM     33  C   UNL     1      38.204   3.556  10.248  0.00  0.00    +0.000 A 
ENDBRANCH  27  28
ENDBRANCH  19  27
ENDBRANCH   6  19
TORSDOF 9
ENDMDL
MODEL 10
REMARK VINA RESULT:      -7.1      2.113      8.306
REMARK  Name = 
REMARK  9 active torsions:
REMARK  status: ('A' for Active; 'I' for Inactive)
REMARK    1  A    between atoms: C_2  and  C_3
REMARK    2  A    between atoms: C_3  and  C_4
REMARK    3  A    between atoms: C_4  and  C_5
REMARK    4  A    between atoms: C_8  and  N_9
REMARK    5  A    between atoms: C_14  and  N_15
REMARK    6  A    between atoms: N_15  and  C_16
REMARK    7  A    between atoms: N_15  and  C_23
REMARK    8  A    between atoms: C_16  and  C_17
REMARK    9  A    between atoms: C_23  and  C_24
REMARK                            x       y       z     vdW  Elec       q    Type
REMARK                         _______ _______ _______ _____ _____    ______ ____
ROOT
ATOM      1  N   UNL     1      38.193   3.754  15.486  0.00  0.00    +0.000 N 
ATOM      2  C   UNL     1      38.571   4.885  14.729  0.00  0.00    +0.000 C 
ATOM      3  O   UNL     1      38.745   4.882  13.465  0.00  0.00    +0.000 OA
ATOM      4  C   UNL     1      38.732   6.056  15.620  0.00  0.00    +0.000 C 
ATOM      5 CL   UNL     1      39.191   7.662  15.100  0.00  0.00    +0.000 Cl
ATOM      6  C   UNL     1      38.465   5.646  16.841  0.00  0.00    +0.000 C 
ATOM      7  C   UNL     1      38.122   4.235  16.846  0.00  0.00    +0.000 C 
ATOM      8  O   UNL     1      37.814   3.513  17.814  0.00  0.00    +0.000 OA
ENDROOT
BRANCH   1  12
ATOM      9  C   UNL     1      37.412  -0.170  14.182  0.00  0.00    +0.000 A 
ATOM     10  C   UNL     1      38.694   0.307  14.223  0.00  0.00    +0.000 A 
ATOM     11  C   UNL     1      38.956   1.609  14.647  0.00  0.00    +0.000 A 
ATOM     12  C   UNL     1      37.931   2.443  15.033  0.00  0.00    +0.000 A 
ATOM     13  C   UNL     1      36.649   1.949  14.985  0.00  0.00    +0.000 A 
ATOM     14  C   UNL     1      36.380   0.648  14.562  0.00  0.00    +0.000 A 
BRANCH   9  15
ATOM     15  C   UNL     1      37.171  -1.556  13.739  0.00  0.00    +0.000 C 
BRANCH  15  16
ATOM     16  C   UNL     1      36.361  -2.219  14.861  0.00  0.00    +0.000 C 
BRANCH  16  18
ATOM     17  C   UNL     1      38.339  -3.292  15.842  0.00  0.00    +0.000 C 
ATOM     18  C   UNL     1      37.049  -3.569  15.109  0.00  0.00    +0.000 C 
ENDBRANCH  16  18
ENDBRANCH  15  16
ENDBRANCH   9  15
ENDBRANCH   1  12
BRANCH   6  19
ATOM     19  N   UNL     1      38.486   6.424  18.053  0.00  0.00    +0.000 N 
BRANCH  19  20
ATOM     20  C   UNL     1      39.285   5.971  19.157  0.00  0.00    +0.000 C 
BRANCH  20  21
ATOM     21  C   UNL     1      40.715   6.292  19.068  0.00  0.00    +0.000 A 
ATOM     22  C   UNL     1      41.397   6.506  20.265  0.00  0.00    +0.000 A 
ATOM     23  C   UNL     1      42.746   6.810  20.319  0.00  0.00    +0.000 A 
ATOM     24  C   UNL     1      43.459   6.910  19.150  0.00  0.00    +0.000 A 
ATOM     25  C   UNL     1      42.807   6.705  17.954  0.00  0.00    +0.000 A 
ATOM     26  C   UNL     1      41.434   6.395  17.907  0.00  0.00    +0.000 A 
ENDBRANCH  20  21
ENDBRANCH  19  20
BRANCH  19  27
ATOM     27  C   UNL     1      37.676   7.628  18.094  0.00  0.00    +0.000 C 
BRANCH  27  28
ATOM     28  C   UNL     1      38.374   8.592  19.025  0.00  0.00    +0.000 A 
ATOM     29  C   UNL     1      39.362   9.366  18.456  0.00  0.00    +0.000 A 
ATOM     30  C   UNL     1      40.082  10.279  19.214  0.00  0.00    +0.000 A 
ATOM     31  C   UNL     1      39.804  10.413  20.556  0.00  0.00    +0.000 A 
ATOM     32  C   UNL     1      38.817   9.631  21.101  0.00  0.00    +0.000 A 
ATOM     33  C   UNL     1      38.085   8.708  20.348  0.00  0.00    +0.000 A 
ENDBRANCH  27  28
ENDBRANCH  19  27
ENDBRANCH   6  19
TORSDOF 9
ENDMDL
