MODEL 1
REMARK VINA RESULT:      -8.1      0.000      0.000
REMARK  Name = 
REMARK  7 active torsions:
REMARK  status: ('A' for Active; 'I' for Inactive)
REMARK    1  A    between atoms: C_5  and  C_6
REMARK    2  A    between atoms: C_11  and  C_12
REMARK    3  A    between atoms: C_12  and  O_14
REMARK    4  A    between atoms: O_14  and  C_15
REMARK    5  A    between atoms: C_15  and  C_16
REMARK    6  A    between atoms: N_18  and  C_19
REMARK    7  A    between atoms: C_22  and  C_23
REMARK                            x       y       z     vdW  Elec       q    Type
REMARK                         _______ _______ _______ _____ _____    ______ ____
ROOT
ATOM      1  C   UNL     1      36.903   0.954  13.139  0.00  0.00    +0.000 C 
ATOM      2  O   UNL     1      36.407   0.321  12.192  0.00  0.00    +0.000 OA
ENDROOT
BRANCH   1   8
ATOM      3  C   UNL     1      35.996   0.725  15.418  0.00  0.00    +0.000 A 
ATOM      4  C   UNL     1      35.191   1.299  16.414  0.00  0.00    +0.000 A 
ATOM      5  C   UNL     1      34.569   2.511  16.273  0.00  0.00    +0.000 A 
ATOM      6  C   UNL     1      34.711   3.240  15.115  0.00  0.00    +0.000 A 
ATOM      7  C   UNL     1      35.493   2.697  14.126  0.00  0.00    +0.000 A 
ATOM      8  C   UNL     1      36.134   1.452  14.261  0.00  0.00    +0.000 A 
BRANCH   3  13
ATOM      9  C   UNL     1      38.419  -4.391  16.529  0.00  0.00    +0.000 C 
ATOM     10  C   UNL     1      37.819  -3.062  16.237  0.00  0.00    +0.000 A 
ATOM     11  C   UNL     1      36.497  -2.959  15.855  0.00  0.00    +0.000 A 
ATOM     12  C   UNL     1      35.915  -1.740  15.578  0.00  0.00    +0.000 A 
ATOM     13  C   UNL     1      36.648  -0.554  15.675  0.00  0.00    +0.000 A 
ATOM     14  C   UNL     1      37.961  -0.667  16.057  0.00  0.00    +0.000 A 
ATOM     15  C   UNL     1      38.543  -1.892  16.334  0.00  0.00    +0.000 A 
ENDBRANCH   3  13
ENDBRANCH   1   8
BRANCH   1  16
ATOM     16  O   UNL     1      38.269   1.183  13.096  0.00  0.00    +0.000 OA
BRANCH  16  17
ATOM     17  C   UNL     1      38.743   2.496  12.935  0.00  0.00    +0.000 C 
BRANCH  17  18
ATOM     18  C   UNL     1      39.080   3.049  14.265  0.00  0.00    +0.000 C 
ATOM     19  O   UNL     1      39.643   2.263  15.081  0.00  0.00    +0.000 OA
ATOM     20  N   UNL     1      38.807   4.387  14.657  0.00  0.00    +0.000 NA
BRANCH  20  21
ATOM     21  C   UNL     1      39.161   4.856  15.964  0.00  0.00    +0.000 A 
ATOM     22  C   UNL     1      38.447   4.487  17.083  0.00  0.00    +0.000 A 
ATOM     23  C   UNL     1      38.794   4.944  18.339  0.00  0.00    +0.000 A 
ATOM     24  C   UNL     1      39.870   5.792  18.535  0.00  0.00    +0.000 A 
ATOM     25  C   UNL     1      40.583   6.161  17.413  0.00  0.00    +0.000 A 
ATOM     26  C   UNL     1      40.232   5.701  16.159  0.00  0.00    +0.000 A 
BRANCH  24  27
ATOM     27  C   UNL     1      40.242   6.285  19.889  0.00  0.00    +0.000 C 
ATOM     28  C   UNL     1      39.430   7.544  20.223  0.00  0.00    +0.000 C 
ATOM     29  C   UNL     1      41.698   6.704  19.944  0.00  0.00    +0.000 C 
ENDBRANCH  24  27
ENDBRANCH  20  21
ENDBRANCH  17  18
ENDBRANCH  16  17
ENDBRANCH   1  16
TORSDOF 7
ENDMDL
MODEL 2
REMARK VINA RESULT:      -7.9      1.719      3.523
REMARK  Name = 
REMARK  7 active torsions:
REMARK  status: ('A' for Active; 'I' for Inactive)
REMARK    1  A    between atoms: C_5  and  C_6
REMARK    2  A    between atoms: C_11  and  C_12
REMARK    3  A    between atoms: C_12  and  O_14
REMARK    4  A    between atoms: O_14  and  C_15
REMARK    5  A    between atoms: C_15  and  C_16
REMARK    6  A    between atoms: N_18  and  C_19
REMARK    7  A    between atoms: C_22  and  C_23
REMARK                            x       y       z     vdW  Elec       q    Type
REMARK                         _______ _______ _______ _____ _____    ______ ____
ROOT
ATOM      1  C   UNL     1      37.554  -0.325  13.872  0.00  0.00    +0.000 C 
ATOM      2  O   UNL     1      37.108  -0.404  12.715  0.00  0.00    +0.000 OA
ENDROOT
BRANCH   1   8
ATOM      3  C   UNL     1      38.151  -2.412  15.036  0.00  0.00    +0.000 A 
ATOM      4  C   UNL     1      39.188  -3.196  15.563  0.00  0.00    +0.000 A 
ATOM      5  C   UNL     1      40.510  -2.847  15.482  0.00  0.00    +0.000 A 
ATOM      6  C   UNL     1      40.889  -1.678  14.862  0.00  0.00    +0.000 A 
ATOM      7  C   UNL     1      39.890  -0.895  14.340  0.00  0.00    +0.000 A 
ATOM      8  C   UNL     1      38.530  -1.245  14.420  0.00  0.00    +0.000 A 
BRANCH   3  13
ATOM      9  C   UNL     1      32.728  -4.288  15.628  0.00  0.00    +0.000 C 
ATOM     10  C   UNL     1      34.126  -3.812  15.449  0.00  0.00    +0.000 A 
ATOM     11  C   UNL     1      34.639  -2.826  16.266  0.00  0.00    +0.000 A 
ATOM     12  C   UNL     1      35.931  -2.367  16.123  0.00  0.00    +0.000 A 
ATOM     13  C   UNL     1      36.775  -2.887  15.137  0.00  0.00    +0.000 A 
ATOM     14  C   UNL     1      36.255  -3.868  14.331  0.00  0.00    +0.000 A 
ATOM     15  C   UNL     1      34.957  -4.327  14.477  0.00  0.00    +0.000 A 
ENDBRANCH   3  13
ENDBRANCH   1   8
BRANCH   1  16
ATOM     16  O   UNL     1      37.076   0.709  14.661  0.00  0.00    +0.000 OA
BRANCH  16  17
ATOM     17  C   UNL     1      37.127   2.027  14.177  0.00  0.00    +0.000 C 
BRANCH  17  18
ATOM     18  C   UNL     1      38.046   2.813  15.030  0.00  0.00    +0.000 C 
ATOM     19  O   UNL     1      39.227   2.376  15.146  0.00  0.00    +0.000 OA
ATOM     20  N   UNL     1      37.671   4.006  15.703  0.00  0.00    +0.000 NA
BRANCH  20  21
ATOM     21  C   UNL     1      38.614   4.718  16.515  0.00  0.00    +0.000 A 
ATOM     22  C   UNL     1      38.499   4.765  17.887  0.00  0.00    +0.000 A 
ATOM     23  C   UNL     1      39.411   5.454  18.661  0.00  0.00    +0.000 A 
ATOM     24  C   UNL     1      40.482   6.129  18.099  0.00  0.00    +0.000 A 
ATOM     25  C   UNL     1      40.595   6.081  16.725  0.00  0.00    +0.000 A 
ATOM     26  C   UNL     1      39.680   5.391  15.956  0.00  0.00    +0.000 A 
BRANCH  24  27
ATOM     27  C   UNL     1      41.464   6.871  18.935  0.00  0.00    +0.000 C 
ATOM     28  C   UNL     1      42.864   6.751  18.318  0.00  0.00    +0.000 C 
ATOM     29  C   UNL     1      41.571   6.274  20.325  0.00  0.00    +0.000 C 
ENDBRANCH  24  27
ENDBRANCH  20  21
ENDBRANCH  17  18
ENDBRANCH  16  17
ENDBRANCH   1  16
TORSDOF 7
ENDMDL
MODEL 3
REMARK VINA RESULT:      -7.8      1.784      2.514
REMARK  Name = 
REMARK  7 active torsions:
REMARK  status: ('A' for Active; 'I' for Inactive)
REMARK    1  A    between atoms: C_5  and  C_6
REMARK    2  A    between atoms: C_11  and  C_12
REMARK    3  A    between atoms: C_12  and  O_14
REMARK    4  A    between atoms: O_14  and  C_15
REMARK    5  A    between atoms: C_15  and  C_16
REMARK    6  A    between atoms: N_18  and  C_19
REMARK    7  A    between atoms: C_22  and  C_23
REMARK                            x       y       z     vdW  Elec       q    Type
REMARK                         _______ _______ _______ _____ _____    ______ ____
ROOT
ATOM      1  C   UNL     1      36.701   1.146  13.682  0.00  0.00    +0.000 C 
ATOM      2  O   UNL     1      36.337   0.500  12.685  0.00  0.00    +0.000 OA
ENDROOT
BRANCH   1   8
ATOM      3  C   UNL     1      37.248  -0.103  15.734  0.00  0.00    +0.000 A 
ATOM      4  C   UNL     1      36.840  -0.448  17.031  0.00  0.00    +0.000 A 
ATOM      5  C   UNL     1      35.689   0.020  17.606  0.00  0.00    +0.000 A 
ATOM      6  C   UNL     1      34.858   0.873  16.917  0.00  0.00    +0.000 A 
ATOM      7  C   UNL     1      35.237   1.223  15.645  0.00  0.00    +0.000 A 
ATOM      8  C   UNL     1      36.417   0.746  15.045  0.00  0.00    +0.000 A 
BRANCH   3  13
ATOM      9  C   UNL     1      42.249  -2.278  13.852  0.00  0.00    +0.000 C 
ATOM     10  C   UNL     1      40.964  -1.695  14.321  0.00  0.00    +0.000 A 
ATOM     11  C   UNL     1      39.957  -2.511  14.794  0.00  0.00    +0.000 A 
ATOM     12  C   UNL     1      38.756  -1.998  15.236  0.00  0.00    +0.000 A 
ATOM     13  C   UNL     1      38.512  -0.621  15.221  0.00  0.00    +0.000 A 
ATOM     14  C   UNL     1      39.520   0.181  14.750  0.00  0.00    +0.000 A 
ATOM     15  C   UNL     1      40.725  -0.337  14.307  0.00  0.00    +0.000 A 
ENDBRANCH   3  13
ENDBRANCH   1   8
BRANCH   1  16
ATOM     16  O   UNL     1      37.416   2.311  13.451  0.00  0.00    +0.000 OA
BRANCH  16  17
ATOM     17  C   UNL     1      36.759   3.551  13.526  0.00  0.00    +0.000 C 
BRANCH  17  18
ATOM     18  C   UNL     1      37.354   4.340  14.627  0.00  0.00    +0.000 C 
ATOM     19  O   UNL     1      36.770   5.420  14.932  0.00  0.00    +0.000 OA
ATOM     20  N   UNL     1      38.519   3.949  15.340  0.00  0.00    +0.000 NA
BRANCH  20  21
ATOM     21  C   UNL     1      39.041   4.764  16.397  0.00  0.00    +0.000 A 
ATOM     22  C   UNL     1      40.031   5.696  16.172  0.00  0.00    +0.000 A 
ATOM     23  C   UNL     1      40.529   6.476  17.196  0.00  0.00    +0.000 A 
ATOM     24  C   UNL     1      40.061   6.361  18.493  0.00  0.00    +0.000 A 
ATOM     25  C   UNL     1      39.070   5.428  18.717  0.00  0.00    +0.000 A 
ATOM     26  C   UNL     1      38.576   4.650  17.689  0.00  0.00    +0.000 A 
BRANCH  24  27
ATOM     27  C   UNL     1      40.599   7.203  19.597  0.00  0.00    +0.000 C 
ATOM     28  C   UNL     1      41.554   6.371  20.463  0.00  0.00    +0.000 C 
ATOM     29  C   UNL     1      39.495   7.669  20.526  0.00  0.00    +0.000 C 
ENDBRANCH  24  27
ENDBRANCH  20  21
ENDBRANCH  17  18
ENDBRANCH  16  17
ENDBRANCH   1  16
TORSDOF 7
ENDMDL
MODEL 4
REMARK VINA RESULT:      -7.8      2.489      3.963
REMARK  Name = 
REMARK  7 active torsions:
REMARK  status: ('A' for Active; 'I' for Inactive)
REMARK    1  A    between atoms: C_5  and  C_6
REMARK    2  A    between atoms: C_11  and  C_12
REMARK    3  A    between atoms: C_12  and  O_14
REMARK    4  A    between atoms: O_14  and  C_15
REMARK    5  A    between atoms: C_15  and  C_16
REMARK    6  A    between atoms: N_18  and  C_19
REMARK    7  A    between atoms: C_22  and  C_23
REMARK                            x       y       z     vdW  Elec       q    Type
REMARK                         _______ _______ _______ _____ _____    ______ ____
ROOT
ATOM      1  C   UNL     1      37.445  -0.063  15.429  0.00  0.00    +0.000 C 
ATOM      2  O   UNL     1      36.468  -0.185  14.671  0.00  0.00    +0.000 OA
ENDROOT
BRANCH   1   8
ATOM      3  C   UNL     1      38.808  -2.049  15.944  0.00  0.00    +0.000 A 
ATOM      4  C   UNL     1      39.128  -3.026  16.899  0.00  0.00    +0.000 A 
ATOM      5  C   UNL     1      38.581  -3.059  18.154  0.00  0.00    +0.000 A 
ATOM      6  C   UNL     1      37.667  -2.107  18.545  0.00  0.00    +0.000 A 
ATOM      7  C   UNL     1      37.339  -1.142  17.626  0.00  0.00    +0.000 A 
ATOM      8  C   UNL     1      37.894  -1.101  16.334  0.00  0.00    +0.000 A 
BRANCH   3  13
ATOM      9  C   UNL     1      41.482  -1.966  10.833  0.00  0.00    +0.000 C 
ATOM     10  C   UNL     1      40.780  -2.011  12.144  0.00  0.00    +0.000 A 
ATOM     11  C   UNL     1      41.321  -1.388  13.249  0.00  0.00    +0.000 A 
ATOM     12  C   UNL     1      40.692  -1.413  14.476  0.00  0.00    +0.000 A 
ATOM     13  C   UNL     1      39.472  -2.075  14.646  0.00  0.00    +0.000 A 
ATOM     14  C   UNL     1      38.943  -2.691  13.540  0.00  0.00    +0.000 A 
ATOM     15  C   UNL     1      39.577  -2.664  12.310  0.00  0.00    +0.000 A 
ENDBRANCH   3  13
ENDBRANCH   1   8
BRANCH   1  16
ATOM     16  O   UNL     1      38.127   1.143  15.388  0.00  0.00    +0.000 OA
BRANCH  16  17
ATOM     17  C   UNL     1      37.432   2.318  15.053  0.00  0.00    +0.000 C 
BRANCH  17  18
ATOM     18  C   UNL     1      37.621   3.309  16.134  0.00  0.00    +0.000 C 
ATOM     19  O   UNL     1      37.001   3.096  17.216  0.00  0.00    +0.000 OA
ATOM     20  N   UNL     1      38.447   4.459  16.016  0.00  0.00    +0.000 NA
BRANCH  20  21
ATOM     21  C   UNL     1      38.584   5.380  17.106  0.00  0.00    +0.000 A 
ATOM     22  C   UNL     1      37.963   6.610  17.097  0.00  0.00    +0.000 A 
ATOM     23  C   UNL     1      38.102   7.492  18.150  0.00  0.00    +0.000 A 
ATOM     24  C   UNL     1      38.868   7.185  19.262  0.00  0.00    +0.000 A 
ATOM     25  C   UNL     1      39.489   5.953  19.268  0.00  0.00    +0.000 A 
ATOM     26  C   UNL     1      39.347   5.075  18.212  0.00  0.00    +0.000 A 
BRANCH  24  27
ATOM     27  C   UNL     1      39.016   8.136  20.397  0.00  0.00    +0.000 C 
ATOM     28  C   UNL     1      37.801   9.073  20.449  0.00  0.00    +0.000 C 
ATOM     29  C   UNL     1      40.224   9.034  20.210  0.00  0.00    +0.000 C 
ENDBRANCH  24  27
ENDBRANCH  20  21
ENDBRANCH  17  18
ENDBRANCH  16  17
ENDBRANCH   1  16
TORSDOF 7
ENDMDL
MODEL 5
REMARK VINA RESULT:      -7.7      2.156      3.255
REMARK  Name = 
REMARK  7 active torsions:
REMARK  status: ('A' for Active; 'I' for Inactive)
REMARK    1  A    between atoms: C_5  and  C_6
REMARK    2  A    between atoms: C_11  and  C_12
REMARK    3  A    between atoms: C_12  and  O_14
REMARK    4  A    between atoms: O_14  and  C_15
REMARK    5  A    between atoms: C_15  and  C_16
REMARK    6  A    between atoms: N_18  and  C_19
REMARK    7  A    between atoms: C_22  and  C_23
REMARK                            x       y       z     vdW  Elec       q    Type
REMARK                         _______ _______ _______ _____ _____    ______ ____
ROOT
ATOM      1  C   UNL     1      35.916   0.895  15.983  0.00  0.00    +0.000 C 
ATOM      2  O   UNL     1      35.457   0.484  14.903  0.00  0.00    +0.000 OA
ENDROOT
BRANCH   1   8
ATOM      3  C   UNL     1      37.212  -1.013  16.849  0.00  0.00    +0.000 A 
ATOM      4  C   UNL     1      37.505  -1.811  17.965  0.00  0.00    +0.000 A 
ATOM      5  C   UNL     1      36.966  -1.596  19.206  0.00  0.00    +0.000 A 
ATOM      6  C   UNL     1      36.089  -0.557  19.417  0.00  0.00    +0.000 A 
ATOM      7  C   UNL     1      35.788   0.237  18.339  0.00  0.00    +0.000 A 
ATOM      8  C   UNL     1      36.335   0.022  17.061  0.00  0.00    +0.000 A 
BRANCH   3  13
ATOM      9  C   UNL     1      39.810  -1.950  11.784  0.00  0.00    +0.000 C 
ATOM     10  C   UNL     1      39.132  -1.735  13.090  0.00  0.00    +0.000 A 
ATOM     11  C   UNL     1      39.557  -0.738  13.944  0.00  0.00    +0.000 A 
ATOM     12  C   UNL     1      38.947  -0.516  15.160  0.00  0.00    +0.000 A 
ATOM     13  C   UNL     1      37.866  -1.298  15.576  0.00  0.00    +0.000 A 
ATOM     14  C   UNL     1      37.450  -2.286  14.720  0.00  0.00    +0.000 A 
ATOM     15  C   UNL     1      38.065  -2.507  13.500  0.00  0.00    +0.000 A 
ENDBRANCH   3  13
ENDBRANCH   1   8
BRANCH   1  16
ATOM     16  O   UNL     1      36.025   2.267  16.139  0.00  0.00    +0.000 OA
BRANCH  16  17
ATOM     17  C   UNL     1      36.770   3.011  15.208  0.00  0.00    +0.000 C 
BRANCH  17  18
ATOM     18  C   UNL     1      37.910   3.644  15.906  0.00  0.00    +0.000 C 
ATOM     19  O   UNL     1      39.038   3.088  15.771  0.00  0.00    +0.000 OA
ATOM     20  N   UNL     1      37.798   4.818  16.698  0.00  0.00    +0.000 NA
BRANCH  20  21
ATOM     21  C   UNL     1      38.947   5.378  17.348  0.00  0.00    +0.000 A 
ATOM     22  C   UNL     1      39.057   5.415  18.720  0.00  0.00    +0.000 A 
ATOM     23  C   UNL     1      40.166   5.957  19.338  0.00  0.00    +0.000 A 
ATOM     24  C   UNL     1      41.219   6.487  18.611  0.00  0.00    +0.000 A 
ATOM     25  C   UNL     1      41.107   6.448  17.237  0.00  0.00    +0.000 A 
ATOM     26  C   UNL     1      39.996   5.906  16.625  0.00  0.00    +0.000 A 
BRANCH  24  27
ATOM     27  C   UNL     1      42.414   7.071  19.278  0.00  0.00    +0.000 C 
ATOM     28  C   UNL     1      43.649   6.878  18.388  0.00  0.00    +0.000 C 
ATOM     29  C   UNL     1      42.725   6.357  20.579  0.00  0.00    +0.000 C 
ENDBRANCH  24  27
ENDBRANCH  20  21
ENDBRANCH  17  18
ENDBRANCH  16  17
ENDBRANCH   1  16
TORSDOF 7
ENDMDL
MODEL 6
REMARK VINA RESULT:      -7.6      2.260      4.025
REMARK  Name = 
REMARK  7 active torsions:
REMARK  status: ('A' for Active; 'I' for Inactive)
REMARK    1  A    between atoms: C_5  and  C_6
REMARK    2  A    between atoms: C_11  and  C_12
REMARK    3  A    between atoms: C_12  and  O_14
REMARK    4  A    between atoms: O_14  and  C_15
REMARK    5  A    between atoms: C_15  and  C_16
REMARK    6  A    between atoms: N_18  and  C_19
REMARK    7  A    between atoms: C_22  and  C_23
REMARK                            x       y       z     vdW  Elec       q    Type
REMARK                         _______ _______ _______ _____ _____    ______ ____
ROOT
ATOM      1  C   UNL     1      35.789  -1.340  16.491  0.00  0.00    +0.000 C 
ATOM      2  O   UNL     1      35.813  -1.186  17.724  0.00  0.00    +0.000 OA
ENDROOT
BRANCH   1   8
ATOM      3  C   UNL     1      36.318  -3.318  15.122  0.00  0.00    +0.000 A 
ATOM      4  C   UNL     1      35.820  -4.477  14.510  0.00  0.00    +0.000 A 
ATOM      5  C   UNL     1      34.514  -4.879  14.609  0.00  0.00    +0.000 A 
ATOM      6  C   UNL     1      33.608  -4.140  15.336  0.00  0.00    +0.000 A 
ATOM      7  C   UNL     1      34.075  -3.001  15.943  0.00  0.00    +0.000 A 
ATOM      8  C   UNL     1      35.414  -2.581  15.845  0.00  0.00    +0.000 A 
BRANCH   3  13
ATOM      9  C   UNL     1      41.912  -2.093  14.418  0.00  0.00    +0.000 C 
ATOM     10  C   UNL     1      40.473  -2.408  14.627  0.00  0.00    +0.000 A 
ATOM     11  C   UNL     1      39.541  -2.100  13.657  0.00  0.00    +0.000 A 
ATOM     12  C   UNL     1      38.202  -2.381  13.824  0.00  0.00    +0.000 A 
ATOM     13  C   UNL     1      37.735  -2.994  14.991  0.00  0.00    +0.000 A 
ATOM     14  C   UNL     1      38.670  -3.297  15.948  0.00  0.00    +0.000 A 
ATOM     15  C   UNL     1      40.014  -3.013  15.778  0.00  0.00    +0.000 A 
ENDBRANCH   3  13
ENDBRANCH   1   8
BRANCH   1  16
ATOM     16  O   UNL     1      36.147  -0.250  15.714  0.00  0.00    +0.000 OA
BRANCH  16  17
ATOM     17  C   UNL     1      35.619   1.016  16.016  0.00  0.00    +0.000 C 
BRANCH  17  18
ATOM     18  C   UNL     1      36.734   1.975  16.169  0.00  0.00    +0.000 C 
ATOM     19  O   UNL     1      37.851   1.629  15.686  0.00  0.00    +0.000 OA
ATOM     20  N   UNL     1      36.611   3.234  16.815  0.00  0.00    +0.000 NA
BRANCH  20  21
ATOM     21  C   UNL     1      37.736   4.115  16.928  0.00  0.00    +0.000 A 
ATOM     22  C   UNL     1      38.378   4.616  15.817  0.00  0.00    +0.000 A 
ATOM     23  C   UNL     1      39.462   5.463  15.935  0.00  0.00    +0.000 A 
ATOM     24  C   UNL     1      39.955   5.849  17.170  0.00  0.00    +0.000 A 
ATOM     25  C   UNL     1      39.311   5.346  18.281  0.00  0.00    +0.000 A 
ATOM     26  C   UNL     1      38.228   4.499  18.158  0.00  0.00    +0.000 A 
BRANCH  24  27
ATOM     27  C   UNL     1      41.124   6.762  17.295  0.00  0.00    +0.000 C 
ATOM     28  C   UNL     1      42.121   6.484  16.162  0.00  0.00    +0.000 C 
ATOM     29  C   UNL     1      41.882   6.514  18.584  0.00  0.00    +0.000 C 
ENDBRANCH  24  27
ENDBRANCH  20  21
ENDBRANCH  17  18
ENDBRANCH  16  17
ENDBRANCH   1  16
TORSDOF 7
ENDMDL
MODEL 7
REMARK VINA RESULT:      -7.6      2.029      3.857
REMARK  Name = 
REMARK  7 active torsions:
REMARK  status: ('A' for Active; 'I' for Inactive)
REMARK    1  A    between atoms: C_5  and  C_6
REMARK    2  A    between atoms: C_11  and  C_12
REMARK    3  A    between atoms: C_12  and  O_14
REMARK    4  A    between atoms: O_14  and  C_15
REMARK    5  A    between atoms: C_15  and  C_16
REMARK    6  A    between atoms: N_18  and  C_19
REMARK    7  A    between atoms: C_22  and  C_23
REMARK                            x       y       z     vdW  Elec       q    Type
REMARK                         _______ _______ _______ _____ _____    ______ ____
ROOT
ATOM      1  C   UNL     1      38.948   0.563  14.272  0.00  0.00    +0.000 C 
ATOM      2  O   UNL     1      38.528   0.859  13.141  0.00  0.00    +0.000 OA
ENDROOT
BRANCH   1   8
ATOM      3  C   UNL     1      39.116  -1.673  15.292  0.00  0.00    +0.000 A 
ATOM      4  C   UNL     1      39.942  -2.779  15.543  0.00  0.00    +0.000 A 
ATOM      5  C   UNL     1      41.234  -2.870  15.099  0.00  0.00    +0.000 A 
ATOM      6  C   UNL     1      41.796  -1.849  14.367  0.00  0.00    +0.000 A 
ATOM      7  C   UNL     1      41.006  -0.756  14.110  0.00  0.00    +0.000 A 
ATOM      8  C   UNL     1      39.678  -0.654  14.564  0.00  0.00    +0.000 A 
BRANCH   3  13
ATOM      9  C   UNL     1      33.735  -1.782  17.368  0.00  0.00    +0.000 C 
ATOM     10  C   UNL     1      35.112  -1.753  16.807  0.00  0.00    +0.000 A 
ATOM     11  C   UNL     1      36.163  -1.267  17.557  0.00  0.00    +0.000 A 
ATOM     12  C   UNL     1      37.450  -1.230  17.063  0.00  0.00    +0.000 A 
ATOM     13  C   UNL     1      37.739  -1.686  15.774  0.00  0.00    +0.000 A 
ATOM     14  C   UNL     1      36.687  -2.167  15.037  0.00  0.00    +0.000 A 
ATOM     15  C   UNL     1      35.397  -2.204  15.536  0.00  0.00    +0.000 A 
ENDBRANCH   3  13
ENDBRANCH   1   8
BRANCH   1  16
ATOM     16  O   UNL     1      38.690   1.462  15.294  0.00  0.00    +0.000 OA
BRANCH  16  17
ATOM     17  C   UNL     1      37.438   2.096  15.356  0.00  0.00    +0.000 C 
BRANCH  17  18
ATOM     18  C   UNL     1      37.565   3.325  16.170  0.00  0.00    +0.000 C 
ATOM     19  O   UNL     1      36.518   3.730  16.754  0.00  0.00    +0.000 OA
ATOM     20  N   UNL     1      38.777   4.050  16.323  0.00  0.00    +0.000 NA
BRANCH  20  21
ATOM     21  C   UNL     1      38.827   5.235  17.128  0.00  0.00    +0.000 A 
ATOM     22  C   UNL     1      39.167   5.190  18.463  0.00  0.00    +0.000 A 
ATOM     23  C   UNL     1      39.211   6.336  19.231  0.00  0.00    +0.000 A 
ATOM     24  C   UNL     1      38.919   7.581  18.701  0.00  0.00    +0.000 A 
ATOM     25  C   UNL     1      38.579   7.624  17.365  0.00  0.00    +0.000 A 
ATOM     26  C   UNL     1      38.536   6.475  16.601  0.00  0.00    +0.000 A 
BRANCH  24  27
ATOM     27  C   UNL     1      38.968   8.816  19.531  0.00  0.00    +0.000 C 
ATOM     28  C   UNL     1      40.421   9.117  19.925  0.00  0.00    +0.000 C 
ATOM     29  C   UNL     1      38.214   8.636  20.834  0.00  0.00    +0.000 C 
ENDBRANCH  24  27
ENDBRANCH  20  21
ENDBRANCH  17  18
ENDBRANCH  16  17
ENDBRANCH   1  16
TORSDOF 7
ENDMDL
MODEL 8
REMARK VINA RESULT:      -7.5     23.518     26.171
REMARK  Name = 
REMARK  7 active torsions:
REMARK  status: ('A' for Active; 'I' for Inactive)
REMARK    1  A    between atoms: C_5  and  C_6
REMARK    2  A    between atoms: C_11  and  C_12
REMARK    3  A    between atoms: C_12  and  O_14
REMARK    4  A    between atoms: O_14  and  C_15
REMARK    5  A    between atoms: C_15  and  C_16
REMARK    6  A    between atoms: N_18  and  C_19
REMARK    7  A    between atoms: C_22  and  C_23
REMARK                            x       y       z     vdW  Elec       q    Type
REMARK                         _______ _______ _______ _____ _____    ______ ____
ROOT
ATOM      1  C   UNL     1      12.983   0.906  27.411  0.00  0.00    +0.000 C 
ATOM      2  O   UNL     1      12.637  -0.062  26.712  0.00  0.00    +0.000 OA
ENDROOT
BRANCH   1   8
ATOM      3  C   UNL     1      11.654   1.459  29.410  0.00  0.00    +0.000 A 
ATOM      4  C   UNL     1      10.715   2.332  29.979  0.00  0.00    +0.000 A 
ATOM      5  C   UNL     1      10.207   3.422  29.324  0.00  0.00    +0.000 A 
ATOM      6  C   UNL     1      10.607   3.716  28.040  0.00  0.00    +0.000 A 
ATOM      7  C   UNL     1      11.525   2.874  27.464  0.00  0.00    +0.000 A 
ATOM      8  C   UNL     1      12.051   1.752  28.129  0.00  0.00    +0.000 A 
BRANCH   3  13
ATOM      9  C   UNL     1      13.497  -2.996  32.579  0.00  0.00    +0.000 C 
ATOM     10  C   UNL     1      13.047  -1.836  31.764  0.00  0.00    +0.000 A 
ATOM     11  C   UNL     1      11.985  -1.963  30.892  0.00  0.00    +0.000 A 
ATOM     12  C   UNL     1      11.547  -0.905  30.124  0.00  0.00    +0.000 A 
ATOM     13  C   UNL     1      12.166   0.346  30.203  0.00  0.00    +0.000 A 
ATOM     14  C   UNL     1      13.219   0.462  31.073  0.00  0.00    +0.000 A 
ATOM     15  C   UNL     1      13.658  -0.602  31.842  0.00  0.00    +0.000 A 
ENDBRANCH   3  13
ENDBRANCH   1   8
BRANCH   1  16
ATOM     16  O   UNL     1      14.341   1.170  27.493  0.00  0.00    +0.000 OA
BRANCH  16  17
ATOM     17  C   UNL     1      15.238   0.109  27.702  0.00  0.00    +0.000 C 
BRANCH  17  18
ATOM     18  C   UNL     1      16.174   0.043  26.559  0.00  0.00    +0.000 C 
ATOM     19  O   UNL     1      15.664  -0.155  25.418  0.00  0.00    +0.000 OA
ATOM     20  N   UNL     1      17.582   0.189  26.680  0.00  0.00    +0.000 NA
BRANCH  20  21
ATOM     21  C   UNL     1      18.431   0.112  25.527  0.00  0.00    +0.000 A 
ATOM     22  C   UNL     1      18.838  -1.096  25.007  0.00  0.00    +0.000 A 
ATOM     23  C   UNL     1      19.657  -1.161  23.898  0.00  0.00    +0.000 A 
ATOM     24  C   UNL     1      20.105  -0.020  23.255  0.00  0.00    +0.000 A 
ATOM     25  C   UNL     1      19.696   1.190  23.777  0.00  0.00    +0.000 A 
ATOM     26  C   UNL     1      18.878   1.249  24.888  0.00  0.00    +0.000 A 
BRANCH  24  27
ATOM     27  C   UNL     1      20.988  -0.091  22.058  0.00  0.00    +0.000 C 
ATOM     28  C   UNL     1      20.244   0.460  20.834  0.00  0.00    +0.000 C 
ATOM     29  C   UNL     1      21.342  -1.526  21.718  0.00  0.00    +0.000 C 
ENDBRANCH  24  27
ENDBRANCH  20  21
ENDBRANCH  17  18
ENDBRANCH  16  17
ENDBRANCH   1  16
TORSDOF 7
ENDMDL
MODEL 9
REMARK VINA RESULT:      -7.3     23.978     26.437
REMARK  Name = 
REMARK  7 active torsions:
REMARK  status: ('A' for Active; 'I' for Inactive)
REMARK    1  A    between atoms: C_5  and  C_6
REMARK    2  A    between atoms: C_11  and  C_12
REMARK    3  A    between atoms: C_12  and  O_14
REMARK    4  A    between atoms: O_14  and  C_15
REMARK    5  A    between atoms: C_15  and  C_16
REMARK    6  A    between atoms: N_18  and  C_19
REMARK    7  A    between atoms: C_22  and  C_23
REMARK                            x       y       z     vdW  Elec       q    Type
REMARK                         _______ _______ _______ _____ _____    ______ ____
ROOT
ATOM      1  C   UNL     1      25.221  18.086  35.126  0.00  0.00    +0.000 C 
ATOM      2  O   UNL     1      24.167  18.701  35.364  0.00  0.00    +0.000 OA
ENDROOT
BRANCH   1   8
ATOM      3  C   UNL     1      25.576  15.649  35.098  0.00  0.00    +0.000 A 
ATOM      4  C   UNL     1      25.633  14.490  34.310  0.00  0.00    +0.000 A 
ATOM      5  C   UNL     1      25.399  14.485  32.961  0.00  0.00    +0.000 A 
ATOM      6  C   UNL     1      25.089  15.651  32.300  0.00  0.00    +0.000 A 
ATOM      7  C   UNL     1      25.028  16.798  33.052  0.00  0.00    +0.000 A 
ATOM      8  C   UNL     1      25.269  16.813  34.438  0.00  0.00    +0.000 A 
BRANCH   3  13
ATOM      9  C   UNL     1      26.330  15.373  40.811  0.00  0.00    +0.000 C 
ATOM     10  C   UNL     1      26.160  15.433  39.335  0.00  0.00    +0.000 A 
ATOM     11  C   UNL     1      24.899  15.453  38.775  0.00  0.00    +0.000 A 
ATOM     12  C   UNL     1      24.713  15.508  37.410  0.00  0.00    +0.000 A 
ATOM     13  C   UNL     1      25.803  15.547  36.536  0.00  0.00    +0.000 A 
ATOM     14  C   UNL     1      27.052  15.528  37.102  0.00  0.00    +0.000 A 
ATOM     15  C   UNL     1      27.236  15.472  38.473  0.00  0.00    +0.000 A 
ENDBRANCH   3  13
ENDBRANCH   1   8
BRANCH   1  16
ATOM     16  O   UNL     1      26.401  18.673  35.554  0.00  0.00    +0.000 OA
BRANCH  16  17
ATOM     17  C   UNL     1      27.446  18.871  34.636  0.00  0.00    +0.000 C 
BRANCH  17  18
ATOM     18  C   UNL     1      28.555  17.949  34.968  0.00  0.00    +0.000 C 
ATOM     19  O   UNL     1      29.204  18.199  36.024  0.00  0.00    +0.000 OA
ATOM     20  N   UNL     1      28.912  16.826  34.175  0.00  0.00    +0.000 NA
BRANCH  20  21
ATOM     21  C   UNL     1      30.001  15.974  34.557  0.00  0.00    +0.000 A 
ATOM     22  C   UNL     1      29.801  14.839  35.310  0.00  0.00    +0.000 A 
ATOM     23  C   UNL     1      30.855  14.025  35.675  0.00  0.00    +0.000 A 
ATOM     24  C   UNL     1      32.158  14.309  35.303  0.00  0.00    +0.000 A 
ATOM     25  C   UNL     1      32.355  15.447  34.549  0.00  0.00    +0.000 A 
ATOM     26  C   UNL     1      31.298  16.257  34.187  0.00  0.00    +0.000 A 
BRANCH  24  27
ATOM     27  C   UNL     1      33.293  13.430  35.697  0.00  0.00    +0.000 C 
ATOM     28  C   UNL     1      33.215  13.127  37.199  0.00  0.00    +0.000 C 
ATOM     29  C   UNL     1      34.626  14.120  35.482  0.00  0.00    +0.000 C 
ENDBRANCH  24  27
ENDBRANCH  20  21
ENDBRANCH  17  18
ENDBRANCH  16  17
ENDBRANCH   1  16
TORSDOF 7
ENDMDL
MODEL 10
REMARK VINA RESULT:      -6.8      2.724      8.251
REMARK  Name = 
REMARK  7 active torsions:
REMARK  status: ('A' for Active; 'I' for Inactive)
REMARK    1  A    between atoms: C_5  and  C_6
REMARK    2  A    between atoms: C_11  and  C_12
REMARK    3  A    between atoms: C_12  and  O_14
REMARK    4  A    between atoms: O_14  and  C_15
REMARK    5  A    between atoms: C_15  and  C_16
REMARK    6  A    between atoms: N_18  and  C_19
REMARK    7  A    between atoms: C_22  and  C_23
REMARK                            x       y       z     vdW  Elec       q    Type
REMARK                         _______ _______ _______ _____ _____    ______ ____
ROOT
ATOM      1  C   UNL     1      38.188   7.387  15.762  0.00  0.00    +0.000 C 
ATOM      2  O   UNL     1      39.108   7.650  14.970  0.00  0.00    +0.000 OA
ENDROOT
BRANCH   1   8
ATOM      3  C   UNL     1      37.921   8.681  17.841  0.00  0.00    +0.000 A 
ATOM      4  C   UNL     1      37.155   9.634  18.529  0.00  0.00    +0.000 A 
ATOM      5  C   UNL     1      36.059  10.251  17.988  0.00  0.00    +0.000 A 
ATOM      6  C   UNL     1      35.649   9.955  16.708  0.00  0.00    +0.000 A 
ATOM      7  C   UNL     1      36.384   9.024  16.016  0.00  0.00    +0.000 A 
ATOM      8  C   UNL     1      37.510   8.384  16.565  0.00  0.00    +0.000 A 
BRANCH   3  13
ATOM      9  C   UNL     1      42.454   6.359  20.550  0.00  0.00    +0.000 C 
ATOM     10  C   UNL     1      41.302   6.971  19.835  0.00  0.00    +0.000 A 
ATOM     11  C   UNL     1      40.068   6.356  19.841  0.00  0.00    +0.000 A 
ATOM     12  C   UNL     1      38.983   6.901  19.188  0.00  0.00    +0.000 A 
ATOM     13  C   UNL     1      39.095   8.106  18.488  0.00  0.00    +0.000 A 
ATOM     14  C   UNL     1      40.327   8.710  18.488  0.00  0.00    +0.000 A 
ATOM     15  C   UNL     1      41.414   8.160  19.146  0.00  0.00    +0.000 A 
ENDBRANCH   3  13
ENDBRANCH   1   8
BRANCH   1  16
ATOM     16  O   UNL     1      37.807   6.058  15.866  0.00  0.00    +0.000 OA
BRANCH  16  17
ATOM     17  C   UNL     1      38.159   5.158  14.845  0.00  0.00    +0.000 C 
BRANCH  17  18
ATOM     18  C   UNL     1      37.741   3.796  15.245  0.00  0.00    +0.000 C 
ATOM     19  O   UNL     1      38.592   3.103  15.874  0.00  0.00    +0.000 OA
ATOM     20  N   UNL     1      36.462   3.248  14.962  0.00  0.00    +0.000 NA
BRANCH  20  21
ATOM     21  C   UNL     1      36.125   1.918  15.380  0.00  0.00    +0.000 A 
ATOM     22  C   UNL     1      36.558   0.810  14.686  0.00  0.00    +0.000 A 
ATOM     23  C   UNL     1      36.228  -0.467  15.095  0.00  0.00    +0.000 A 
ATOM     24  C   UNL     1      35.449  -0.695  16.216  0.00  0.00    +0.000 A 
ATOM     25  C   UNL     1      35.015   0.416  16.909  0.00  0.00    +0.000 A 
ATOM     26  C   UNL     1      35.348   1.691  16.496  0.00  0.00    +0.000 A 
BRANCH  24  27
ATOM     27  C   UNL     1      35.093  -2.072  16.655  0.00  0.00    +0.000 C 
ATOM     28  C   UNL     1      36.167  -2.603  17.615  0.00  0.00    +0.000 C 
ATOM     29  C   UNL     1      35.070  -3.037  15.484  0.00  0.00    +0.000 C 
ENDBRANCH  24  27
ENDBRANCH  20  21
ENDBRANCH  17  18
ENDBRANCH  16  17
ENDBRANCH   1  16
TORSDOF 7
ENDMDL
