MODEL 1
REMARK VINA RESULT:      -7.2      0.000      0.000
REMARK  Name = 
REMARK  3 active torsions:
REMARK  status: ('A' for Active; 'I' for Inactive)
REMARK    1  A    between atoms: C_2  and  O_3
REMARK    2  A    between atoms: O_3  and  C_4
REMARK    3  A    between atoms: C_7  and  C_8
REMARK                            x       y       z     vdW  Elec       q    Type
REMARK                         _______ _______ _______ _____ _____    ______ ____
ROOT
ATOM      1  C   UNL     1      16.942  10.635  35.968  0.00  0.00    +0.000 A 
ATOM      2  C   UNL     1      16.266  10.538  37.155  0.00  0.00    +0.000 A 
ATOM      3  C   UNL     1      17.151  10.186  38.155  0.00  0.00    +0.000 A 
ATOM      4  C   UNL     1      17.005   9.956  39.527  0.00  0.00    +0.000 A 
ATOM      5  C   UNL     1      18.105   9.610  40.286  0.00  0.00    +0.000 A 
ATOM      6  C   UNL     1      18.019   9.352  41.748  0.00  0.00    +0.000 C 
ATOM      7  N   UNL     1      19.292   9.506  39.666  0.00  0.00    +0.000 NA
ATOM      8  C   UNL     1      19.419   9.733  38.332  0.00  0.00    +0.000 A 
ATOM      9  O   UNL     1      20.531   9.636  37.749  0.00  0.00    +0.000 OA
ATOM     10  N   UNL     1      18.357  10.071  37.574  0.00  0.00    +0.000 N 
ATOM     11  C   UNL     1      18.255  10.339  36.251  0.00  0.00    +0.000 A 
ENDROOT
BRANCH   1  15
ATOM     12  C   UNL     1      15.517  11.613  32.064  0.00  0.00    +0.000 A 
ATOM     13  C   UNL     1      16.548  10.725  32.278  0.00  0.00    +0.000 A 
ATOM     14  C   UNL     1      17.020  10.398  33.525  0.00  0.00    +0.000 A 
ATOM     15  C   UNL     1      16.449  10.974  34.640  0.00  0.00    +0.000 A 
ATOM     16  C   UNL     1      15.409  11.872  34.447  0.00  0.00    +0.000 A 
ATOM     17  C   UNL     1      14.951  12.186  33.186  0.00  0.00    +0.000 A 
BRANCH  12  18
ATOM     18  O   UNL     1      15.056  11.929  30.777  0.00  0.00    +0.000 OA
BRANCH  18  20
ATOM     19  C   UNL     1      16.455  13.749  30.151  0.00  0.00    +0.000 C 
ATOM     20  C   UNL     1      15.051  13.294  30.402  0.00  0.00    +0.000 C 
ENDBRANCH  18  20
ENDBRANCH  12  18
ENDBRANCH   1  15
TORSDOF 3
ENDMDL
MODEL 2
REMARK VINA RESULT:      -7.1      2.461      7.725
REMARK  Name = 
REMARK  3 active torsions:
REMARK  status: ('A' for Active; 'I' for Inactive)
REMARK    1  A    between atoms: C_2  and  O_3
REMARK    2  A    between atoms: O_3  and  C_4
REMARK    3  A    between atoms: C_7  and  C_8
REMARK                            x       y       z     vdW  Elec       q    Type
REMARK                         _______ _______ _______ _____ _____    ______ ____
ROOT
ATOM      1  C   UNL     1      16.391  10.905  35.479  0.00  0.00    +0.000 A 
ATOM      2  C   UNL     1      15.527  11.952  35.299  0.00  0.00    +0.000 A 
ATOM      3  C   UNL     1      15.258  12.093  33.951  0.00  0.00    +0.000 A 
ATOM      4  C   UNL     1      14.461  12.979  33.219  0.00  0.00    +0.000 A 
ATOM      5  C   UNL     1      14.392  12.866  31.845  0.00  0.00    +0.000 A 
ATOM      6  C   UNL     1      13.565  13.776  31.009  0.00  0.00    +0.000 C 
ATOM      7  N   UNL     1      15.107  11.894  31.256  0.00  0.00    +0.000 NA
ATOM      8  C   UNL     1      15.877  11.040  31.979  0.00  0.00    +0.000 A 
ATOM      9  O   UNL     1      16.548  10.128  31.427  0.00  0.00    +0.000 OA
ATOM     10  N   UNL     1      15.958  11.133  33.321  0.00  0.00    +0.000 N 
ATOM     11  C   UNL     1      16.650  10.403  34.226  0.00  0.00    +0.000 A 
ENDROOT
BRANCH   1  15
ATOM     12  C   UNL     1      18.047   9.352  39.096  0.00  0.00    +0.000 A 
ATOM     13  C   UNL     1      16.905  10.122  39.071  0.00  0.00    +0.000 A 
ATOM     14  C   UNL     1      16.357  10.630  37.920  0.00  0.00    +0.000 A 
ATOM     15  C   UNL     1      16.963  10.371  36.708  0.00  0.00    +0.000 A 
ATOM     16  C   UNL     1      18.115   9.597  36.710  0.00  0.00    +0.000 A 
ATOM     17  C   UNL     1      18.647   9.097  37.878  0.00  0.00    +0.000 A 
BRANCH  12  18
ATOM     18  O   UNL     1      18.585   8.846  40.289  0.00  0.00    +0.000 OA
BRANCH  18  20
ATOM     19  C   UNL     1      17.299   6.975  41.001  0.00  0.00    +0.000 C 
ATOM     20  C   UNL     1      18.611   7.440  40.449  0.00  0.00    +0.000 C 
ENDBRANCH  18  20
ENDBRANCH  12  18
ENDBRANCH   1  15
TORSDOF 3
ENDMDL
MODEL 3
REMARK VINA RESULT:      -7.1      2.948      8.063
REMARK  Name = 
REMARK  3 active torsions:
REMARK  status: ('A' for Active; 'I' for Inactive)
REMARK    1  A    between atoms: C_2  and  O_3
REMARK    2  A    between atoms: O_3  and  C_4
REMARK    3  A    between atoms: C_7  and  C_8
REMARK                            x       y       z     vdW  Elec       q    Type
REMARK                         _______ _______ _______ _____ _____    ______ ____
ROOT
ATOM      1  C   UNL     1      15.471  11.567  36.051  0.00  0.00    +0.000 A 
ATOM      2  C   UNL     1      15.818  11.217  34.773  0.00  0.00    +0.000 A 
ATOM      3  C   UNL     1      15.185  12.061  33.883  0.00  0.00    +0.000 A 
ATOM      4  C   UNL     1      15.180  12.155  32.487  0.00  0.00    +0.000 A 
ATOM      5  C   UNL     1      14.428  13.132  31.866  0.00  0.00    +0.000 A 
ATOM      6  C   UNL     1      14.379  13.285  30.388  0.00  0.00    +0.000 C 
ATOM      7  N   UNL     1      13.717  13.967  32.641  0.00  0.00    +0.000 NA
ATOM      8  C   UNL     1      13.730  13.865  33.995  0.00  0.00    +0.000 A 
ATOM      9  O   UNL     1      13.064  14.648  34.723  0.00  0.00    +0.000 OA
ATOM     10  N   UNL     1      14.458  12.918  34.621  0.00  0.00    +0.000 N 
ATOM     11  C   UNL     1      14.617  12.638  35.935  0.00  0.00    +0.000 A 
ENDROOT
BRANCH   1  15
ATOM     12  C   UNL     1      16.689   9.842  39.762  0.00  0.00    +0.000 A 
ATOM     13  C   UNL     1      17.544   9.980  38.690  0.00  0.00    +0.000 A 
ATOM     14  C   UNL     1      17.172  10.532  37.490  0.00  0.00    +0.000 A 
ATOM     15  C   UNL     1      15.878  10.980  37.321  0.00  0.00    +0.000 A 
ATOM     16  C   UNL     1      15.001  10.850  38.388  0.00  0.00    +0.000 A 
ATOM     17  C   UNL     1      15.396  10.293  39.584  0.00  0.00    +0.000 A 
BRANCH  12  18
ATOM     18  O   UNL     1      17.098   9.273  40.977  0.00  0.00    +0.000 OA
BRANCH  18  20
ATOM     19  C   UNL     1      16.485   9.925  43.183  0.00  0.00    +0.000 C 
ATOM     20  C   UNL     1      16.117   9.106  41.984  0.00  0.00    +0.000 C 
ENDBRANCH  18  20
ENDBRANCH  12  18
ENDBRANCH   1  15
TORSDOF 3
ENDMDL
MODEL 4
REMARK VINA RESULT:      -7.1      1.391      2.089
REMARK  Name = 
REMARK  3 active torsions:
REMARK  status: ('A' for Active; 'I' for Inactive)
REMARK    1  A    between atoms: C_2  and  O_3
REMARK    2  A    between atoms: O_3  and  C_4
REMARK    3  A    between atoms: C_7  and  C_8
REMARK                            x       y       z     vdW  Elec       q    Type
REMARK                         _______ _______ _______ _____ _____    ______ ____
ROOT
ATOM      1  C   UNL     1      17.177  10.421  35.806  0.00  0.00    +0.000 A 
ATOM      2  C   UNL     1      18.446  10.002  36.104  0.00  0.00    +0.000 A 
ATOM      3  C   UNL     1      18.532   9.740  37.457  0.00  0.00    +0.000 A 
ATOM      4  C   UNL     1      19.569   9.295  38.284  0.00  0.00    +0.000 A 
ATOM      5  C   UNL     1      19.344   9.122  39.635  0.00  0.00    +0.000 A 
ATOM      6  C   UNL     1      20.402   8.653  40.569  0.00  0.00    +0.000 C 
ATOM      7  N   UNL     1      18.117   9.393  40.109  0.00  0.00    +0.000 NA
ATOM      8  C   UNL     1      17.119   9.823  39.295  0.00  0.00    +0.000 A 
ATOM      9  O   UNL     1      15.968  10.077  39.739  0.00  0.00    +0.000 OA
ATOM     10  N   UNL     1      17.318   9.999  37.973  0.00  0.00    +0.000 N 
ATOM     11  C   UNL     1      16.482  10.412  36.992  0.00  0.00    +0.000 A 
ENDROOT
BRANCH   1  15
ATOM     12  C   UNL     1      15.474  11.585  32.067  0.00  0.00    +0.000 A 
ATOM     13  C   UNL     1      15.067  12.122  33.270  0.00  0.00    +0.000 A 
ATOM     14  C   UNL     1      15.602  11.761  34.481  0.00  0.00    +0.000 A 
ATOM     15  C   UNL     1      16.602  10.812  34.526  0.00  0.00    +0.000 A 
ATOM     16  C   UNL     1      17.026  10.258  33.326  0.00  0.00    +0.000 A 
ATOM     17  C   UNL     1      16.475  10.636  32.121  0.00  0.00    +0.000 A 
BRANCH  12  18
ATOM     18  O   UNL     1      14.908  11.974  30.844  0.00  0.00    +0.000 OA
BRANCH  18  20
ATOM     19  C   UNL     1      16.409  13.689  30.160  0.00  0.00    +0.000 C 
ATOM     20  C   UNL     1      14.990  13.342  30.491  0.00  0.00    +0.000 C 
ENDBRANCH  18  20
ENDBRANCH  12  18
ENDBRANCH   1  15
TORSDOF 3
ENDMDL
MODEL 5
REMARK VINA RESULT:      -6.5      2.445      8.033
REMARK  Name = 
REMARK  3 active torsions:
REMARK  status: ('A' for Active; 'I' for Inactive)
REMARK    1  A    between atoms: C_2  and  O_3
REMARK    2  A    between atoms: O_3  and  C_4
REMARK    3  A    between atoms: C_7  and  C_8
REMARK                            x       y       z     vdW  Elec       q    Type
REMARK                         _______ _______ _______ _____ _____    ______ ____
ROOT
ATOM      1  C   UNL     1      16.974  10.397  37.311  0.00  0.00    +0.000 A 
ATOM      2  C   UNL     1      17.446   9.909  36.122  0.00  0.00    +0.000 A 
ATOM      3  C   UNL     1      16.760  10.506  35.082  0.00  0.00    +0.000 A 
ATOM      4  C   UNL     1      16.832  10.383  33.691  0.00  0.00    +0.000 A 
ATOM      5  C   UNL     1      15.993  11.132  32.891  0.00  0.00    +0.000 A 
ATOM      6  C   UNL     1      16.017  11.048  31.406  0.00  0.00    +0.000 C 
ATOM      7  N   UNL     1      15.126  11.963  33.491  0.00  0.00    +0.000 NA
ATOM      8  C   UNL     1      15.067  12.073  34.844  0.00  0.00    +0.000 A 
ATOM      9  O   UNL     1      14.255  12.852  35.408  0.00  0.00    +0.000 OA
ATOM     10  N   UNL     1      15.877  11.350  35.643  0.00  0.00    +0.000 N 
ATOM     11  C   UNL     1      15.989  11.301  36.990  0.00  0.00    +0.000 A 
ENDROOT
BRANCH   1  15
ATOM     12  C   UNL     1      18.180   9.463  41.300  0.00  0.00    +0.000 A 
ATOM     13  C   UNL     1      19.080   9.790  40.308  0.00  0.00    +0.000 A 
ATOM     14  C   UNL     1      18.712  10.093  39.021  0.00  0.00    +0.000 A 
ATOM     15  C   UNL     1      17.376  10.077  38.675  0.00  0.00    +0.000 A 
ATOM     16  C   UNL     1      16.454   9.750  39.659  0.00  0.00    +0.000 A 
ATOM     17  C   UNL     1      16.846   9.450  40.945  0.00  0.00    +0.000 A 
BRANCH  12  18
ATOM     18  O   UNL     1      18.586   9.157  42.607  0.00  0.00    +0.000 OA
BRANCH  18  20
ATOM     19  C   UNL     1      18.956   6.807  42.630  0.00  0.00    +0.000 C 
ATOM     20  C   UNL     1      18.132   7.938  43.164  0.00  0.00    +0.000 C 
ENDBRANCH  18  20
ENDBRANCH  12  18
ENDBRANCH   1  15
TORSDOF 3
ENDMDL
MODEL 6
REMARK VINA RESULT:      -6.4     18.583     20.547
REMARK  Name = 
REMARK  3 active torsions:
REMARK  status: ('A' for Active; 'I' for Inactive)
REMARK    1  A    between atoms: C_2  and  O_3
REMARK    2  A    between atoms: O_3  and  C_4
REMARK    3  A    between atoms: C_7  and  C_8
REMARK                            x       y       z     vdW  Elec       q    Type
REMARK                         _______ _______ _______ _____ _____    ______ ____
ROOT
ATOM      1  C   UNL     1      33.333  -0.234  34.504  0.00  0.00    +0.000 A 
ATOM      2  C   UNL     1      33.554   0.501  35.639  0.00  0.00    +0.000 A 
ATOM      3  C   UNL     1      33.736   1.825  35.294  0.00  0.00    +0.000 A 
ATOM      4  C   UNL     1      33.990   2.983  36.036  0.00  0.00    +0.000 A 
ATOM      5  C   UNL     1      34.127   4.197  35.392  0.00  0.00    +0.000 A 
ATOM      6  C   UNL     1      34.398   5.463  36.121  0.00  0.00    +0.000 C 
ATOM      7  N   UNL     1      34.010   4.216  34.054  0.00  0.00    +0.000 NA
ATOM      8  C   UNL     1      33.764   3.084  33.345  0.00  0.00    +0.000 A 
ATOM      9  O   UNL     1      33.654   3.101  32.091  0.00  0.00    +0.000 OA
ATOM     10  N   UNL     1      33.627   1.889  33.956  0.00  0.00    +0.000 N 
ATOM     11  C   UNL     1      33.382   0.655  33.457  0.00  0.00    +0.000 A 
ENDROOT
BRANCH   1  15
ATOM     12  C   UNL     1      32.636  -4.421  34.035  0.00  0.00    +0.000 A 
ATOM     13  C   UNL     1      33.481  -3.710  33.210  0.00  0.00    +0.000 A 
ATOM     14  C   UNL     1      33.718  -2.365  33.345  0.00  0.00    +0.000 A 
ATOM     15  C   UNL     1      33.090  -1.662  34.352  0.00  0.00    +0.000 A 
ATOM     16  C   UNL     1      32.234  -2.359  35.194  0.00  0.00    +0.000 A 
ATOM     17  C   UNL     1      32.011  -3.709  35.041  0.00  0.00    +0.000 A 
BRANCH  12  18
ATOM     18  O   UNL     1      32.413  -5.796  33.873  0.00  0.00    +0.000 OA
BRANCH  18  20
ATOM     19  C   UNL     1      30.514  -7.025  34.611  0.00  0.00    +0.000 C 
ATOM     20  C   UNL     1      31.110  -6.208  33.506  0.00  0.00    +0.000 C 
ENDBRANCH  18  20
ENDBRANCH  12  18
ENDBRANCH   1  15
TORSDOF 3
ENDMDL
MODEL 7
REMARK VINA RESULT:      -6.4     18.513     20.645
REMARK  Name = 
REMARK  3 active torsions:
REMARK  status: ('A' for Active; 'I' for Inactive)
REMARK    1  A    between atoms: C_2  and  O_3
REMARK    2  A    between atoms: O_3  and  C_4
REMARK    3  A    between atoms: C_7  and  C_8
REMARK                            x       y       z     vdW  Elec       q    Type
REMARK                         _______ _______ _______ _____ _____    ______ ____
ROOT
ATOM      1  C   UNL     1      33.277  -0.603  34.501  0.00  0.00    +0.000 A 
ATOM      2  C   UNL     1      33.249   0.445  33.620  0.00  0.00    +0.000 A 
ATOM      3  C   UNL     1      33.535   1.615  34.296  0.00  0.00    +0.000 A 
ATOM      4  C   UNL     1      33.638   2.951  33.897  0.00  0.00    +0.000 A 
ATOM      5  C   UNL     1      33.947   3.924  34.827  0.00  0.00    +0.000 A 
ATOM      6  C   UNL     1      34.071   5.362  34.470  0.00  0.00    +0.000 C 
ATOM      7  N   UNL     1      34.138   3.540  36.099  0.00  0.00    +0.000 NA
ATOM      8  C   UNL     1      34.035   2.238  36.473  0.00  0.00    +0.000 A 
ATOM      9  O   UNL     1      34.215   1.877  37.666  0.00  0.00    +0.000 OA
ATOM     10  N   UNL     1      33.734   1.274  35.580  0.00  0.00    +0.000 N 
ATOM     11  C   UNL     1      33.584  -0.063  35.728  0.00  0.00    +0.000 A 
ENDROOT
BRANCH   1  15
ATOM     12  C   UNL     1      32.606  -4.762  33.800  0.00  0.00    +0.000 A 
ATOM     13  C   UNL     1      33.483  -4.012  33.047  0.00  0.00    +0.000 A 
ATOM     14  C   UNL     1      33.712  -2.675  33.256  0.00  0.00    +0.000 A 
ATOM     15  C   UNL     1      33.041  -2.022  34.270  0.00  0.00    +0.000 A 
ATOM     16  C   UNL     1      32.153  -2.758  35.041  0.00  0.00    +0.000 A 
ATOM     17  C   UNL     1      31.938  -4.100  34.813  0.00  0.00    +0.000 A 
BRANCH  12  18
ATOM     18  O   UNL     1      32.391  -6.127  33.562  0.00  0.00    +0.000 OA
BRANCH  18  20
ATOM     19  C   UNL     1      30.451  -6.551  32.251  0.00  0.00    +0.000 C 
ATOM     20  C   UNL     1      31.058  -6.599  33.619  0.00  0.00    +0.000 C 
ENDBRANCH  18  20
ENDBRANCH  12  18
ENDBRANCH   1  15
TORSDOF 3
ENDMDL
MODEL 8
REMARK VINA RESULT:      -6.3      2.404      7.901
REMARK  Name = 
REMARK  3 active torsions:
REMARK  status: ('A' for Active; 'I' for Inactive)
REMARK    1  A    between atoms: C_2  and  O_3
REMARK    2  A    between atoms: O_3  and  C_4
REMARK    3  A    between atoms: C_7  and  C_8
REMARK                            x       y       z     vdW  Elec       q    Type
REMARK                         _______ _______ _______ _____ _____    ______ ____
ROOT
ATOM      1  C   UNL     1      16.535  10.598  37.604  0.00  0.00    +0.000 A 
ATOM      2  C   UNL     1      15.541  11.436  37.174  0.00  0.00    +0.000 A 
ATOM      3  C   UNL     1      15.605  11.548  35.799  0.00  0.00    +0.000 A 
ATOM      4  C   UNL     1      14.850  12.256  34.858  0.00  0.00    +0.000 A 
ATOM      5  C   UNL     1      15.164  12.166  33.517  0.00  0.00    +0.000 A 
ATOM      6  C   UNL     1      14.403  12.894  32.467  0.00  0.00    +0.000 C 
ATOM      7  N   UNL     1      16.200  11.389  33.163  0.00  0.00    +0.000 NA
ATOM      8  C   UNL     1      16.924  10.706  34.087  0.00  0.00    +0.000 A 
ATOM      9  O   UNL     1      17.896   9.977  33.756  0.00  0.00    +0.000 OA
ATOM     10  N   UNL     1      16.634  10.781  35.401  0.00  0.00    +0.000 N 
ATOM     11  C   UNL     1      17.212  10.196  36.477  0.00  0.00    +0.000 A 
ENDROOT
BRANCH   1  15
ATOM     12  C   UNL     1      17.554   9.348  41.558  0.00  0.00    +0.000 A 
ATOM     13  C   UNL     1      18.503   9.641  40.602  0.00  0.00    +0.000 A 
ATOM     14  C   UNL     1      18.196  10.044  39.327  0.00  0.00    +0.000 A 
ATOM     15  C   UNL     1      16.873  10.171  38.955  0.00  0.00    +0.000 A 
ATOM     16  C   UNL     1      15.902   9.881  39.902  0.00  0.00    +0.000 A 
ATOM     17  C   UNL     1      16.233   9.478  41.177  0.00  0.00    +0.000 A 
BRANCH  12  18
ATOM     18  O   UNL     1      17.899   8.938  42.854  0.00  0.00    +0.000 OA
BRANCH  18  20
ATOM     19  C   UNL     1      17.637  10.589  44.548  0.00  0.00    +0.000 C 
ATOM     20  C   UNL     1      18.603   9.859  43.666  0.00  0.00    +0.000 C 
ENDBRANCH  18  20
ENDBRANCH  12  18
ENDBRANCH   1  15
TORSDOF 3
ENDMDL
MODEL 9
REMARK VINA RESULT:      -6.3     21.454     22.881
REMARK  Name = 
REMARK  3 active torsions:
REMARK  status: ('A' for Active; 'I' for Inactive)
REMARK    1  A    between atoms: C_2  and  O_3
REMARK    2  A    between atoms: O_3  and  C_4
REMARK    3  A    between atoms: C_7  and  C_8
REMARK                            x       y       z     vdW  Elec       q    Type
REMARK                         _______ _______ _______ _____ _____    ______ ____
ROOT
ATOM      1  C   UNL     1      22.628  -7.894  24.882  0.00  0.00    +0.000 A 
ATOM      2  C   UNL     1      21.923  -8.847  25.567  0.00  0.00    +0.000 A 
ATOM      3  C   UNL     1      20.746  -8.295  26.033  0.00  0.00    +0.000 A 
ATOM      4  C   UNL     1      19.677  -8.803  26.776  0.00  0.00    +0.000 A 
ATOM      5  C   UNL     1      18.611  -7.985  27.096  0.00  0.00    +0.000 A 
ATOM      6  C   UNL     1      17.444  -8.463  27.883  0.00  0.00    +0.000 C 
ATOM      7  N   UNL     1      18.647  -6.711  26.673  0.00  0.00    +0.000 NA
ATOM      8  C   UNL     1      19.692  -6.230  25.951  0.00  0.00    +0.000 A 
ATOM      9  O   UNL     1      19.726  -5.036  25.554  0.00  0.00    +0.000 OA
ATOM     10  N   UNL     1      20.741  -7.013  25.629  0.00  0.00    +0.000 N 
ATOM     11  C   UNL     1      21.870  -6.748  24.931  0.00  0.00    +0.000 A 
ENDROOT
BRANCH   1  15
ATOM     12  C   UNL     1      26.409  -8.152  22.913  0.00  0.00    +0.000 A 
ATOM     13  C   UNL     1      25.778  -6.952  23.159  0.00  0.00    +0.000 A 
ATOM     14  C   UNL     1      24.564  -6.848  23.790  0.00  0.00    +0.000 A 
ATOM     15  C   UNL     1      23.918  -7.992  24.211  0.00  0.00    +0.000 A 
ATOM     16  C   UNL     1      24.535  -9.212  23.973  0.00  0.00    +0.000 A 
ATOM     17  C   UNL     1      25.755  -9.292  23.338  0.00  0.00    +0.000 A 
BRANCH  12  18
ATOM     18  O   UNL     1      27.651  -8.227  22.266  0.00  0.00    +0.000 OA
BRANCH  18  20
ATOM     19  C   UNL     1      29.759  -7.138  22.087  0.00  0.00    +0.000 C 
ATOM     20  C   UNL     1      28.277  -7.008  21.911  0.00  0.00    +0.000 C 
ENDBRANCH  18  20
ENDBRANCH  12  18
ENDBRANCH   1  15
TORSDOF 3
ENDMDL
MODEL 10
REMARK VINA RESULT:      -6.3      2.389      7.834
REMARK  Name = 
REMARK  3 active torsions:
REMARK  status: ('A' for Active; 'I' for Inactive)
REMARK    1  A    between atoms: C_2  and  O_3
REMARK    2  A    between atoms: O_3  and  C_4
REMARK    3  A    between atoms: C_7  and  C_8
REMARK                            x       y       z     vdW  Elec       q    Type
REMARK                         _______ _______ _______ _____ _____    ______ ____
ROOT
ATOM      1  C   UNL     1      17.355  10.579  36.033  0.00  0.00    +0.000 A 
ATOM      2  C   UNL     1      17.453  10.122  34.746  0.00  0.00    +0.000 A 
ATOM      3  C   UNL     1      16.547  10.797  33.953  0.00  0.00    +0.000 A 
ATOM      4  C   UNL     1      16.227  10.732  32.593  0.00  0.00    +0.000 A 
ATOM      5  C   UNL     1      15.248  11.557  32.077  0.00  0.00    +0.000 A 
ATOM      6  C   UNL     1      14.860  11.538  30.642  0.00  0.00    +0.000 C 
ATOM      7  N   UNL     1      14.630  12.403  32.917  0.00  0.00    +0.000 NA
ATOM      8  C   UNL     1      14.951  12.457  34.236  0.00  0.00    +0.000 A 
ATOM      9  O   UNL     1      14.372  13.250  35.025  0.00  0.00    +0.000 OA
ATOM     10  N   UNL     1      15.903  11.659  34.759  0.00  0.00    +0.000 N 
ATOM     11  C   UNL     1      16.377  11.545  36.022  0.00  0.00    +0.000 A 
ENDROOT
BRANCH   1  15
ATOM     12  C   UNL     1      19.500   9.410  39.536  0.00  0.00    +0.000 A 
ATOM     13  C   UNL     1      18.145   9.664  39.543  0.00  0.00    +0.000 A 
ATOM     14  C   UNL     1      17.439  10.041  38.428  0.00  0.00    +0.000 A 
ATOM     15  C   UNL     1      18.095  10.180  37.223  0.00  0.00    +0.000 A 
ATOM     16  C   UNL     1      19.460   9.929  37.194  0.00  0.00    +0.000 A 
ATOM     17  C   UNL     1      20.149   9.552  38.325  0.00  0.00    +0.000 A 
BRANCH  12  18
ATOM     18  O   UNL     1      20.196   9.027  40.692  0.00  0.00    +0.000 OA
BRANCH  18  20
ATOM     19  C   UNL     1      20.134  10.389  42.643  0.00  0.00    +0.000 C 
ATOM     20  C   UNL     1      20.892  10.036  41.400  0.00  0.00    +0.000 C 
ENDBRANCH  18  20
ENDBRANCH  12  18
ENDBRANCH   1  15
TORSDOF 3
ENDMDL
