MODEL 1
REMARK VINA RESULT:      -6.8      0.000      0.000
REMARK  Name = 
REMARK  3 active torsions:
REMARK  status: ('A' for Active; 'I' for Inactive)
REMARK    1  A    between atoms: O_2  and  C_3
REMARK    2  A    between atoms: C_3  and  C_5
REMARK    3  A    between atoms: C_16  and  C_17
REMARK                            x       y       z     vdW  Elec       q    Type
REMARK                         _______ _______ _______ _____ _____    ______ ____
ROOT
ATOM      1  C   UNL     1      27.382  22.742  29.247  0.00  0.00    +0.000 C 
ATOM      2  C   UNL     1      28.636  22.584  29.567  0.00  0.00    +0.000 C 
ATOM      3  N   UNL     1      28.880  22.424  31.011  0.00  0.00    +0.000 NA
ATOM      4  O   UNL     1      29.707  22.528  28.710  0.00  0.00    +0.000 OA
ATOM      5  C   UNL     1      29.358  22.649  27.335  0.00  0.00    +0.000 C 
ATOM      6  C   UNL     1      28.177  22.804  26.884  0.00  0.00    +0.000 C 
ATOM      7  C   UNL     1      27.811  22.912  25.443  0.00  0.00    +0.000 C 
ATOM      8  O   UNL     1      26.617  22.766  25.050  0.00  0.00    +0.000 OA
ATOM      9  C   UNL     1      28.936  23.195  24.536  0.00  0.00    +0.000 C 
ATOM     10  C   UNL     1      30.151  22.375  24.946  0.00  0.00    +0.000 C 
ATOM     11  C   UNL     1      30.512  22.584  26.360  0.00  0.00    +0.000 C 
ATOM     12  C   UNL     1      26.994  23.035  27.856  0.00  0.00    +0.000 C 
ENDROOT
BRANCH  12  13
ATOM     13  C   UNL     1      26.811  24.604  27.699  0.00  0.00    +0.000 A 
ATOM     14  C   UNL     1      27.912  25.388  27.887  0.00  0.00    +0.000 A 
ATOM     15  C   UNL     1      27.860  26.745  27.735  0.00  0.00    +0.000 A 
ATOM     16  C   UNL     1      26.662  27.321  27.382  0.00  0.00    +0.000 A 
ATOM     17  C   UNL     1      25.536  26.554  27.187  0.00  0.00    +0.000 A 
ATOM     18  C   UNL     1      25.652  25.154  27.361  0.00  0.00    +0.000 A 
ATOM     19  F   UNL     1      24.449  24.559  27.174  0.00  0.00    +0.000 F 
ENDBRANCH  12  13
BRANCH   1  20
ATOM     20  C   UNL     1      26.341  22.725  30.313  0.00  0.00    +0.000 C 
ATOM     21  O   UNL     1      25.934  21.694  30.858  0.00  0.00    +0.000 OA
BRANCH  20  23
ATOM     22  C   UNL     1      26.514  24.907  31.453  0.00  0.00    +0.000 C 
ATOM     23  O   UNL     1      25.810  23.920  30.705  0.00  0.00    +0.000 OA
ENDBRANCH  20  23
ENDBRANCH   1  20
TORSDOF 3
ENDMDL
MODEL 2
REMARK VINA RESULT:      -6.1      3.555      6.333
REMARK  Name = 
REMARK  3 active torsions:
REMARK  status: ('A' for Active; 'I' for Inactive)
REMARK    1  A    between atoms: O_2  and  C_3
REMARK    2  A    between atoms: C_3  and  C_5
REMARK    3  A    between atoms: C_16  and  C_17
REMARK                            x       y       z     vdW  Elec       q    Type
REMARK                         _______ _______ _______ _____ _____    ______ ____
ROOT
ATOM      1  C   UNL     1      28.473  24.037  24.043  0.00  0.00    +0.000 C 
ATOM      2  C   UNL     1      27.580  24.882  24.480  0.00  0.00    +0.000 C 
ATOM      3  N   UNL     1      26.803  25.546  23.421  0.00  0.00    +0.000 NA
ATOM      4  O   UNL     1      27.293  25.176  25.790  0.00  0.00    +0.000 OA
ATOM      5  C   UNL     1      28.071  24.448  26.734  0.00  0.00    +0.000 C 
ATOM      6  C   UNL     1      28.970  23.593  26.447  0.00  0.00    +0.000 C 
ATOM      7  C   UNL     1      29.771  22.817  27.437  0.00  0.00    +0.000 C 
ATOM      8  O   UNL     1      30.423  21.787  27.099  0.00  0.00    +0.000 OA
ATOM      9  C   UNL     1      29.734  23.341  28.812  0.00  0.00    +0.000 C 
ATOM     10  C   UNL     1      28.320  23.778  29.163  0.00  0.00    +0.000 C 
ATOM     11  C   UNL     1      27.776  24.741  28.188  0.00  0.00    +0.000 C 
ATOM     12  C   UNL     1      29.410  23.385  24.976  0.00  0.00    +0.000 C 
ENDROOT
BRANCH  12  13
ATOM     13  C   UNL     1      30.773  24.199  24.979  0.00  0.00    +0.000 A 
ATOM     14  C   UNL     1      30.727  25.502  25.378  0.00  0.00    +0.000 A 
ATOM     15  C   UNL     1      31.855  26.270  25.450  0.00  0.00    +0.000 A 
ATOM     16  C   UNL     1      33.060  25.701  25.109  0.00  0.00    +0.000 A 
ATOM     17  C   UNL     1      33.134  24.389  24.702  0.00  0.00    +0.000 A 
ATOM     18  C   UNL     1      31.931  23.644  24.646  0.00  0.00    +0.000 A 
ATOM     19  F   UNL     1      32.176  22.393  24.188  0.00  0.00    +0.000 F 
ENDBRANCH  12  13
BRANCH   1  20
ATOM     20  C   UNL     1      28.612  23.803  22.579  0.00  0.00    +0.000 C 
ATOM     21  O   UNL     1      27.890  23.035  21.934  0.00  0.00    +0.000 OA
BRANCH  20  23
ATOM     22  C   UNL     1      29.363  25.475  20.926  0.00  0.00    +0.000 C 
ATOM     23  O   UNL     1      29.597  24.477  21.916  0.00  0.00    +0.000 OA
ENDBRANCH  20  23
ENDBRANCH   1  20
TORSDOF 3
ENDMDL
MODEL 3
REMARK VINA RESULT:      -5.9     33.052     34.402
REMARK  Name = 
REMARK  3 active torsions:
REMARK  status: ('A' for Active; 'I' for Inactive)
REMARK    1  A    between atoms: O_2  and  C_3
REMARK    2  A    between atoms: C_3  and  C_5
REMARK    3  A    between atoms: C_16  and  C_17
REMARK                            x       y       z     vdW  Elec       q    Type
REMARK                         _______ _______ _______ _____ _____    ______ ____
ROOT
ATOM      1  C   UNL     1      18.927 -10.066  25.220  0.00  0.00    +0.000 C 
ATOM      2  C   UNL     1      20.095  -9.675  24.788  0.00  0.00    +0.000 C 
ATOM      3  N   UNL     1      20.862 -10.717  24.084  0.00  0.00    +0.000 NA
ATOM      4  O   UNL     1      20.641  -8.421  24.904  0.00  0.00    +0.000 OA
ATOM      5  C   UNL     1      19.801  -7.479  25.562  0.00  0.00    +0.000 C 
ATOM      6  C   UNL     1      18.641  -7.724  26.028  0.00  0.00    +0.000 C 
ATOM      7  C   UNL     1      17.754  -6.731  26.700  0.00  0.00    +0.000 C 
ATOM      8  O   UNL     1      16.520  -6.954  26.869  0.00  0.00    +0.000 OA
ATOM      9  C   UNL     1      18.425  -5.496  27.138  0.00  0.00    +0.000 C 
ATOM     10  C   UNL     1      19.403  -5.030  26.070  0.00  0.00    +0.000 C 
ATOM     11  C   UNL     1      20.367  -6.084  25.701  0.00  0.00    +0.000 C 
ATOM     12  C   UNL     1      18.096  -9.174  26.048  0.00  0.00    +0.000 C 
ENDROOT
BRANCH  12  13
ATOM     13  C   UNL     1      18.329  -9.534  27.575  0.00  0.00    +0.000 A 
ATOM     14  C   UNL     1      19.590  -9.380  28.073  0.00  0.00    +0.000 A 
ATOM     15  C   UNL     1      19.878  -9.628  29.386  0.00  0.00    +0.000 A 
ATOM     16  C   UNL     1      18.861 -10.042  30.214  0.00  0.00    +0.000 A 
ATOM     17  C   UNL     1      17.580 -10.208  29.738  0.00  0.00    +0.000 A 
ATOM     18  C   UNL     1      17.345  -9.936  28.368  0.00  0.00    +0.000 A 
ATOM     19  F   UNL     1      16.050 -10.189  28.058  0.00  0.00    +0.000 F 
ENDBRANCH  12  13
BRANCH   1  20
ATOM     20  C   UNL     1      18.473 -11.460  24.957  0.00  0.00    +0.000 C 
ATOM     21  O   UNL     1      17.765 -11.782  23.998  0.00  0.00    +0.000 OA
BRANCH  20  23
ATOM     22  C   UNL     1      17.972 -13.184  26.651  0.00  0.00    +0.000 C 
ATOM     23  O   UNL     1      18.864 -12.434  25.831  0.00  0.00    +0.000 OA
ENDBRANCH  20  23
ENDBRANCH   1  20
TORSDOF 3
ENDMDL
MODEL 4
REMARK VINA RESULT:      -5.8      2.903      5.535
REMARK  Name = 
REMARK  3 active torsions:
REMARK  status: ('A' for Active; 'I' for Inactive)
REMARK    1  A    between atoms: O_2  and  C_3
REMARK    2  A    between atoms: C_3  and  C_5
REMARK    3  A    between atoms: C_16  and  C_17
REMARK                            x       y       z     vdW  Elec       q    Type
REMARK                         _______ _______ _______ _____ _____    ______ ____
ROOT
ATOM      1  C   UNL     1      26.292  23.869  25.019  0.00  0.00    +0.000 C 
ATOM      2  C   UNL     1      25.449  24.703  25.561  0.00  0.00    +0.000 C 
ATOM      3  N   UNL     1      24.629  25.453  24.594  0.00  0.00    +0.000 NA
ATOM      4  O   UNL     1      25.246  24.918  26.901  0.00  0.00    +0.000 OA
ATOM      5  C   UNL     1      26.057  24.112  27.749  0.00  0.00    +0.000 C 
ATOM      6  C   UNL     1      26.916  23.259  27.355  0.00  0.00    +0.000 C 
ATOM      7  C   UNL     1      27.752  22.402  28.244  0.00  0.00    +0.000 C 
ATOM      8  O   UNL     1      28.358  21.382  27.803  0.00  0.00    +0.000 OA
ATOM      9  C   UNL     1      27.809  22.836  29.650  0.00  0.00    +0.000 C 
ATOM     10  C   UNL     1      26.429  23.280  30.112  0.00  0.00    +0.000 C 
ATOM     11  C   UNL     1      25.855  24.317  29.233  0.00  0.00    +0.000 C 
ATOM     12  C   UNL     1      27.265  23.138  25.851  0.00  0.00    +0.000 C 
ENDROOT
BRANCH  12  13
ATOM     13  C   UNL     1      28.646  23.919  25.824  0.00  0.00    +0.000 A 
ATOM     14  C   UNL     1      28.664  25.182  26.338  0.00  0.00    +0.000 A 
ATOM     15  C   UNL     1      29.815  25.917  26.394  0.00  0.00    +0.000 A 
ATOM     16  C   UNL     1      30.977  25.355  25.917  0.00  0.00    +0.000 A 
ATOM     17  C   UNL     1      30.986  24.084  25.392  0.00  0.00    +0.000 A 
ATOM     18  C   UNL     1      29.762  23.373  25.360  0.00  0.00    +0.000 A 
ATOM     19  F   UNL     1      29.940  22.163  24.777  0.00  0.00    +0.000 F 
ENDBRANCH  12  13
BRANCH   1  20
ATOM     20  C   UNL     1      26.340  23.729  23.536  0.00  0.00    +0.000 C 
ATOM     21  O   UNL     1      25.649  22.927  22.900  0.00  0.00    +0.000 OA
BRANCH  20  23
ATOM     22  C   UNL     1      28.267  24.057  22.029  0.00  0.00    +0.000 C 
ATOM     23  O   UNL     1      27.202  24.533  22.847  0.00  0.00    +0.000 OA
ENDBRANCH  20  23
ENDBRANCH   1  20
TORSDOF 3
ENDMDL
MODEL 5
REMARK VINA RESULT:      -5.7      4.085      6.299
REMARK  Name = 
REMARK  3 active torsions:
REMARK  status: ('A' for Active; 'I' for Inactive)
REMARK    1  A    between atoms: O_2  and  C_3
REMARK    2  A    between atoms: C_3  and  C_5
REMARK    3  A    between atoms: C_16  and  C_17
REMARK                            x       y       z     vdW  Elec       q    Type
REMARK                         _______ _______ _______ _____ _____    ______ ____
ROOT
ATOM      1  C   UNL     1      29.138  25.858  22.728  0.00  0.00    +0.000 C 
ATOM      2  C   UNL     1      29.538  24.731  22.209  0.00  0.00    +0.000 C 
ATOM      3  N   UNL     1      29.559  24.713  20.736  0.00  0.00    +0.000 NA
ATOM      4  O   UNL     1      29.951  23.610  22.886  0.00  0.00    +0.000 OA
ATOM      5  C   UNL     1      29.934  23.747  24.302  0.00  0.00    +0.000 C 
ATOM      6  C   UNL     1      29.571  24.789  24.939  0.00  0.00    +0.000 C 
ATOM      7  C   UNL     1      29.571  24.937  26.422  0.00  0.00    +0.000 C 
ATOM      8  O   UNL     1      29.488  26.073  26.974  0.00  0.00    +0.000 OA
ATOM      9  C   UNL     1      29.677  23.674  27.173  0.00  0.00    +0.000 C 
ATOM     10  C   UNL     1      30.693  22.759  26.507  0.00  0.00    +0.000 C 
ATOM     11  C   UNL     1      30.390  22.534  25.081  0.00  0.00    +0.000 C 
ATOM     12  C   UNL     1      28.948  25.988  24.184  0.00  0.00    +0.000 C 
ENDROOT
BRANCH  12  13
ATOM     13  C   UNL     1      27.413  25.758  24.519  0.00  0.00    +0.000 A 
ATOM     14  C   UNL     1      26.885  24.533  24.235  0.00  0.00    +0.000 A 
ATOM     15  C   UNL     1      25.584  24.228  24.524  0.00  0.00    +0.000 A 
ATOM     16  C   UNL     1      24.801  25.192  25.117  0.00  0.00    +0.000 A 
ATOM     17  C   UNL     1      25.308  26.436  25.412  0.00  0.00    +0.000 A 
ATOM     18  C   UNL     1      26.662  26.692  25.087  0.00  0.00    +0.000 A 
ATOM     19  F   UNL     1      26.986  27.969  25.404  0.00  0.00    +0.000 F 
ENDBRANCH  12  13
BRANCH   1  20
ATOM     20  C   UNL     1      28.775  26.993  21.834  0.00  0.00    +0.000 C 
ATOM     21  O   UNL     1      29.560  27.890  21.509  0.00  0.00    +0.000 OA
BRANCH  20  23
ATOM     22  C   UNL     1      27.030  28.006  20.412  0.00  0.00    +0.000 C 
ATOM     23  O   UNL     1      27.498  27.042  21.351  0.00  0.00    +0.000 OA
ENDBRANCH  20  23
ENDBRANCH   1  20
TORSDOF 3
ENDMDL
MODEL 6
REMARK VINA RESULT:      -5.6     29.054     30.557
REMARK  Name = 
REMARK  3 active torsions:
REMARK  status: ('A' for Active; 'I' for Inactive)
REMARK    1  A    between atoms: O_2  and  C_3
REMARK    2  A    between atoms: C_3  and  C_5
REMARK    3  A    between atoms: C_16  and  C_17
REMARK                            x       y       z     vdW  Elec       q    Type
REMARK                         _______ _______ _______ _____ _____    ______ ____
ROOT
ATOM      1  C   UNL     1      35.262  -6.444  33.823  0.00  0.00    +0.000 C 
ATOM      2  C   UNL     1      36.218  -6.236  32.960  0.00  0.00    +0.000 C 
ATOM      3  N   UNL     1      37.575  -6.315  33.526  0.00  0.00    +0.000 NA
ATOM      4  O   UNL     1      36.079  -5.987  31.618  0.00  0.00    +0.000 OA
ATOM      5  C   UNL     1      34.730  -5.976  31.164  0.00  0.00    +0.000 C 
ATOM      6  C   UNL     1      33.704  -6.165  31.895  0.00  0.00    +0.000 C 
ATOM      7  C   UNL     1      32.292  -6.171  31.415  0.00  0.00    +0.000 C 
ATOM      8  O   UNL     1      31.357  -6.654  32.118  0.00  0.00    +0.000 OA
ATOM      9  C   UNL     1      32.087  -5.582  30.081  0.00  0.00    +0.000 C 
ATOM     10  C   UNL     1      33.203  -6.019  29.144  0.00  0.00    +0.000 C 
ATOM     11  C   UNL     1      34.539  -5.711  29.688  0.00  0.00    +0.000 C 
ATOM     12  C   UNL     1      33.850  -6.278  33.432  0.00  0.00    +0.000 C 
ENDROOT
BRANCH  12  13
ATOM     13  C   UNL     1      33.371  -4.828  33.862  0.00  0.00    +0.000 A 
ATOM     14  C   UNL     1      33.909  -3.765  33.197  0.00  0.00    +0.000 A 
ATOM     15  C   UNL     1      33.528  -2.481  33.471  0.00  0.00    +0.000 A 
ATOM     16  C   UNL     1      32.577  -2.271  34.442  0.00  0.00    +0.000 A 
ATOM     17  C   UNL     1      32.019  -3.325  35.128  0.00  0.00    +0.000 A 
ATOM     18  C   UNL     1      32.455  -4.631  34.802  0.00  0.00    +0.000 A 
ATOM     19  F   UNL     1      31.840  -5.541  35.595  0.00  0.00    +0.000 F 
ENDBRANCH  12  13
BRANCH   1  20
ATOM     20  C   UNL     1      35.602  -6.754  35.240  0.00  0.00    +0.000 C 
ATOM     21  O   UNL     1      35.739  -7.900  35.678  0.00  0.00    +0.000 OA
BRANCH  20  23
ATOM     22  C   UNL     1      36.839  -5.594  37.033  0.00  0.00    +0.000 C 
ATOM     23  O   UNL     1      35.768  -5.706  36.099  0.00  0.00    +0.000 OA
ENDBRANCH  20  23
ENDBRANCH   1  20
TORSDOF 3
ENDMDL
MODEL 7
REMARK VINA RESULT:      -5.6     16.552     19.891
REMARK  Name = 
REMARK  3 active torsions:
REMARK  status: ('A' for Active; 'I' for Inactive)
REMARK    1  A    between atoms: O_2  and  C_3
REMARK    2  A    between atoms: C_3  and  C_5
REMARK    3  A    between atoms: C_16  and  C_17
REMARK                            x       y       z     vdW  Elec       q    Type
REMARK                         _______ _______ _______ _____ _____    ______ ____
ROOT
ATOM      1  C   UNL     1      32.165  20.804   8.243  0.00  0.00    +0.000 C 
ATOM      2  C   UNL     1      31.351  21.746   7.854  0.00  0.00    +0.000 C 
ATOM      3  N   UNL     1      31.291  21.933   6.395  0.00  0.00    +0.000 NA
ATOM      4  O   UNL     1      30.555  22.530   8.651  0.00  0.00    +0.000 OA
ATOM      5  C   UNL     1      30.655  22.240  10.041  0.00  0.00    +0.000 C 
ATOM      6  C   UNL     1      31.405  21.348  10.556  0.00  0.00    +0.000 C 
ATOM      7  C   UNL     1      31.495  21.031  12.010  0.00  0.00    +0.000 C 
ATOM      8  O   UNL     1      32.021  19.957  12.422  0.00  0.00    +0.000 OA
ATOM      9  C   UNL     1      30.930  22.055  12.905  0.00  0.00    +0.000 C 
ATOM     10  C   UNL     1      29.625  22.585  12.328  0.00  0.00    +0.000 C 
ATOM     11  C   UNL     1      29.787  23.080  10.949  0.00  0.00    +0.000 C 
ATOM     12  C   UNL     1      32.423  20.580   9.677  0.00  0.00    +0.000 C 
ENDROOT
BRANCH  12  13
ATOM     13  C   UNL     1      33.759  21.339  10.077  0.00  0.00    +0.000 A 
ATOM     14  C   UNL     1      33.797  22.689   9.885  0.00  0.00    +0.000 A 
ATOM     15  C   UNL     1      34.889  23.433  10.235  0.00  0.00    +0.000 A 
ATOM     16  C   UNL     1      35.968  22.790  10.796  0.00  0.00    +0.000 A 
ATOM     17  C   UNL     1      35.956  21.430  11.000  0.00  0.00    +0.000 A 
ATOM     18  C   UNL     1      34.798  20.713  10.615  0.00  0.00    +0.000 A 
ATOM     19  F   UNL     1      34.969  19.389  10.844  0.00  0.00    +0.000 F 
ENDBRANCH  12  13
BRANCH   1  20
ATOM     20  C   UNL     1      32.915  20.012   7.229  0.00  0.00    +0.000 C 
ATOM     21  O   UNL     1      34.023  20.336   6.788  0.00  0.00    +0.000 OA
BRANCH  20  23
ATOM     22  C   UNL     1      33.052  17.663   6.485  0.00  0.00    +0.000 C 
ATOM     23  O   UNL     1      32.340  18.866   6.760  0.00  0.00    +0.000 OA
ENDBRANCH  20  23
ENDBRANCH   1  20
TORSDOF 3
ENDMDL
MODEL 8
REMARK VINA RESULT:      -5.6     33.242     34.658
REMARK  Name = 
REMARK  3 active torsions:
REMARK  status: ('A' for Active; 'I' for Inactive)
REMARK    1  A    between atoms: O_2  and  C_3
REMARK    2  A    between atoms: C_3  and  C_5
REMARK    3  A    between atoms: C_16  and  C_17
REMARK                            x       y       z     vdW  Elec       q    Type
REMARK                         _______ _______ _______ _____ _____    ______ ____
ROOT
ATOM      1  C   UNL     1      17.229 -10.150  25.927  0.00  0.00    +0.000 C 
ATOM      2  C   UNL     1      16.170 -10.343  26.663  0.00  0.00    +0.000 C 
ATOM      3  N   UNL     1      14.929 -10.556  25.898  0.00  0.00    +0.000 NA
ATOM      4  O   UNL     1      16.113 -10.389  28.033  0.00  0.00    +0.000 OA
ATOM      5  C   UNL     1      17.372 -10.215  28.674  0.00  0.00    +0.000 C 
ATOM      6  C   UNL     1      18.482 -10.022  28.080  0.00  0.00    +0.000 C 
ATOM      7  C   UNL     1      19.803  -9.859  28.752  0.00  0.00    +0.000 C 
ATOM      8  O   UNL     1      20.890  -9.969  28.112  0.00  0.00    +0.000 OA
ATOM      9  C   UNL     1      19.735  -9.567  30.194  0.00  0.00    +0.000 C 
ATOM     10  C   UNL     1      18.659 -10.423  30.845  0.00  0.00    +0.000 C 
ATOM     11  C   UNL     1      17.350 -10.268  30.185  0.00  0.00    +0.000 C 
ATOM     12  C   UNL     1      18.521  -9.802  26.548  0.00  0.00    +0.000 C 
ENDROOT
BRANCH  12  13
ATOM     13  C   UNL     1      18.699  -8.226  26.501  0.00  0.00    +0.000 A 
ATOM     14  C   UNL     1      17.719  -7.464  27.067  0.00  0.00    +0.000 A 
ATOM     15  C   UNL     1      17.805  -6.101  27.110  0.00  0.00    +0.000 A 
ATOM     16  C   UNL     1      18.913  -5.495  26.564  0.00  0.00    +0.000 A 
ATOM     17  C   UNL     1      19.915  -6.240  25.985  0.00  0.00    +0.000 A 
ATOM     18  C   UNL     1      19.769  -7.648  25.970  0.00  0.00    +0.000 A 
ATOM     19  F   UNL     1      20.817  -8.220  25.330  0.00  0.00    +0.000 F 
ENDBRANCH  12  13
BRANCH   1  20
ATOM     20  C   UNL     1      17.112 -10.183  24.443  0.00  0.00    +0.000 C 
ATOM     21  O   UNL     1      16.856  -9.192  23.752  0.00  0.00    +0.000 OA
BRANCH  20  23
ATOM     22  C   UNL     1      18.507 -11.778  23.177  0.00  0.00    +0.000 C 
ATOM     23  O   UNL     1      17.296 -11.382  23.815  0.00  0.00    +0.000 OA
ENDBRANCH  20  23
ENDBRANCH   1  20
TORSDOF 3
ENDMDL
MODEL 9
REMARK VINA RESULT:      -5.5     16.968     18.915
REMARK  Name = 
REMARK  3 active torsions:
REMARK  status: ('A' for Active; 'I' for Inactive)
REMARK    1  A    between atoms: O_2  and  C_3
REMARK    2  A    between atoms: C_3  and  C_5
REMARK    3  A    between atoms: C_16  and  C_17
REMARK                            x       y       z     vdW  Elec       q    Type
REMARK                         _______ _______ _______ _____ _____    ______ ____
ROOT
ATOM      1  C   UNL     1      32.006  20.844  11.022  0.00  0.00    +0.000 C 
ATOM      2  C   UNL     1      32.343  20.820  12.281  0.00  0.00    +0.000 C 
ATOM      3  N   UNL     1      31.259  21.190  13.208  0.00  0.00    +0.000 NA
ATOM      4  O   UNL     1      33.563  20.469  12.803  0.00  0.00    +0.000 OA
ATOM      5  C   UNL     1      34.526  20.087  11.827  0.00  0.00    +0.000 C 
ATOM      6  C   UNL     1      34.330  20.062  10.568  0.00  0.00    +0.000 C 
ATOM      7  C   UNL     1      35.333  19.643   9.548  0.00  0.00    +0.000 C 
ATOM      8  O   UNL     1      34.993  19.357   8.363  0.00  0.00    +0.000 OA
ATOM      9  C   UNL     1      36.724  19.591  10.029  0.00  0.00    +0.000 C 
ATOM     10  C   UNL     1      36.768  18.982  11.423  0.00  0.00    +0.000 C 
ATOM     11  C   UNL     1      35.880  19.686  12.366  0.00  0.00    +0.000 C 
ATOM     12  C   UNL     1      33.014  20.617   9.970  0.00  0.00    +0.000 C 
ENDROOT
BRANCH  12  13
ATOM     13  C   UNL     1      33.523  22.024   9.442  0.00  0.00    +0.000 A 
ATOM     14  C   UNL     1      34.299  22.768  10.282  0.00  0.00    +0.000 A 
ATOM     15  C   UNL     1      34.816  23.974   9.900  0.00  0.00    +0.000 A 
ATOM     16  C   UNL     1      34.539  24.436   8.634  0.00  0.00    +0.000 A 
ATOM     17  C   UNL     1      33.759  23.706   7.767  0.00  0.00    +0.000 A 
ATOM     18  C   UNL     1      33.251  22.464   8.221  0.00  0.00    +0.000 A 
ATOM     19  F   UNL     1      32.475  21.900   7.265  0.00  0.00    +0.000 F 
ENDBRANCH  12  13
BRANCH   1  20
ATOM     20  C   UNL     1      30.611  21.202  10.638  0.00  0.00    +0.000 C 
ATOM     21  O   UNL     1      29.740  20.371  10.363  0.00  0.00    +0.000 OA
BRANCH  20  23
ATOM     22  C   UNL     1      29.210  23.118  11.314  0.00  0.00    +0.000 C 
ATOM     23  O   UNL     1      30.284  22.527  10.588  0.00  0.00    +0.000 OA
ENDBRANCH  20  23
ENDBRANCH   1  20
TORSDOF 3
ENDMDL
MODEL 10
REMARK VINA RESULT:      -5.4     33.298     34.524
REMARK  Name = 
REMARK  3 active torsions:
REMARK  status: ('A' for Active; 'I' for Inactive)
REMARK    1  A    between atoms: O_2  and  C_3
REMARK    2  A    between atoms: C_3  and  C_5
REMARK    3  A    between atoms: C_16  and  C_17
REMARK                            x       y       z     vdW  Elec       q    Type
REMARK                         _______ _______ _______ _____ _____    ______ ____
ROOT
ATOM      1  C   UNL     1      17.890 -10.061  28.225  0.00  0.00    +0.000 C 
ATOM      2  C   UNL     1      18.361 -11.196  27.788  0.00  0.00    +0.000 C 
ATOM      3  N   UNL     1      19.155 -11.945  28.777  0.00  0.00    +0.000 NA
ATOM      4  O   UNL     1      18.168 -11.747  26.546  0.00  0.00    +0.000 OA
ATOM      5  C   UNL     1      17.351 -10.965  25.682  0.00  0.00    +0.000 C 
ATOM      6  C   UNL     1      16.826  -9.843  25.980  0.00  0.00    +0.000 C 
ATOM      7  C   UNL     1      15.955  -9.033  25.081  0.00  0.00    +0.000 C 
ATOM      8  O   UNL     1      15.233  -8.095  25.527  0.00  0.00    +0.000 OA
ATOM      9  C   UNL     1      16.005  -9.414  23.659  0.00  0.00    +0.000 C 
ATOM     10  C   UNL     1      16.020 -10.929  23.528  0.00  0.00    +0.000 C 
ATOM     11  C   UNL     1      17.112 -11.544  24.307  0.00  0.00    +0.000 C 
ATOM     12  C   UNL     1      17.179  -9.144  27.316  0.00  0.00    +0.000 C 
ENDROOT
BRANCH  12  13
ATOM     13  C   UNL     1      18.205  -8.052  26.792  0.00  0.00    +0.000 A 
ATOM     14  C   UNL     1      19.367  -8.497  26.232  0.00  0.00    +0.000 A 
ATOM     15  C   UNL     1      20.292  -7.633  25.718  0.00  0.00    +0.000 A 
ATOM     16  C   UNL     1      20.032  -6.283  25.773  0.00  0.00    +0.000 A 
ATOM     17  C   UNL     1      18.868  -5.807  26.333  0.00  0.00    +0.000 A 
ATOM     18  C   UNL     1      17.949  -6.751  26.850  0.00  0.00    +0.000 A 
ATOM     19  F   UNL     1      16.886  -6.116  27.399  0.00  0.00    +0.000 F 
ENDBRANCH  12  13
BRANCH   1  20
ATOM     20  C   UNL     1      18.158  -9.643  29.629  0.00  0.00    +0.000 C 
ATOM     21  O   UNL     1      19.221  -9.138  30.004  0.00  0.00    +0.000 OA
BRANCH  20  23
ATOM     22  C   UNL     1      16.202 -10.878  30.489  0.00  0.00    +0.000 C 
ATOM     23  O   UNL     1      17.169  -9.834  30.551  0.00  0.00    +0.000 OA
ENDBRANCH  20  23
ENDBRANCH   1  20
TORSDOF 3
ENDMDL
