MODEL 1
REMARK VINA RESULT:      -6.1      0.000      0.000
REMARK  Name = 
REMARK  3 active torsions:
REMARK  status: ('A' for Active; 'I' for Inactive)
REMARK    1  A    between atoms: O_2  and  C_3
REMARK    2  A    between atoms: C_6  and  N_7
REMARK    3  A    between atoms: C_15  and  C_16
REMARK                            x       y       z     vdW  Elec       q    Type
REMARK                         _______ _______ _______ _____ _____    ______ ____
ROOT
ATOM      1  N   UNL     1      17.864   9.602  37.605  0.00  0.00    +0.000 NA
ATOM      2  C   UNL     1      19.229   9.556  37.981  0.00  0.00    +0.000 A 
ATOM      3  N   UNL     1      20.195   9.964  37.148  0.00  0.00    +0.000 NA
ATOM      4  C   UNL     1      21.489   9.914  37.520  0.00  0.00    +0.000 A 
ATOM      5  C   UNL     1      22.519  10.379  36.554  0.00  0.00    +0.000 C 
ATOM      6  C   UNL     1      21.814   9.440  38.765  0.00  0.00    +0.000 A 
ATOM      7  C   UNL     1      20.838   9.014  39.642  0.00  0.00    +0.000 A 
ATOM      8  C   UNL     1      21.168   8.495  41.002  0.00  0.00    +0.000 C 
ATOM      9  C   UNL     1      19.533   9.080  39.228  0.00  0.00    +0.000 A 
ENDROOT
BRANCH   1  13
ATOM     10  C   UNL     1      16.760  11.135  33.849  0.00  0.00    +0.000 A 
ATOM     11  C   UNL     1      16.489  11.818  35.009  0.00  0.00    +0.000 A 
ATOM     12  C   UNL     1      16.868  11.278  36.214  0.00  0.00    +0.000 A 
ATOM     13  C   UNL     1      17.509  10.085  36.330  0.00  0.00    +0.000 A 
ATOM     14  C   UNL     1      17.780   9.402  35.157  0.00  0.00    +0.000 A 
ATOM     15  C   UNL     1      17.403   9.933  33.942  0.00  0.00    +0.000 A 
BRANCH  10  17
ATOM     16  C   UNL     1      15.931  10.939  31.538  0.00  0.00    +0.000 C 
ATOM     17  O   UNL     1      16.359  11.716  32.659  0.00  0.00    +0.000 OA
ENDBRANCH  10  17
ENDBRANCH   1  13
BRANCH   9  18
ATOM     18  C   UNL     1      18.471   8.640  40.123  0.00  0.00    +0.000 C 
ATOM     19  N   UNL     1      17.835   9.552  41.010  0.00  0.00    +0.000 NA
ATOM     20  O   UNL     1      18.074   7.447  40.152  0.00  0.00    +0.000 OA
ENDBRANCH   9  18
TORSDOF 3
ENDMDL
MODEL 2
REMARK VINA RESULT:      -5.7     20.422     21.845
REMARK  Name = 
REMARK  3 active torsions:
REMARK  status: ('A' for Active; 'I' for Inactive)
REMARK    1  A    between atoms: O_2  and  C_3
REMARK    2  A    between atoms: C_6  and  N_7
REMARK    3  A    between atoms: C_15  and  C_16
REMARK                            x       y       z     vdW  Elec       q    Type
REMARK                         _______ _______ _______ _____ _____    ______ ____
ROOT
ATOM      1  N   UNL     1      19.979  -9.680  27.028  0.00  0.00    +0.000 NA
ATOM      2  C   UNL     1      20.117  -8.370  26.507  0.00  0.00    +0.000 A 
ATOM      3  N   UNL     1      19.258  -7.396  26.835  0.00  0.00    +0.000 NA
ATOM      4  C   UNL     1      19.402  -6.155  26.331  0.00  0.00    +0.000 A 
ATOM      5  C   UNL     1      18.419  -5.113  26.730  0.00  0.00    +0.000 C 
ATOM      6  C   UNL     1      20.439  -5.892  25.474  0.00  0.00    +0.000 A 
ATOM      7  C   UNL     1      21.337  -6.878  25.120  0.00  0.00    +0.000 A 
ATOM      8  C   UNL     1      22.474  -6.615  24.189  0.00  0.00    +0.000 C 
ATOM      9  C   UNL     1      21.158  -8.127  25.653  0.00  0.00    +0.000 A 
ENDROOT
BRANCH   1  13
ATOM     10  C   UNL     1      16.880 -10.512  29.746  0.00  0.00    +0.000 A 
ATOM     11  C   UNL     1      18.081  -9.993  30.165  0.00  0.00    +0.000 A 
ATOM     12  C   UNL     1      19.065  -9.737  29.241  0.00  0.00    +0.000 A 
ATOM     13  C   UNL     1      18.920  -9.970  27.910  0.00  0.00    +0.000 A 
ATOM     14  C   UNL     1      17.707 -10.494  27.494  0.00  0.00    +0.000 A 
ATOM     15  C   UNL     1      16.712 -10.755  28.412  0.00  0.00    +0.000 A 
BRANCH  10  17
ATOM     16  C   UNL     1      16.097 -10.373  32.076  0.00  0.00    +0.000 C 
ATOM     17  O   UNL     1      15.919 -10.755  30.711  0.00  0.00    +0.000 OA
ENDBRANCH  10  17
ENDBRANCH   1  13
BRANCH   9  18
ATOM     18  C   UNL     1      22.084  -9.197  25.305  0.00  0.00    +0.000 C 
ATOM     19  N   UNL     1      21.875 -10.002  24.151  0.00  0.00    +0.000 NA
ATOM     20  O   UNL     1      23.099  -9.454  26.002  0.00  0.00    +0.000 OA
ENDBRANCH   9  18
TORSDOF 3
ENDMDL
MODEL 3
REMARK VINA RESULT:      -5.7     20.655     22.407
REMARK  Name = 
REMARK  3 active torsions:
REMARK  status: ('A' for Active; 'I' for Inactive)
REMARK    1  A    between atoms: O_2  and  C_3
REMARK    2  A    between atoms: C_6  and  N_7
REMARK    3  A    between atoms: C_15  and  C_16
REMARK                            x       y       z     vdW  Elec       q    Type
REMARK                         _______ _______ _______ _____ _____    ______ ____
ROOT
ATOM      1  N   UNL     1      25.960   4.556  17.993  0.00  0.00    +0.000 NA
ATOM      2  C   UNL     1      26.343   5.193  16.786  0.00  0.00    +0.000 A 
ATOM      3  N   UNL     1      25.647   5.018  15.656  0.00  0.00    +0.000 NA
ATOM      4  C   UNL     1      26.023   5.630  14.516  0.00  0.00    +0.000 A 
ATOM      5  C   UNL     1      25.213   5.400  13.291  0.00  0.00    +0.000 C 
ATOM      6  C   UNL     1      27.131   6.439  14.520  0.00  0.00    +0.000 A 
ATOM      7  C   UNL     1      27.865   6.635  15.671  0.00  0.00    +0.000 A 
ATOM      8  C   UNL     1      29.074   7.510  15.699  0.00  0.00    +0.000 C 
ATOM      9  C   UNL     1      27.451   5.996  16.810  0.00  0.00    +0.000 A 
ENDROOT
BRANCH   1  13
ATOM     10  C   UNL     1      22.640   1.976  18.020  0.00  0.00    +0.000 A 
ATOM     11  C   UNL     1      23.909   1.509  17.780  0.00  0.00    +0.000 A 
ATOM     12  C   UNL     1      24.964   2.389  17.780  0.00  0.00    +0.000 A 
ATOM     13  C   UNL     1      24.826   3.721  18.010  0.00  0.00    +0.000 A 
ATOM     14  C   UNL     1      23.545   4.186  18.252  0.00  0.00    +0.000 A 
ATOM     15  C   UNL     1      22.478   3.312  18.253  0.00  0.00    +0.000 A 
BRANCH  10  17
ATOM     16  C   UNL     1      20.383   1.291  17.315  0.00  0.00    +0.000 C 
ATOM     17  O   UNL     1      21.609   1.055  18.009  0.00  0.00    +0.000 OA
ENDBRANCH  10  17
ENDBRANCH   1  13
BRANCH   9  18
ATOM     18  C   UNL     1      28.198   6.176  18.048  0.00  0.00    +0.000 C 
ATOM     19  N   UNL     1      27.929   7.271  18.915  0.00  0.00    +0.000 NA
ATOM     20  O   UNL     1      29.105   5.380  18.402  0.00  0.00    +0.000 OA
ENDBRANCH   9  18
TORSDOF 3
ENDMDL
MODEL 4
REMARK VINA RESULT:      -5.7     18.056     20.162
REMARK  Name = 
REMARK  3 active torsions:
REMARK  status: ('A' for Active; 'I' for Inactive)
REMARK    1  A    between atoms: O_2  and  C_3
REMARK    2  A    between atoms: C_6  and  N_7
REMARK    3  A    between atoms: C_15  and  C_16
REMARK                            x       y       z     vdW  Elec       q    Type
REMARK                         _______ _______ _______ _____ _____    ______ ____
ROOT
ATOM      1  N   UNL     1      31.320  23.021  27.688  0.00  0.00    +0.000 NA
ATOM      2  C   UNL     1      30.316  22.879  28.677  0.00  0.00    +0.000 A 
ATOM      3  N   UNL     1      29.022  23.063  28.386  0.00  0.00    +0.000 NA
ATOM      4  C   UNL     1      28.078  22.924  29.338  0.00  0.00    +0.000 A 
ATOM      5  C   UNL     1      26.657  23.140  28.958  0.00  0.00    +0.000 C 
ATOM      6  C   UNL     1      28.452  22.592  30.614  0.00  0.00    +0.000 A 
ATOM      7  C   UNL     1      29.779  22.398  30.939  0.00  0.00    +0.000 A 
ATOM      8  C   UNL     1      30.209  22.036  32.322  0.00  0.00    +0.000 C 
ATOM      9  C   UNL     1      30.710  22.548  29.945  0.00  0.00    +0.000 A 
ENDROOT
BRANCH   1  13
ATOM     10  C   UNL     1      30.206  23.932  23.737  0.00  0.00    +0.000 A 
ATOM     11  C   UNL     1      30.090  22.659  24.239  0.00  0.00    +0.000 A 
ATOM     12  C   UNL     1      30.467  22.408  25.536  0.00  0.00    +0.000 A 
ATOM     13  C   UNL     1      30.957  23.362  26.370  0.00  0.00    +0.000 A 
ATOM     14  C   UNL     1      31.071  24.643  25.859  0.00  0.00    +0.000 A 
ATOM     15  C   UNL     1      30.696  24.908  24.558  0.00  0.00    +0.000 A 
BRANCH  10  17
ATOM     16  C   UNL     1      28.475  23.913  21.986  0.00  0.00    +0.000 C 
ATOM     17  O   UNL     1      29.815  24.138  22.426  0.00  0.00    +0.000 OA
ENDBRANCH  10  17
ENDBRANCH   1  13
BRANCH   9  18
ATOM     18  C   UNL     1      32.121  22.351  30.246  0.00  0.00    +0.000 C 
ATOM     19  N   UNL     1      32.937  23.433  30.681  0.00  0.00    +0.000 NA
ATOM     20  O   UNL     1      32.677  21.229  30.135  0.00  0.00    +0.000 OA
ENDBRANCH   9  18
TORSDOF 3
ENDMDL
MODEL 5
REMARK VINA RESULT:      -5.6     20.876     22.016
REMARK  Name = 
REMARK  3 active torsions:
REMARK  status: ('A' for Active; 'I' for Inactive)
REMARK    1  A    between atoms: O_2  and  C_3
REMARK    2  A    between atoms: C_6  and  N_7
REMARK    3  A    between atoms: C_15  and  C_16
REMARK                            x       y       z     vdW  Elec       q    Type
REMARK                         _______ _______ _______ _____ _____    ______ ____
ROOT
ATOM      1  N   UNL     1      20.761  -7.404  25.074  0.00  0.00    +0.000 NA
ATOM      2  C   UNL     1      20.506  -8.274  26.162  0.00  0.00    +0.000 A 
ATOM      3  N   UNL     1      21.445  -9.113  26.617  0.00  0.00    +0.000 NA
ATOM      4  C   UNL     1      21.188  -9.936  27.653  0.00  0.00    +0.000 A 
ATOM      5  C   UNL     1      22.269 -10.846  28.116  0.00  0.00    +0.000 C 
ATOM      6  C   UNL     1      19.951  -9.910  28.242  0.00  0.00    +0.000 A 
ATOM      7  C   UNL     1      18.966  -9.055  27.792  0.00  0.00    +0.000 A 
ATOM      8  C   UNL     1      17.612  -9.009  28.418  0.00  0.00    +0.000 C 
ATOM      9  C   UNL     1      19.265  -8.234  26.737  0.00  0.00    +0.000 A 
ENDROOT
BRANCH   1  13
ATOM     10  C   UNL     1      24.565  -7.348  23.284  0.00  0.00    +0.000 A 
ATOM     11  C   UNL     1      24.204  -6.419  24.229  0.00  0.00    +0.000 A 
ATOM     12  C   UNL     1      22.949  -6.475  24.786  0.00  0.00    +0.000 A 
ATOM     13  C   UNL     1      22.026  -7.415  24.454  0.00  0.00    +0.000 A 
ATOM     14  C   UNL     1      22.396  -8.349  23.502  0.00  0.00    +0.000 A 
ATOM     15  C   UNL     1      23.652  -8.302  22.935  0.00  0.00    +0.000 A 
BRANCH  10  17
ATOM     16  C   UNL     1      26.626  -8.404  22.446  0.00  0.00    +0.000 C 
ATOM     17  O   UNL     1      25.837  -7.252  22.749  0.00  0.00    +0.000 OA
ENDBRANCH  10  17
ENDBRANCH   1  13
BRANCH   9  18
ATOM     18  C   UNL     1      18.253  -7.316  26.231  0.00  0.00    +0.000 C 
ATOM     19  N   UNL     1      18.184  -5.972  26.692  0.00  0.00    +0.000 NA
ATOM     20  O   UNL     1      17.404  -7.667  25.372  0.00  0.00    +0.000 OA
ENDBRANCH   9  18
TORSDOF 3
ENDMDL
MODEL 6
REMARK VINA RESULT:      -5.6      3.227      5.069
REMARK  Name = 
REMARK  3 active torsions:
REMARK  status: ('A' for Active; 'I' for Inactive)
REMARK    1  A    between atoms: O_2  and  C_3
REMARK    2  A    between atoms: C_6  and  N_7
REMARK    3  A    between atoms: C_15  and  C_16
REMARK                            x       y       z     vdW  Elec       q    Type
REMARK                         _______ _______ _______ _____ _____    ______ ____
ROOT
ATOM      1  N   UNL     1      18.365   9.501  39.634  0.00  0.00    +0.000 NA
ATOM      2  C   UNL     1      18.145   8.237  40.234  0.00  0.00    +0.000 A 
ATOM      3  N   UNL     1      18.884   7.170  39.904  0.00  0.00    +0.000 NA
ATOM      4  C   UNL     1      18.662   5.975  40.484  0.00  0.00    +0.000 A 
ATOM      5  C   UNL     1      19.514   4.825  40.078  0.00  0.00    +0.000 C 
ATOM      6  C   UNL     1      17.668   5.854  41.420  0.00  0.00    +0.000 A 
ATOM      7  C   UNL     1      16.892   6.937  41.777  0.00  0.00    +0.000 A 
ATOM      8  C   UNL     1      15.805   6.830  42.794  0.00  0.00    +0.000 C 
ATOM      9  C   UNL     1      17.147   8.137  41.166  0.00  0.00    +0.000 A 
ENDROOT
BRANCH   1  13
ATOM     10  C   UNL     1      21.473   9.947  36.837  0.00  0.00    +0.000 A 
ATOM     11  C   UNL     1      21.708  10.023  38.188  0.00  0.00    +0.000 A 
ATOM     12  C   UNL     1      20.661   9.872  39.065  0.00  0.00    +0.000 A 
ATOM     13  C   UNL     1      19.382   9.645  38.669  0.00  0.00    +0.000 A 
ATOM     14  C   UNL     1      19.151   9.569  37.306  0.00  0.00    +0.000 A 
ATOM     15  C   UNL     1      20.194   9.721  36.416  0.00  0.00    +0.000 A 
BRANCH  10  17
ATOM     16  C   UNL     1      23.788   9.410  36.190  0.00  0.00    +0.000 C 
ATOM     17  O   UNL     1      22.556  10.107  35.991  0.00  0.00    +0.000 OA
ENDBRANCH  10  17
ENDBRANCH   1  13
BRANCH   9  18
ATOM     18  C   UNL     1      16.351   9.306  41.515  0.00  0.00    +0.000 C 
ATOM     19  N   UNL     1      15.188   9.650  40.771  0.00  0.00    +0.000 NA
ATOM     20  O   UNL     1      16.653  10.056  42.478  0.00  0.00    +0.000 OA
ENDBRANCH   9  18
TORSDOF 3
ENDMDL
MODEL 7
REMARK VINA RESULT:      -5.6      3.450      6.715
REMARK  Name = 
REMARK  3 active torsions:
REMARK  status: ('A' for Active; 'I' for Inactive)
REMARK    1  A    between atoms: O_2  and  C_3
REMARK    2  A    between atoms: C_6  and  N_7
REMARK    3  A    between atoms: C_15  and  C_16
REMARK                            x       y       z     vdW  Elec       q    Type
REMARK                         _______ _______ _______ _____ _____    ______ ____
ROOT
ATOM      1  N   UNL     1      21.516   9.718  37.067  0.00  0.00    +0.000 NA
ATOM      2  C   UNL     1      20.818  10.885  37.467  0.00  0.00    +0.000 A 
ATOM      3  N   UNL     1      21.466  11.953  37.949  0.00  0.00    +0.000 NA
ATOM      4  C   UNL     1      20.788  13.055  38.325  0.00  0.00    +0.000 A 
ATOM      5  C   UNL     1      21.559  14.212  38.853  0.00  0.00    +0.000 C 
ATOM      6  C   UNL     1      19.422  13.076  38.212  0.00  0.00    +0.000 A 
ATOM      7  C   UNL     1      18.731  11.989  37.719  0.00  0.00    +0.000 A 
ATOM      8  C   UNL     1      17.245  11.990  37.587  0.00  0.00    +0.000 C 
ATOM      9  C   UNL     1      19.455  10.887  37.347  0.00  0.00    +0.000 A 
ENDROOT
BRANCH   1  13
ATOM     10  C   UNL     1      25.696   9.534  37.488  0.00  0.00    +0.000 A 
ATOM     11  C   UNL     1      24.857   8.957  38.410  0.00  0.00    +0.000 A 
ATOM     12  C   UNL     1      23.497   9.043  38.231  0.00  0.00    +0.000 A 
ATOM     13  C   UNL     1      22.920   9.676  37.176  0.00  0.00    +0.000 A 
ATOM     14  C   UNL     1      23.771  10.255  36.251  0.00  0.00    +0.000 A 
ATOM     15  C   UNL     1      25.138  10.176  36.419  0.00  0.00    +0.000 A 
BRANCH  10  17
ATOM     16  C   UNL     1      27.602   8.534  38.686  0.00  0.00    +0.000 C 
ATOM     17  O   UNL     1      27.058   9.423  37.709  0.00  0.00    +0.000 OA
ENDBRANCH  10  17
ENDBRANCH   1  13
BRANCH   9  18
ATOM     18  C   UNL     1      18.765   9.716  36.821  0.00  0.00    +0.000 C 
ATOM     19  N   UNL     1      18.547   9.558  35.424  0.00  0.00    +0.000 NA
ATOM     20  O   UNL     1      18.335   8.803  37.571  0.00  0.00    +0.000 OA
ENDBRANCH   9  18
TORSDOF 3
ENDMDL
MODEL 8
REMARK VINA RESULT:      -5.6     16.601     18.320
REMARK  Name = 
REMARK  3 active torsions:
REMARK  status: ('A' for Active; 'I' for Inactive)
REMARK    1  A    between atoms: O_2  and  C_3
REMARK    2  A    between atoms: C_6  and  N_7
REMARK    3  A    between atoms: C_15  and  C_16
REMARK                            x       y       z     vdW  Elec       q    Type
REMARK                         _______ _______ _______ _____ _____    ______ ____
ROOT
ATOM      1  N   UNL     1      33.101   0.865  33.943  0.00  0.00    +0.000 NA
ATOM      2  C   UNL     1      33.653   1.676  34.965  0.00  0.00    +0.000 A 
ATOM      3  N   UNL     1      34.027   1.157  36.141  0.00  0.00    +0.000 NA
ATOM      4  C   UNL     1      34.550   1.941  37.103  0.00  0.00    +0.000 A 
ATOM      5  C   UNL     1      34.948   1.311  38.390  0.00  0.00    +0.000 C 
ATOM      6  C   UNL     1      34.699   3.284  36.870  0.00  0.00    +0.000 A 
ATOM      7  C   UNL     1      34.322   3.844  35.667  0.00  0.00    +0.000 A 
ATOM      8  C   UNL     1      34.475   5.303  35.390  0.00  0.00    +0.000 C 
ATOM      9  C   UNL     1      33.793   3.014  34.713  0.00  0.00    +0.000 A 
ENDROOT
BRANCH   1  13
ATOM     10  C   UNL     1      32.698  -3.281  34.524  0.00  0.00    +0.000 A 
ATOM     11  C   UNL     1      33.608  -2.767  33.633  0.00  0.00    +0.000 A 
ATOM     12  C   UNL     1      33.704  -1.405  33.476  0.00  0.00    +0.000 A 
ATOM     13  C   UNL     1      32.939  -0.518  34.164  0.00  0.00    +0.000 A 
ATOM     14  C   UNL     1      32.024  -1.041  35.060  0.00  0.00    +0.000 A 
ATOM     15  C   UNL     1      31.918  -2.406  35.226  0.00  0.00    +0.000 A 
BRANCH  10  17
ATOM     16  C   UNL     1      32.460  -5.517  33.521  0.00  0.00    +0.000 C 
ATOM     17  O   UNL     1      32.635  -4.657  34.648  0.00  0.00    +0.000 OA
ENDBRANCH  10  17
ENDBRANCH   1  13
BRANCH   9  18
ATOM     18  C   UNL     1      33.382   3.564  33.428  0.00  0.00    +0.000 C 
ATOM     19  N   UNL     1      32.403   4.593  33.350  0.00  0.00    +0.000 NA
ATOM     20  O   UNL     1      33.869   3.158  32.342  0.00  0.00    +0.000 OA
ENDBRANCH   9  18
TORSDOF 3
ENDMDL
MODEL 9
REMARK VINA RESULT:      -5.5     17.309     19.112
REMARK  Name = 
REMARK  3 active torsions:
REMARK  status: ('A' for Active; 'I' for Inactive)
REMARK    1  A    between atoms: O_2  and  C_3
REMARK    2  A    between atoms: C_6  and  N_7
REMARK    3  A    between atoms: C_15  and  C_16
REMARK                            x       y       z     vdW  Elec       q    Type
REMARK                         _______ _______ _______ _____ _____    ______ ____
ROOT
ATOM      1  N   UNL     1      26.753  23.383  27.615  0.00  0.00    +0.000 NA
ATOM      2  C   UNL     1      27.986  23.151  28.271  0.00  0.00    +0.000 A 
ATOM      3  N   UNL     1      29.151  23.237  27.616  0.00  0.00    +0.000 NA
ATOM      4  C   UNL     1      30.316  23.014  28.254  0.00  0.00    +0.000 A 
ATOM      5  C   UNL     1      31.579  23.124  27.476  0.00  0.00    +0.000 C 
ATOM      6  C   UNL     1      30.303  22.693  29.587  0.00  0.00    +0.000 A 
ATOM      7  C   UNL     1      29.117  22.598  30.285  0.00  0.00    +0.000 A 
ATOM      8  C   UNL     1      29.079  22.251  31.736  0.00  0.00    +0.000 C 
ATOM      9  C   UNL     1      27.953  22.832  29.602  0.00  0.00    +0.000 A 
ENDROOT
BRANCH   1  13
ATOM     10  C   UNL     1      26.746  24.474  23.554  0.00  0.00    +0.000 A 
ATOM     11  C   UNL     1      26.953  25.403  24.545  0.00  0.00    +0.000 A 
ATOM     12  C   UNL     1      26.946  25.000  25.859  0.00  0.00    +0.000 A 
ATOM     13  C   UNL     1      26.744  23.713  26.245  0.00  0.00    +0.000 A 
ATOM     14  C   UNL     1      26.537  22.782  25.242  0.00  0.00    +0.000 A 
ATOM     15  C   UNL     1      26.541  23.174  23.919  0.00  0.00    +0.000 A 
BRANCH  10  17
ATOM     16  C   UNL     1      27.977  25.184  21.542  0.00  0.00    +0.000 C 
ATOM     17  O   UNL     1      26.761  24.925  22.246  0.00  0.00    +0.000 OA
ENDBRANCH  10  17
ENDBRANCH   1  13
BRANCH   9  18
ATOM     18  C   UNL     1      26.678  22.741  30.301  0.00  0.00    +0.000 C 
ATOM     19  N   UNL     1      26.061  23.897  30.855  0.00  0.00    +0.000 NA
ATOM     20  O   UNL     1      26.072  21.649  30.445  0.00  0.00    +0.000 OA
ENDBRANCH   9  18
TORSDOF 3
ENDMDL
MODEL 10
REMARK VINA RESULT:      -5.5     20.903     22.897
REMARK  Name = 
REMARK  3 active torsions:
REMARK  status: ('A' for Active; 'I' for Inactive)
REMARK    1  A    between atoms: O_2  and  C_3
REMARK    2  A    between atoms: C_6  and  N_7
REMARK    3  A    between atoms: C_15  and  C_16
REMARK                            x       y       z     vdW  Elec       q    Type
REMARK                         _______ _______ _______ _____ _____    ______ ____
ROOT
ATOM      1  N   UNL     1      27.874  25.013  23.386  0.00  0.00    +0.000 NA
ATOM      2  C   UNL     1      28.723  24.257  24.230  0.00  0.00    +0.000 A 
ATOM      3  N   UNL     1      30.049  24.237  24.047  0.00  0.00    +0.000 NA
ATOM      4  C   UNL     1      30.844  23.513  24.858  0.00  0.00    +0.000 A 
ATOM      5  C   UNL     1      32.310  23.528  24.608  0.00  0.00    +0.000 C 
ATOM      6  C   UNL     1      30.284  22.790  25.880  0.00  0.00    +0.000 A 
ATOM      7  C   UNL     1      28.921  22.794  26.090  0.00  0.00    +0.000 A 
ATOM      8  C   UNL     1      28.289  22.015  27.196  0.00  0.00    +0.000 C 
ATOM      9  C   UNL     1      28.145  23.542  25.245  0.00  0.00    +0.000 A 
ENDROOT
BRANCH   1  13
ATOM     10  C   UNL     1      29.511  27.343  20.291  0.00  0.00    +0.000 A 
ATOM     11  C   UNL     1      29.005  27.919  21.431  0.00  0.00    +0.000 A 
ATOM     12  C   UNL     1      28.479  27.117  22.416  0.00  0.00    +0.000 A 
ATOM     13  C   UNL     1      28.429  25.762  22.330  0.00  0.00    +0.000 A 
ATOM     14  C   UNL     1      28.941  25.188  21.179  0.00  0.00    +0.000 A 
ATOM     15  C   UNL     1      29.470  25.982  20.183  0.00  0.00    +0.000 A 
BRANCH  10  17
ATOM     16  C   UNL     1      31.107  27.800  18.473  0.00  0.00    +0.000 C 
ATOM     17  O   UNL     1      30.029  28.188  19.326  0.00  0.00    +0.000 OA
ENDBRANCH  10  17
ENDBRANCH   1  13
BRANCH   9  18
ATOM     18  C   UNL     1      26.700  23.574  25.431  0.00  0.00    +0.000 C 
ATOM     19  N   UNL     1      26.089  24.552  26.264  0.00  0.00    +0.000 NA
ATOM     20  O   UNL     1      25.937  22.746  24.871  0.00  0.00    +0.000 OA
ENDBRANCH   9  18
TORSDOF 3
ENDMDL
