MODEL 1
REMARK VINA RESULT:      -7.9      0.000      0.000
REMARK  Name = 
REMARK  2 active torsions:
REMARK  status: ('A' for Active; 'I' for Inactive)
REMARK    1  A    between atoms: C_2  and  C_5
REMARK    2  A    between atoms: C_7  and  C_8
REMARK                            x       y       z     vdW  Elec       q    Type
REMARK                         _______ _______ _______ _____ _____    ______ ____
ROOT
ATOM      1  C   UNL     1      14.857  12.812  32.409  0.00  0.00    +0.000 A 
ATOM      2  C   UNL     1      15.081  12.586  33.758  0.00  0.00    +0.000 A 
ATOM      3  C   UNL     1      15.753  11.492  34.238  0.00  0.00    +0.000 A 
ATOM      4  N   UNL     1      16.212  10.601  33.306  0.00  0.00    +0.000 NA
ATOM      5  C   UNL     1      16.010  10.793  31.978  0.00  0.00    +0.000 A 
ATOM      6  N   UNL     1      16.491   9.840  31.047  0.00  0.00    +0.000 NA
ATOM      7  N   UNL     1      15.342  11.883  31.563  0.00  0.00    +0.000 NA
ENDROOT
BRANCH   3   8
ATOM      8  C   UNL     1      16.060  11.220  35.630  0.00  0.00    +0.000 A 
ATOM      9  C   UNL     1      17.323  10.906  36.088  0.00  0.00    +0.000 A 
ATOM     10  C   UNL     1      17.533  10.609  37.443  0.00  0.00    +0.000 A 
ATOM     11  C   UNL     1      16.530  10.610  38.351  0.00  0.00    +0.000 A 
ATOM     12  F   UNL     1      16.723  10.325  39.673  0.00  0.00    +0.000 F 
ATOM     13  C   UNL     1      15.232  10.927  37.896  0.00  0.00    +0.000 A 
ATOM     14  C   UNL     1      14.199  10.900  38.826  0.00  0.00    +0.000 A 
ATOM     15  C   UNL     1      12.908  11.187  38.368  0.00  0.00    +0.000 A 
ATOM     16  C   UNL     1      12.721  11.481  37.018  0.00  0.00    +0.000 A 
ATOM     17  C   UNL     1      13.758  11.500  36.137  0.00  0.00    +0.000 A 
ATOM     18  C   UNL     1      15.036  11.220  36.568  0.00  0.00    +0.000 A 
ENDBRANCH   3   8
BRANCH   1  20
ATOM     19  C   UNL     1      13.154  13.497  30.887  0.00  0.00    +0.000 C 
ATOM     20  C   UNL     1      14.117  14.046  31.950  0.00  0.00    +0.000 C 
ATOM     21  C   UNL     1      13.359  14.685  33.073  0.00  0.00    +0.000 C 
ATOM     22  F   UNL     1      15.007  14.877  31.310  0.00  0.00    +0.000 F 
ENDBRANCH   1  20
TORSDOF 2
ENDMDL
MODEL 2
REMARK VINA RESULT:      -7.7     17.306     19.364
REMARK  Name = 
REMARK  2 active torsions:
REMARK  status: ('A' for Active; 'I' for Inactive)
REMARK    1  A    between atoms: C_2  and  C_5
REMARK    2  A    between atoms: C_7  and  C_8
REMARK                            x       y       z     vdW  Elec       q    Type
REMARK                         _______ _______ _______ _____ _____    ______ ____
ROOT
ATOM      1  C   UNL     1      26.545  24.593  30.300  0.00  0.00    +0.000 A 
ATOM      2  C   UNL     1      27.456  24.413  29.271  0.00  0.00    +0.000 A 
ATOM      3  C   UNL     1      27.822  23.181  28.794  0.00  0.00    +0.000 A 
ATOM      4  N   UNL     1      27.235  22.097  29.391  0.00  0.00    +0.000 NA
ATOM      5  C   UNL     1      26.339  22.240  30.400  0.00  0.00    +0.000 A 
ATOM      6  N   UNL     1      25.763  21.091  30.998  0.00  0.00    +0.000 NA
ATOM      7  N   UNL     1      26.017  23.472  30.828  0.00  0.00    +0.000 NA
ENDROOT
BRANCH   3   8
ATOM      8  C   UNL     1      28.732  22.925  27.693  0.00  0.00    +0.000 A 
ATOM      9  C   UNL     1      30.071  22.641  27.859  0.00  0.00    +0.000 A 
ATOM     10  C   UNL     1      30.900  22.451  26.742  0.00  0.00    +0.000 A 
ATOM     11  C   UNL     1      30.440  22.539  25.473  0.00  0.00    +0.000 A 
ATOM     12  F   UNL     1      31.236  22.354  24.379  0.00  0.00    +0.000 F 
ATOM     13  C   UNL     1      29.071  22.831  25.289  0.00  0.00    +0.000 A 
ATOM     14  C   UNL     1      28.608  22.949  23.983  0.00  0.00    +0.000 A 
ATOM     15  C   UNL     1      27.257  23.268  23.803  0.00  0.00    +0.000 A 
ATOM     16  C   UNL     1      26.451  23.450  24.925  0.00  0.00    +0.000 A 
ATOM     17  C   UNL     1      26.940  23.324  26.188  0.00  0.00    +0.000 A 
ATOM     18  C   UNL     1      28.267  23.013  26.388  0.00  0.00    +0.000 A 
ENDBRANCH   3   8
BRANCH   1  20
ATOM     19  C   UNL     1      26.184  26.797  29.466  0.00  0.00    +0.000 C 
ATOM     20  C   UNL     1      26.179  25.981  30.767  0.00  0.00    +0.000 C 
ATOM     21  C   UNL     1      24.824  26.011  31.405  0.00  0.00    +0.000 C 
ATOM     22  F   UNL     1      27.198  26.460  31.557  0.00  0.00    +0.000 F 
ENDBRANCH   1  20
TORSDOF 2
ENDMDL
MODEL 3
REMARK VINA RESULT:      -7.6      3.494      7.195
REMARK  Name = 
REMARK  2 active torsions:
REMARK  status: ('A' for Active; 'I' for Inactive)
REMARK    1  A    between atoms: C_2  and  C_5
REMARK    2  A    between atoms: C_7  and  C_8
REMARK                            x       y       z     vdW  Elec       q    Type
REMARK                         _______ _______ _______ _____ _____    ______ ____
ROOT
ATOM      1  C   UNL     1      17.826   9.516  40.253  0.00  0.00    +0.000 A 
ATOM      2  C   UNL     1      17.373   9.588  38.945  0.00  0.00    +0.000 A 
ATOM      3  C   UNL     1      18.058  10.224  37.942  0.00  0.00    +0.000 A 
ATOM      4  N   UNL     1      19.246  10.806  38.290  0.00  0.00    +0.000 NA
ATOM      5  C   UNL     1      19.719  10.753  39.561  0.00  0.00    +0.000 A 
ATOM      6  N   UNL     1      20.949  11.379  39.882  0.00  0.00    +0.000 NA
ATOM      7  N   UNL     1      19.005  10.117  40.506  0.00  0.00    +0.000 NA
ENDROOT
BRANCH   3   8
ATOM      8  C   UNL     1      17.662  10.296  36.548  0.00  0.00    +0.000 A 
ATOM      9  C   UNL     1      18.350   9.678  35.525  0.00  0.00    +0.000 A 
ATOM     10  C   UNL     1      17.931   9.833  34.194  0.00  0.00    +0.000 A 
ATOM     11  C   UNL     1      16.858  10.583  33.852  0.00  0.00    +0.000 A 
ATOM     12  F   UNL     1      16.441  10.739  32.561  0.00  0.00    +0.000 F 
ATOM     13  C   UNL     1      16.146  11.223  34.889  0.00  0.00    +0.000 A 
ATOM     14  C   UNL     1      15.062  12.016  34.532  0.00  0.00    +0.000 A 
ATOM     15  C   UNL     1      14.374  12.673  35.559  0.00  0.00    +0.000 A 
ATOM     16  C   UNL     1      14.805  12.504  36.874  0.00  0.00    +0.000 A 
ATOM     17  C   UNL     1      15.871  11.718  37.185  0.00  0.00    +0.000 A 
ATOM     18  C   UNL     1      16.561  11.063  36.189  0.00  0.00    +0.000 A 
ENDBRANCH   3   8
BRANCH   1  20
ATOM     19  C   UNL     1      15.597   9.301  41.068  0.00  0.00    +0.000 C 
ATOM     20  C   UNL     1      17.025   8.788  41.304  0.00  0.00    +0.000 C 
ATOM     21  C   UNL     1      17.092   7.303  41.121  0.00  0.00    +0.000 C 
ATOM     22  F   UNL     1      17.422   9.233  42.544  0.00  0.00    +0.000 F 
ENDBRANCH   1  20
TORSDOF 2
ENDMDL
MODEL 4
REMARK VINA RESULT:      -7.4      5.509      7.444
REMARK  Name = 
REMARK  2 active torsions:
REMARK  status: ('A' for Active; 'I' for Inactive)
REMARK    1  A    between atoms: C_2  and  C_5
REMARK    2  A    between atoms: C_7  and  C_8
REMARK                            x       y       z     vdW  Elec       q    Type
REMARK                         _______ _______ _______ _____ _____    ______ ____
ROOT
ATOM      1  C   UNL     1      20.538   9.875  37.657  0.00  0.00    +0.000 A 
ATOM      2  C   UNL     1      19.786   9.559  38.777  0.00  0.00    +0.000 A 
ATOM      3  C   UNL     1      18.461   9.212  38.724  0.00  0.00    +0.000 A 
ATOM      4  N   UNL     1      17.887   9.187  37.482  0.00  0.00    +0.000 NA
ATOM      5  C   UNL     1      18.596   9.491  36.365  0.00  0.00    +0.000 A 
ATOM      6  N   UNL     1      17.960   9.464  35.098  0.00  0.00    +0.000 NA
ATOM      7  N   UNL     1      19.893   9.826  36.476  0.00  0.00    +0.000 NA
ENDROOT
BRANCH   3   8
ATOM      8  C   UNL     1      17.632   8.826  39.851  0.00  0.00    +0.000 A 
ATOM      9  C   UNL     1      16.695   9.657  40.429  0.00  0.00    +0.000 A 
ATOM     10  C   UNL     1      15.962   9.229  41.547  0.00  0.00    +0.000 A 
ATOM     11  C   UNL     1      16.135   8.009  42.107  0.00  0.00    +0.000 A 
ATOM     12  F   UNL     1      15.427   7.582  43.193  0.00  0.00    +0.000 F 
ATOM     13  C   UNL     1      17.093   7.150  41.526  0.00  0.00    +0.000 A 
ATOM     14  C   UNL     1      17.289   5.909  42.120  0.00  0.00    +0.000 A 
ATOM     15  C   UNL     1      18.260   5.069  41.560  0.00  0.00    +0.000 A 
ATOM     16  C   UNL     1      18.975   5.513  40.449  0.00  0.00    +0.000 A 
ATOM     17  C   UNL     1      18.753   6.735  39.893  0.00  0.00    +0.000 A 
ATOM     18  C   UNL     1      17.804   7.576  40.429  0.00  0.00    +0.000 A 
ENDBRANCH   3   8
BRANCH   1  20
ATOM     19  C   UNL     1      22.564   9.909  36.400  0.00  0.00    +0.000 C 
ATOM     20  C   UNL     1      21.997  10.238  37.789  0.00  0.00    +0.000 C 
ATOM     21  C   UNL     1      22.179  11.692  38.105  0.00  0.00    +0.000 C 
ATOM     22  F   UNL     1      22.583   9.377  38.687  0.00  0.00    +0.000 F 
ENDBRANCH   1  20
TORSDOF 2
ENDMDL
MODEL 5
REMARK VINA RESULT:      -7.3      5.189      7.782
REMARK  Name = 
REMARK  2 active torsions:
REMARK  status: ('A' for Active; 'I' for Inactive)
REMARK    1  A    between atoms: C_2  and  C_5
REMARK    2  A    between atoms: C_7  and  C_8
REMARK                            x       y       z     vdW  Elec       q    Type
REMARK                         _______ _______ _______ _____ _____    ______ ____
ROOT
ATOM      1  C   UNL     1      17.678  10.808  37.742  0.00  0.00    +0.000 A 
ATOM      2  C   UNL     1      18.884  11.489  37.708  0.00  0.00    +0.000 A 
ATOM      3  C   UNL     1      20.021  11.044  38.332  0.00  0.00    +0.000 A 
ATOM      4  N   UNL     1      19.919   9.862  39.013  0.00  0.00    +0.000 NA
ATOM      5  C   UNL     1      18.752   9.169  39.066  0.00  0.00    +0.000 A 
ATOM      6  N   UNL     1      18.686   7.955  39.792  0.00  0.00    +0.000 NA
ATOM      7  N   UNL     1      17.668   9.653  38.436  0.00  0.00    +0.000 NA
ENDROOT
BRANCH   3   8
ATOM      8  C   UNL     1      21.323  11.685  38.297  0.00  0.00    +0.000 A 
ATOM      9  C   UNL     1      21.599  12.888  38.910  0.00  0.00    +0.000 A 
ATOM     10  C   UNL     1      22.872  13.469  38.793  0.00  0.00    +0.000 A 
ATOM     11  C   UNL     1      23.870  12.893  38.084  0.00  0.00    +0.000 A 
ATOM     12  F   UNL     1      25.113  13.447  37.965  0.00  0.00    +0.000 F 
ATOM     13  C   UNL     1      23.600  11.661  37.450  0.00  0.00    +0.000 A 
ATOM     14  C   UNL     1      24.619  11.086  36.699  0.00  0.00    +0.000 A 
ATOM     15  C   UNL     1      24.341   9.879  36.047  0.00  0.00    +0.000 A 
ATOM     16  C   UNL     1      23.071   9.319  36.178  0.00  0.00    +0.000 A 
ATOM     17  C   UNL     1      22.099   9.911  36.924  0.00  0.00    +0.000 A 
ATOM     18  C   UNL     1      22.352  11.099  37.573  0.00  0.00    +0.000 A 
ENDBRANCH   3   8
BRANCH   1  20
ATOM     19  C   UNL     1      15.322  11.067  38.004  0.00  0.00    +0.000 C 
ATOM     20  C   UNL     1      16.468  11.352  37.022  0.00  0.00    +0.000 C 
ATOM     21  C   UNL     1      16.592  12.823  36.765  0.00  0.00    +0.000 C 
ATOM     22  F   UNL     1      16.248  10.589  35.899  0.00  0.00    +0.000 F 
ENDBRANCH   1  20
TORSDOF 2
ENDMDL
MODEL 6
REMARK VINA RESULT:      -7.2      5.120      7.604
REMARK  Name = 
REMARK  2 active torsions:
REMARK  status: ('A' for Active; 'I' for Inactive)
REMARK    1  A    between atoms: C_2  and  C_5
REMARK    2  A    between atoms: C_7  and  C_8
REMARK                            x       y       z     vdW  Elec       q    Type
REMARK                         _______ _______ _______ _____ _____    ______ ____
ROOT
ATOM      1  C   UNL     1      17.531  10.640  37.700  0.00  0.00    +0.000 A 
ATOM      2  C   UNL     1      18.822  10.821  37.230  0.00  0.00    +0.000 A 
ATOM      3  C   UNL     1      19.920  10.226  37.794  0.00  0.00    +0.000 A 
ATOM      4  N   UNL     1      19.689   9.419  38.875  0.00  0.00    +0.000 NA
ATOM      5  C   UNL     1      18.437   9.221  39.360  0.00  0.00    +0.000 A 
ATOM      6  N   UNL     1      18.242   8.387  40.488  0.00  0.00    +0.000 NA
ATOM      7  N   UNL     1      17.396   9.831  38.768  0.00  0.00    +0.000 NA
ENDROOT
BRANCH   3   8
ATOM      8  C   UNL     1      21.289  10.336  37.324  0.00  0.00    +0.000 A 
ATOM      9  C   UNL     1      21.886   9.420  36.484  0.00  0.00    +0.000 A 
ATOM     10  C   UNL     1      23.230   9.570  36.110  0.00  0.00    +0.000 A 
ATOM     11  C   UNL     1      23.995  10.597  36.547  0.00  0.00    +0.000 A 
ATOM     12  F   UNL     1      25.304  10.754  36.188  0.00  0.00    +0.000 F 
ATOM     13  C   UNL     1      23.398  11.542  37.409  0.00  0.00    +0.000 A 
ATOM     14  C   UNL     1      24.194  12.580  37.879  0.00  0.00    +0.000 A 
ATOM     15  C   UNL     1      23.608  13.499  38.756  0.00  0.00    +0.000 A 
ATOM     16  C   UNL     1      22.271  13.333  39.113  0.00  0.00    +0.000 A 
ATOM     17  C   UNL     1      21.522  12.305  38.631  0.00  0.00    +0.000 A 
ATOM     18  C   UNL     1      22.080  11.388  37.767  0.00  0.00    +0.000 A 
ENDBRANCH   3   8
BRANCH   1  20
ATOM     19  C   UNL     1      15.201  11.058  37.989  0.00  0.00    +0.000 C 
ATOM     20  C   UNL     1      16.365  11.319  37.022  0.00  0.00    +0.000 C 
ATOM     21  C   UNL     1      16.600  12.790  36.860  0.00  0.00    +0.000 C 
ATOM     22  F   UNL     1      16.087  10.649  35.854  0.00  0.00    +0.000 F 
ENDBRANCH   1  20
TORSDOF 2
ENDMDL
MODEL 7
REMARK VINA RESULT:      -7.1     17.085     19.420
REMARK  Name = 
REMARK  2 active torsions:
REMARK  status: ('A' for Active; 'I' for Inactive)
REMARK    1  A    between atoms: C_2  and  C_5
REMARK    2  A    between atoms: C_7  and  C_8
REMARK                            x       y       z     vdW  Elec       q    Type
REMARK                         _______ _______ _______ _____ _____    ______ ____
ROOT
ATOM      1  C   UNL     1      26.176  24.886  30.256  0.00  0.00    +0.000 A 
ATOM      2  C   UNL     1      26.434  24.871  28.894  0.00  0.00    +0.000 A 
ATOM      3  C   UNL     1      26.566  23.718  28.164  0.00  0.00    +0.000 A 
ATOM      4  N   UNL     1      26.430  22.542  28.851  0.00  0.00    +0.000 NA
ATOM      5  C   UNL     1      26.177  22.523  30.184  0.00  0.00    +0.000 A 
ATOM      6  N   UNL     1      26.054  21.283  30.860  0.00  0.00    +0.000 NA
ATOM      7  N   UNL     1      26.057  23.684  30.851  0.00  0.00    +0.000 NA
ENDROOT
BRANCH   3   8
ATOM      8  C   UNL     1      26.791  23.633  26.733  0.00  0.00    +0.000 A 
ATOM      9  C   UNL     1      25.812  23.868  25.790  0.00  0.00    +0.000 A 
ATOM     10  C   UNL     1      26.094  23.721  24.423  0.00  0.00    +0.000 A 
ATOM     11  C   UNL     1      27.311  23.344  23.968  0.00  0.00    +0.000 A 
ATOM     12  F   UNL     1      27.597  23.199  22.641  0.00  0.00    +0.000 F 
ATOM     13  C   UNL     1      28.321  23.097  24.923  0.00  0.00    +0.000 A 
ATOM     14  C   UNL     1      29.563  22.683  24.454  0.00  0.00    +0.000 A 
ATOM     15  C   UNL     1      30.555  22.411  25.403  0.00  0.00    +0.000 A 
ATOM     16  C   UNL     1      30.255  22.566  26.756  0.00  0.00    +0.000 A 
ATOM     17  C   UNL     1      29.028  22.976  27.177  0.00  0.00    +0.000 A 
ATOM     18  C   UNL     1      28.037  23.248  26.259  0.00  0.00    +0.000 A 
ENDBRANCH   3   8
BRANCH   1  20
ATOM     19  C   UNL     1      24.554  26.191  31.418  0.00  0.00    +0.000 C 
ATOM     20  C   UNL     1      26.030  26.195  30.995  0.00  0.00    +0.000 C 
ATOM     21  C   UNL     1      26.925  26.254  32.195  0.00  0.00    +0.000 C 
ATOM     22  F   UNL     1      26.200  27.224  30.099  0.00  0.00    +0.000 F 
ENDBRANCH   1  20
TORSDOF 2
ENDMDL
MODEL 8
REMARK VINA RESULT:      -7.1     17.655     19.599
REMARK  Name = 
REMARK  2 active torsions:
REMARK  status: ('A' for Active; 'I' for Inactive)
REMARK    1  A    between atoms: C_2  and  C_5
REMARK    2  A    between atoms: C_7  and  C_8
REMARK                            x       y       z     vdW  Elec       q    Type
REMARK                         _______ _______ _______ _____ _____    ______ ____
ROOT
ATOM      1  C   UNL     1      27.857  24.810  23.548  0.00  0.00    +0.000 A 
ATOM      2  C   UNL     1      27.455  25.101  24.842  0.00  0.00    +0.000 A 
ATOM      3  C   UNL     1      26.313  24.598  25.408  0.00  0.00    +0.000 A 
ATOM      4  N   UNL     1      25.557  23.769  24.624  0.00  0.00    +0.000 NA
ATOM      5  C   UNL     1      25.924  23.464  23.353  0.00  0.00    +0.000 A 
ATOM      6  N   UNL     1      25.107  22.610  22.570  0.00  0.00    +0.000 NA
ATOM      7  N   UNL     1      27.054  23.987  22.848  0.00  0.00    +0.000 NA
ENDROOT
BRANCH   3   8
ATOM      8  C   UNL     1      25.860  24.826  26.768  0.00  0.00    +0.000 A 
ATOM      9  C   UNL     1      24.990  25.835  27.125  0.00  0.00    +0.000 A 
ATOM     10  C   UNL     1      24.633  26.022  28.470  0.00  0.00    +0.000 A 
ATOM     11  C   UNL     1      25.117  25.243  29.465  0.00  0.00    +0.000 A 
ATOM     12  F   UNL     1      24.776  25.415  30.776  0.00  0.00    +0.000 F 
ATOM     13  C   UNL     1      26.010  24.208  29.114  0.00  0.00    +0.000 A 
ATOM     14  C   UNL     1      26.528  23.427  30.141  0.00  0.00    +0.000 A 
ATOM     15  C   UNL     1      27.435  22.420  29.794  0.00  0.00    +0.000 A 
ATOM     16  C   UNL     1      27.774  22.250  28.453  0.00  0.00    +0.000 A 
ATOM     17  C   UNL     1      27.245  23.033  27.474  0.00  0.00    +0.000 A 
ATOM     18  C   UNL     1      26.351  24.031  27.794  0.00  0.00    +0.000 A 
ENDBRANCH   3   8
BRANCH   1  20
ATOM     19  C   UNL     1      30.202  24.884  23.973  0.00  0.00    +0.000 C 
ATOM     20  C   UNL     1      29.135  25.391  22.992  0.00  0.00    +0.000 C 
ATOM     21  C   UNL     1      29.411  24.895  21.606  0.00  0.00    +0.000 C 
ATOM     22  F   UNL     1      29.082  26.760  23.114  0.00  0.00    +0.000 F 
ENDBRANCH   1  20
TORSDOF 2
ENDMDL
MODEL 9
REMARK VINA RESULT:      -7.1      5.098      8.393
REMARK  Name = 
REMARK  2 active torsions:
REMARK  status: ('A' for Active; 'I' for Inactive)
REMARK    1  A    between atoms: C_2  and  C_5
REMARK    2  A    between atoms: C_7  and  C_8
REMARK                            x       y       z     vdW  Elec       q    Type
REMARK                         _______ _______ _______ _____ _____    ______ ____
ROOT
ATOM      1  C   UNL     1      17.873   9.847  39.441  0.00  0.00    +0.000 A 
ATOM      2  C   UNL     1      19.153  10.378  39.453  0.00  0.00    +0.000 A 
ATOM      3  C   UNL     1      19.641  11.194  38.465  0.00  0.00    +0.000 A 
ATOM      4  N   UNL     1      18.790  11.475  37.431  0.00  0.00    +0.000 NA
ATOM      5  C   UNL     1      17.530  10.971  37.389  0.00  0.00    +0.000 A 
ATOM      6  N   UNL     1      16.685  11.277  36.293  0.00  0.00    +0.000 NA
ATOM      7  N   UNL     1      17.104  10.175  38.385  0.00  0.00    +0.000 NA
ENDROOT
BRANCH   3   8
ATOM      8  C   UNL     1      20.951  11.818  38.440  0.00  0.00    +0.000 A 
ATOM      9  C   UNL     1      21.231  13.031  39.033  0.00  0.00    +0.000 A 
ATOM     10  C   UNL     1      22.513  13.593  38.927  0.00  0.00    +0.000 A 
ATOM     11  C   UNL     1      23.517  12.991  38.248  0.00  0.00    +0.000 A 
ATOM     12  F   UNL     1      24.768  13.528  38.139  0.00  0.00    +0.000 F 
ATOM     13  C   UNL     1      23.242  11.749  37.634  0.00  0.00    +0.000 A 
ATOM     14  C   UNL     1      24.267  11.147  36.914  0.00  0.00    +0.000 A 
ATOM     15  C   UNL     1      23.986   9.930  36.282  0.00  0.00    +0.000 A 
ATOM     16  C   UNL     1      22.707   9.388  36.402  0.00  0.00    +0.000 A 
ATOM     17  C   UNL     1      21.729  10.006  37.118  0.00  0.00    +0.000 A 
ATOM     18  C   UNL     1      21.986  11.205  37.747  0.00  0.00    +0.000 A 
ENDBRANCH   3   8
BRANCH   1  20
ATOM     19  C   UNL     1      18.415   9.248  41.684  0.00  0.00    +0.000 C 
ATOM     20  C   UNL     1      17.397   8.964  40.569  0.00  0.00    +0.000 C 
ATOM     21  C   UNL     1      16.013   9.329  41.010  0.00  0.00    +0.000 C 
ATOM     22  F   UNL     1      17.553   7.651  40.194  0.00  0.00    +0.000 F 
ENDBRANCH   1  20
TORSDOF 2
ENDMDL
MODEL 10
REMARK VINA RESULT:      -7.0     17.749     19.521
REMARK  Name = 
REMARK  2 active torsions:
REMARK  status: ('A' for Active; 'I' for Inactive)
REMARK    1  A    between atoms: C_2  and  C_5
REMARK    2  A    between atoms: C_7  and  C_8
REMARK                            x       y       z     vdW  Elec       q    Type
REMARK                         _______ _______ _______ _____ _____    ______ ____
ROOT
ATOM      1  C   UNL     1      27.810  24.836  23.296  0.00  0.00    +0.000 A 
ATOM      2  C   UNL     1      27.944  24.568  24.650  0.00  0.00    +0.000 A 
ATOM      3  C   UNL     1      27.144  23.684  25.326  0.00  0.00    +0.000 A 
ATOM      4  N   UNL     1      26.175  23.054  24.593  0.00  0.00    +0.000 NA
ATOM      5  C   UNL     1      26.018  23.294  23.266  0.00  0.00    +0.000 A 
ATOM      6  N   UNL     1      24.995  22.630  22.546  0.00  0.00    +0.000 NA
ATOM      7  N   UNL     1      26.831  24.172  22.653  0.00  0.00    +0.000 NA
ENDROOT
BRANCH   3   8
ATOM      8  C   UNL     1      27.259  23.325  26.727  0.00  0.00    +0.000 A 
ATOM      9  C   UNL     1      28.028  22.276  27.187  0.00  0.00    +0.000 A 
ATOM     10  C   UNL     1      28.053  21.961  28.555  0.00  0.00    +0.000 A 
ATOM     11  C   UNL     1      27.337  22.650  29.472  0.00  0.00    +0.000 A 
ATOM     12  F   UNL     1      27.355  22.353  30.805  0.00  0.00    +0.000 F 
ATOM     13  C   UNL     1      26.544  23.725  29.015  0.00  0.00    +0.000 A 
ATOM     14  C   UNL     1      25.787  24.413  29.957  0.00  0.00    +0.000 A 
ATOM     15  C   UNL     1      24.979  25.460  29.498  0.00  0.00    +0.000 A 
ATOM     16  C   UNL     1      24.970  25.758  28.136  0.00  0.00    +0.000 A 
ATOM     17  C   UNL     1      25.727  25.063  27.244  0.00  0.00    +0.000 A 
ATOM     18  C   UNL     1      26.528  24.028  27.675  0.00  0.00    +0.000 A 
ENDBRANCH   3   8
BRANCH   1  20
ATOM     19  C   UNL     1      29.868  25.991  23.635  0.00  0.00    +0.000 C 
ATOM     20  C   UNL     1      28.736  25.814  22.613  0.00  0.00    +0.000 C 
ATOM     21  C   UNL     1      29.266  25.265  21.324  0.00  0.00    +0.000 C 
ATOM     22  F   UNL     1      28.090  27.023  22.501  0.00  0.00    +0.000 F 
ENDBRANCH   1  20
TORSDOF 2
ENDMDL
