MODEL 1
REMARK VINA RESULT:      -6.3      0.000      0.000
REMARK  Name = 
REMARK  2 active torsions:
REMARK  status: ('A' for Active; 'I' for Inactive)
REMARK    1  A    between atoms: N_13  and  C_14
REMARK    2  A    between atoms: C_14  and  C_15
REMARK                            x       y       z     vdW  Elec       q    Type
REMARK                         _______ _______ _______ _____ _____    ______ ____
ROOT
ATOM      1  O   UNL     1      27.366  23.093  22.827  0.00  0.00    +0.000 OA
ATOM      2  C   UNL     1      27.288  23.436  24.044  0.00  0.00    +0.000 C 
ATOM      3  N   UNL     1      26.490  22.861  25.067  0.00  0.00    +0.000 NA
ATOM      4  C   UNL     1      26.862  23.487  26.318  0.00  0.00    +0.000 C 
ATOM      5  C   UNL     1      27.632  22.522  27.192  0.00  0.00    +0.000 C 
ATOM      6  C   UNL     1      27.920  23.144  28.522  0.00  0.00    +0.000 C 
ATOM      7  C   UNL     1      26.666  23.008  29.388  0.00  0.00    +0.000 C 
ATOM      8  C   UNL     1      25.876  24.296  29.415  0.00  0.00    +0.000 C 
ATOM      9  C   UNL     1      25.858  24.980  28.065  0.00  0.00    +0.000 C 
ATOM     10  C   UNL     1      25.576  23.949  26.980  0.00  0.00    +0.000 C 
ATOM     11  C   UNL     1      27.729  24.640  25.959  0.00  0.00    +0.000 C 
ATOM     12  O   UNL     1      28.094  25.530  26.746  0.00  0.00    +0.000 OA
ATOM     13  N   UNL     1      28.041  24.514  24.578  0.00  0.00    +0.000 N 
ENDROOT
BRANCH  13  14
ATOM     14  C   UNL     1      28.981  25.366  23.861  0.00  0.00    +0.000 C 
BRANCH  14  15
ATOM     15  C   UNL     1      30.379  25.057  24.250  0.00  0.00    +0.000 A 
ATOM     16  C   UNL     1      31.138  26.103  24.737  0.00  0.00    +0.000 A 
ATOM     17  C   UNL     1      32.458  25.919  25.128  0.00  0.00    +0.000 A 
ATOM     18  C   UNL     1      33.040  24.671  25.036  0.00  0.00    +0.000 A 
ATOM     19  C   UNL     1      32.270  23.636  24.549  0.00  0.00    +0.000 A 
ATOM     20  C   UNL     1      30.957  23.828  24.161  0.00  0.00    +0.000 A 
ENDBRANCH  14  15
ENDBRANCH  13  14
TORSDOF 2
ENDMDL
MODEL 2
REMARK VINA RESULT:      -6.2     29.219     30.929
REMARK  Name = 
REMARK  2 active torsions:
REMARK  status: ('A' for Active; 'I' for Inactive)
REMARK    1  A    between atoms: N_13  and  C_14
REMARK    2  A    between atoms: C_14  and  C_15
REMARK                            x       y       z     vdW  Elec       q    Type
REMARK                         _______ _______ _______ _____ _____    ______ ____
ROOT
ATOM      1  O   UNL     1      30.560  -6.183  33.756  0.00  0.00    +0.000 OA
ATOM      2  C   UNL     1      31.491  -6.312  32.906  0.00  0.00    +0.000 C 
ATOM      3  N   UNL     1      31.409  -6.841  31.591  0.00  0.00    +0.000 NA
ATOM      4  C   UNL     1      32.692  -6.632  30.953  0.00  0.00    +0.000 C 
ATOM      5  C   UNL     1      32.596  -5.558  29.893  0.00  0.00    +0.000 C 
ATOM      6  C   UNL     1      33.899  -5.425  29.171  0.00  0.00    +0.000 C 
ATOM      7  C   UNL     1      33.969  -6.531  28.116  0.00  0.00    +0.000 C 
ATOM      8  C   UNL     1      34.819  -7.687  28.591  0.00  0.00    +0.000 C 
ATOM      9  C   UNL     1      34.609  -7.982  30.061  0.00  0.00    +0.000 C 
ATOM     10  C   UNL     1      33.117  -7.969  30.370  0.00  0.00    +0.000 C 
ATOM     11  C   UNL     1      33.619  -6.193  32.030  0.00  0.00    +0.000 C 
ATOM     12  O   UNL     1      34.853  -6.096  31.913  0.00  0.00    +0.000 OA
ATOM     13  N   UNL     1      32.827  -5.919  33.177  0.00  0.00    +0.000 N 
ENDROOT
BRANCH  13  14
ATOM     14  C   UNL     1      33.333  -5.330  34.410  0.00  0.00    +0.000 C 
BRANCH  14  15
ATOM     15  C   UNL     1      33.156  -3.857  34.407  0.00  0.00    +0.000 A 
ATOM     16  C   UNL     1      32.249  -3.334  35.307  0.00  0.00    +0.000 A 
ATOM     17  C   UNL     1      32.010  -1.968  35.383  0.00  0.00    +0.000 A 
ATOM     18  C   UNL     1      32.685  -1.100  34.550  0.00  0.00    +0.000 A 
ATOM     19  C   UNL     1      33.589  -1.636  33.657  0.00  0.00    +0.000 A 
ATOM     20  C   UNL     1      33.821  -2.998  33.587  0.00  0.00    +0.000 A 
ENDBRANCH  14  15
ENDBRANCH  13  14
TORSDOF 2
ENDMDL
MODEL 3
REMARK VINA RESULT:      -6.0      2.215      3.639
REMARK  Name = 
REMARK  2 active torsions:
REMARK  status: ('A' for Active; 'I' for Inactive)
REMARK    1  A    between atoms: N_13  and  C_14
REMARK    2  A    between atoms: C_14  and  C_15
REMARK                            x       y       z     vdW  Elec       q    Type
REMARK                         _______ _______ _______ _____ _____    ______ ____
ROOT
ATOM      1  O   UNL     1      31.424  24.717  25.981  0.00  0.00    +0.000 OA
ATOM      2  C   UNL     1      30.386  24.252  26.539  0.00  0.00    +0.000 C 
ATOM      3  N   UNL     1      29.864  24.568  27.820  0.00  0.00    +0.000 NA
ATOM      4  C   UNL     1      28.582  23.907  27.948  0.00  0.00    +0.000 C 
ATOM      5  C   UNL     1      27.453  24.911  27.891  0.00  0.00    +0.000 C 
ATOM      6  C   UNL     1      26.142  24.231  28.128  0.00  0.00    +0.000 C 
ATOM      7  C   UNL     1      25.971  24.047  29.637  0.00  0.00    +0.000 C 
ATOM      8  C   UNL     1      26.314  22.638  30.060  0.00  0.00    +0.000 C 
ATOM      9  C   UNL     1      27.510  22.093  29.308  0.00  0.00    +0.000 C 
ATOM     10  C   UNL     1      28.604  23.152  29.265  0.00  0.00    +0.000 C 
ATOM     11  C   UNL     1      28.484  22.976  26.793  0.00  0.00    +0.000 C 
ATOM     12  O   UNL     1      27.614  22.099  26.656  0.00  0.00    +0.000 OA
ATOM     13  N   UNL     1      29.554  23.288  25.912  0.00  0.00    +0.000 N 
ENDROOT
BRANCH  13  14
ATOM     14  C   UNL     1      29.738  22.699  24.592  0.00  0.00    +0.000 C 
BRANCH  14  15
ATOM     15  C   UNL     1      29.017  23.481  23.557  0.00  0.00    +0.000 A 
ATOM     16  C   UNL     1      29.760  24.391  22.831  0.00  0.00    +0.000 A 
ATOM     17  C   UNL     1      29.179  25.172  21.840  0.00  0.00    +0.000 A 
ATOM     18  C   UNL     1      27.834  25.049  21.561  0.00  0.00    +0.000 A 
ATOM     19  C   UNL     1      27.105  24.136  22.294  0.00  0.00    +0.000 A 
ATOM     20  C   UNL     1      27.690  23.362  23.280  0.00  0.00    +0.000 A 
ENDBRANCH  14  15
ENDBRANCH  13  14
TORSDOF 2
ENDMDL
MODEL 4
REMARK VINA RESULT:      -5.9      2.177      4.920
REMARK  Name = 
REMARK  2 active torsions:
REMARK  status: ('A' for Active; 'I' for Inactive)
REMARK    1  A    between atoms: N_13  and  C_14
REMARK    2  A    between atoms: C_14  and  C_15
REMARK                            x       y       z     vdW  Elec       q    Type
REMARK                         _______ _______ _______ _____ _____    ______ ____
ROOT
ATOM      1  O   UNL     1      25.653  23.822  26.976  0.00  0.00    +0.000 OA
ATOM      2  C   UNL     1      26.459  23.920  26.004  0.00  0.00    +0.000 C 
ATOM      3  N   UNL     1      26.428  24.849  24.932  0.00  0.00    +0.000 NA
ATOM      4  C   UNL     1      27.641  24.673  24.162  0.00  0.00    +0.000 C 
ATOM      5  C   UNL     1      28.581  25.840  24.367  0.00  0.00    +0.000 C 
ATOM      6  C   UNL     1      29.783  25.697  23.488  0.00  0.00    +0.000 C 
ATOM      7  C   UNL     1      29.405  26.182  22.088  0.00  0.00    +0.000 C 
ATOM      8  C   UNL     1      29.103  25.022  21.169  0.00  0.00    +0.000 C 
ATOM      9  C   UNL     1      28.345  23.918  21.876  0.00  0.00    +0.000 C 
ATOM     10  C   UNL     1      27.225  24.528  22.709  0.00  0.00    +0.000 C 
ATOM     11  C   UNL     1      28.271  23.425  24.670  0.00  0.00    +0.000 C 
ATOM     12  O   UNL     1      29.230  22.841  24.135  0.00  0.00    +0.000 OA
ATOM     13  N   UNL     1      27.573  23.055  25.851  0.00  0.00    +0.000 N 
ENDROOT
BRANCH  13  14
ATOM     14  C   UNL     1      27.964  21.965  26.735  0.00  0.00    +0.000 C 
BRANCH  14  15
ATOM     15  C   UNL     1      29.140  22.343  27.557  0.00  0.00    +0.000 A 
ATOM     16  C   UNL     1      28.893  23.084  28.697  0.00  0.00    +0.000 A 
ATOM     17  C   UNL     1      29.925  23.488  29.534  0.00  0.00    +0.000 A 
ATOM     18  C   UNL     1      31.229  23.153  29.236  0.00  0.00    +0.000 A 
ATOM     19  C   UNL     1      31.461  22.413  28.096  0.00  0.00    +0.000 A 
ATOM     20  C   UNL     1      30.428  22.014  27.267  0.00  0.00    +0.000 A 
ENDBRANCH  14  15
ENDBRANCH  13  14
TORSDOF 2
ENDMDL
MODEL 5
REMARK VINA RESULT:      -5.9      2.520      3.784
REMARK  Name = 
REMARK  2 active torsions:
REMARK  status: ('A' for Active; 'I' for Inactive)
REMARK    1  A    between atoms: N_13  and  C_14
REMARK    2  A    between atoms: C_14  and  C_15
REMARK                            x       y       z     vdW  Elec       q    Type
REMARK                         _______ _______ _______ _____ _____    ______ ____
ROOT
ATOM      1  O   UNL     1      25.033  25.386  26.019  0.00  0.00    +0.000 OA
ATOM      2  C   UNL     1      25.850  24.701  26.703  0.00  0.00    +0.000 C 
ATOM      3  N   UNL     1      26.362  24.984  27.996  0.00  0.00    +0.000 NA
ATOM      4  C   UNL     1      27.132  23.835  28.425  0.00  0.00    +0.000 C 
ATOM      5  C   UNL     1      26.409  23.084  29.521  0.00  0.00    +0.000 C 
ATOM      6  C   UNL     1      27.258  21.962  30.027  0.00  0.00    +0.000 C 
ATOM      7  C   UNL     1      28.266  22.543  31.020  0.00  0.00    +0.000 C 
ATOM      8  C   UNL     1      29.620  22.735  30.378  0.00  0.00    +0.000 C 
ATOM      9  C   UNL     1      29.508  23.232  28.952  0.00  0.00    +0.000 C 
ATOM     10  C   UNL     1      28.481  24.355  28.888  0.00  0.00    +0.000 C 
ATOM     11  C   UNL     1      27.270  22.964  27.227  0.00  0.00    +0.000 C 
ATOM     12  O   UNL     1      28.022  21.977  27.147  0.00  0.00    +0.000 OA
ATOM     13  N   UNL     1      26.397  23.479  26.233  0.00  0.00    +0.000 N 
ENDROOT
BRANCH  13  14
ATOM     14  C   UNL     1      26.128  22.835  24.953  0.00  0.00    +0.000 C 
BRANCH  14  15
ATOM     15  C   UNL     1      27.058  23.326  23.906  0.00  0.00    +0.000 A 
ATOM     16  C   UNL     1      26.490  23.882  22.777  0.00  0.00    +0.000 A 
ATOM     17  C   UNL     1      27.272  24.371  21.739  0.00  0.00    +0.000 A 
ATOM     18  C   UNL     1      28.648  24.309  21.821  0.00  0.00    +0.000 A 
ATOM     19  C   UNL     1      29.202  23.753  22.955  0.00  0.00    +0.000 A 
ATOM     20  C   UNL     1      28.415  23.267  23.984  0.00  0.00    +0.000 A 
ENDBRANCH  14  15
ENDBRANCH  13  14
TORSDOF 2
ENDMDL
MODEL 6
REMARK VINA RESULT:      -5.8     19.969     22.741
REMARK  Name = 
REMARK  2 active torsions:
REMARK  status: ('A' for Active; 'I' for Inactive)
REMARK    1  A    between atoms: N_13  and  C_14
REMARK    2  A    between atoms: C_14  and  C_15
REMARK                            x       y       z     vdW  Elec       q    Type
REMARK                         _______ _______ _______ _____ _____    ______ ____
ROOT
ATOM      1  O   UNL     1      20.434  10.710  40.160  0.00  0.00    +0.000 OA
ATOM      2  C   UNL     1      19.525  10.707  39.277  0.00  0.00    +0.000 C 
ATOM      3  N   UNL     1      19.594  11.200  37.948  0.00  0.00    +0.000 NA
ATOM      4  C   UNL     1      18.366  10.829  37.277  0.00  0.00    +0.000 C 
ATOM      5  C   UNL     1      18.618   9.740  36.259  0.00  0.00    +0.000 C 
ATOM      6  C   UNL     1      17.364   9.439  35.501  0.00  0.00    +0.000 C 
ATOM      7  C   UNL     1      17.209  10.497  34.406  0.00  0.00    +0.000 C 
ATOM      8  C   UNL     1      16.221  11.564  34.813  0.00  0.00    +0.000 C 
ATOM      9  C   UNL     1      16.344  11.926  36.277  0.00  0.00    +0.000 C 
ATOM     10  C   UNL     1      17.816  12.090  36.634  0.00  0.00    +0.000 C 
ATOM     11  C   UNL     1      17.456  10.323  38.338  0.00  0.00    +0.000 C 
ATOM     12  O   UNL     1      16.245  10.084  38.186  0.00  0.00    +0.000 OA
ATOM     13  N   UNL     1      18.232  10.175  39.519  0.00  0.00    +0.000 N 
ENDROOT
BRANCH  13  14
ATOM     14  C   UNL     1      17.751   9.572  40.756  0.00  0.00    +0.000 C 
BRANCH  14  15
ATOM     15  C   UNL     1      17.996   8.109  40.763  0.00  0.00    +0.000 A 
ATOM     16  C   UNL     1      17.073   7.324  41.426  0.00  0.00    +0.000 A 
ATOM     17  C   UNL     1      17.212   5.943  41.491  0.00  0.00    +0.000 A 
ATOM     18  C   UNL     1      18.288   5.326  40.887  0.00  0.00    +0.000 A 
ATOM     19  C   UNL     1      19.201   6.122  40.229  0.00  0.00    +0.000 A 
ATOM     20  C   UNL     1      19.056   7.497  40.168  0.00  0.00    +0.000 A 
ENDBRANCH  14  15
ENDBRANCH  13  14
TORSDOF 2
ENDMDL
MODEL 7
REMARK VINA RESULT:      -5.8      1.615      5.665
REMARK  Name = 
REMARK  2 active torsions:
REMARK  status: ('A' for Active; 'I' for Inactive)
REMARK    1  A    between atoms: N_13  and  C_14
REMARK    2  A    between atoms: C_14  and  C_15
REMARK                            x       y       z     vdW  Elec       q    Type
REMARK                         _______ _______ _______ _____ _____    ______ ____
ROOT
ATOM      1  O   UNL     1      25.663  26.092  24.503  0.00  0.00    +0.000 OA
ATOM      2  C   UNL     1      26.729  25.440  24.714  0.00  0.00    +0.000 C 
ATOM      3  N   UNL     1      28.022  25.683  24.183  0.00  0.00    +0.000 NA
ATOM      4  C   UNL     1      28.943  24.777  24.837  0.00  0.00    +0.000 C 
ATOM      5  C   UNL     1      29.842  25.527  25.796  0.00  0.00    +0.000 C 
ATOM      6  C   UNL     1      30.856  24.599  26.387  0.00  0.00    +0.000 C 
ATOM      7  C   UNL     1      31.990  24.432  25.374  0.00  0.00    +0.000 C 
ATOM      8  C   UNL     1      31.854  23.136  24.609  0.00  0.00    +0.000 C 
ATOM      9  C   UNL     1      30.412  22.825  24.269  0.00  0.00    +0.000 C 
ATOM     10  C   UNL     1      29.734  24.084  23.742  0.00  0.00    +0.000 C 
ATOM     11  C   UNL     1      28.102  23.810  25.591  0.00  0.00    +0.000 C 
ATOM     12  O   UNL     1      28.518  22.770  26.128  0.00  0.00    +0.000 OA
ATOM     13  N   UNL     1      26.771  24.308  25.568  0.00  0.00    +0.000 N 
ENDROOT
BRANCH  13  14
ATOM     14  C   UNL     1      25.658  23.729  26.309  0.00  0.00    +0.000 C 
BRANCH  14  15
ATOM     15  C   UNL     1      25.612  24.256  27.695  0.00  0.00    +0.000 A 
ATOM     16  C   UNL     1      26.160  23.462  28.685  0.00  0.00    +0.000 A 
ATOM     17  C   UNL     1      26.166  23.865  30.014  0.00  0.00    +0.000 A 
ATOM     18  C   UNL     1      25.620  25.080  30.372  0.00  0.00    +0.000 A 
ATOM     19  C   UNL     1      25.078  25.862  29.374  0.00  0.00    +0.000 A 
ATOM     20  C   UNL     1      25.074  25.454  28.053  0.00  0.00    +0.000 A 
ENDBRANCH  14  15
ENDBRANCH  13  14
TORSDOF 2
ENDMDL
MODEL 8
REMARK VINA RESULT:      -5.8     28.980     30.668
REMARK  Name = 
REMARK  2 active torsions:
REMARK  status: ('A' for Active; 'I' for Inactive)
REMARK    1  A    between atoms: N_13  and  C_14
REMARK    2  A    between atoms: C_14  and  C_15
REMARK                            x       y       z     vdW  Elec       q    Type
REMARK                         _______ _______ _______ _____ _____    ______ ____
ROOT
ATOM      1  O   UNL     1      35.369  -5.306  34.933  0.00  0.00    +0.000 OA
ATOM      2  C   UNL     1      34.912  -5.544  33.775  0.00  0.00    +0.000 C 
ATOM      3  N   UNL     1      35.575  -6.160  32.683  0.00  0.00    +0.000 NA
ATOM      4  C   UNL     1      34.600  -6.357  31.631  0.00  0.00    +0.000 C 
ATOM      5  C   UNL     1      34.256  -7.823  31.486  0.00  0.00    +0.000 C 
ATOM      6  C   UNL     1      33.328  -8.025  30.330  0.00  0.00    +0.000 C 
ATOM      7  C   UNL     1      34.165  -8.042  29.050  0.00  0.00    +0.000 C 
ATOM      8  C   UNL     1      34.104  -6.711  28.338  0.00  0.00    +0.000 C 
ATOM      9  C   UNL     1      34.126  -5.547  29.305  0.00  0.00    +0.000 C 
ATOM     10  C   UNL     1      35.200  -5.786  30.359  0.00  0.00    +0.000 C 
ATOM     11  C   UNL     1      33.390  -5.597  32.046  0.00  0.00    +0.000 C 
ATOM     12  O   UNL     1      32.407  -5.370  31.320  0.00  0.00    +0.000 OA
ATOM     13  N   UNL     1      33.589  -5.201  33.396  0.00  0.00    +0.000 N 
ENDROOT
BRANCH  13  14
ATOM     14  C   UNL     1      32.580  -4.552  34.224  0.00  0.00    +0.000 C 
BRANCH  14  15
ATOM     15  C   UNL     1      32.775  -3.082  34.244  0.00  0.00    +0.000 A 
ATOM     16  C   UNL     1      32.001  -2.361  35.132  0.00  0.00    +0.000 A 
ATOM     17  C   UNL     1      32.107  -0.979  35.228  0.00  0.00    +0.000 A 
ATOM     18  C   UNL     1      33.000  -0.296  34.428  0.00  0.00    +0.000 A 
ATOM     19  C   UNL     1      33.767  -1.029  33.547  0.00  0.00    +0.000 A 
ATOM     20  C   UNL     1      33.655  -2.405  33.457  0.00  0.00    +0.000 A 
ENDBRANCH  14  15
ENDBRANCH  13  14
TORSDOF 2
ENDMDL
MODEL 9
REMARK VINA RESULT:      -5.7     33.499     35.639
REMARK  Name = 
REMARK  2 active torsions:
REMARK  status: ('A' for Active; 'I' for Inactive)
REMARK    1  A    between atoms: N_13  and  C_14
REMARK    2  A    between atoms: C_14  and  C_15
REMARK                            x       y       z     vdW  Elec       q    Type
REMARK                         _______ _______ _______ _____ _____    ______ ____
ROOT
ATOM      1  O   UNL     1      16.449 -10.979  28.941  0.00  0.00    +0.000 OA
ATOM      2  C   UNL     1      16.928 -10.078  28.190  0.00  0.00    +0.000 C 
ATOM      3  N   UNL     1      17.962  -9.153  28.484  0.00  0.00    +0.000 NA
ATOM      4  C   UNL     1      18.270  -8.435  27.265  0.00  0.00    +0.000 C 
ATOM      5  C   UNL     1      19.613  -8.861  26.716  0.00  0.00    +0.000 C 
ATOM      6  C   UNL     1      19.966  -8.040  25.516  0.00  0.00    +0.000 C 
ATOM      7  C   UNL     1      20.532  -6.706  26.007  0.00  0.00    +0.000 C 
ATOM      8  C   UNL     1      19.492  -5.612  25.940  0.00  0.00    +0.000 C 
ATOM      9  C   UNL     1      18.119  -6.107  26.343  0.00  0.00    +0.000 C 
ATOM     10  C   UNL     1      18.238  -6.955  27.604  0.00  0.00    +0.000 C 
ATOM     11  C   UNL     1      17.197  -8.791  26.298  0.00  0.00    +0.000 C 
ATOM     12  O   UNL     1      17.009  -8.232  25.204  0.00  0.00    +0.000 OA
ATOM     13  N   UNL     1      16.461  -9.864  26.867  0.00  0.00    +0.000 N 
ENDROOT
BRANCH  13  14
ATOM     14  C   UNL     1      15.408 -10.601  26.180  0.00  0.00    +0.000 C 
BRANCH  14  15
ATOM     15  C   UNL     1      14.074 -10.026  26.482  0.00  0.00    +0.000 A 
ATOM     16  C   UNL     1      13.321 -10.667  27.447  0.00  0.00    +0.000 A 
ATOM     17  C   UNL     1      12.059 -10.208  27.802  0.00  0.00    +0.000 A 
ATOM     18  C   UNL     1      11.531  -9.090  27.190  0.00  0.00    +0.000 A 
ATOM     19  C   UNL     1      12.294  -8.460  26.230  0.00  0.00    +0.000 A 
ATOM     20  C   UNL     1      13.550  -8.923  25.881  0.00  0.00    +0.000 A 
ENDBRANCH  14  15
ENDBRANCH  13  14
TORSDOF 2
ENDMDL
MODEL 10
REMARK VINA RESULT:      -5.7     33.245     35.052
REMARK  Name = 
REMARK  2 active torsions:
REMARK  status: ('A' for Active; 'I' for Inactive)
REMARK    1  A    between atoms: N_13  and  C_14
REMARK    2  A    between atoms: C_14  and  C_15
REMARK                            x       y       z     vdW  Elec       q    Type
REMARK                         _______ _______ _______ _____ _____    ______ ____
ROOT
ATOM      1  O   UNL     1      17.570 -11.081  28.014  0.00  0.00    +0.000 OA
ATOM      2  C   UNL     1      16.802 -10.428  27.245  0.00  0.00    +0.000 C 
ATOM      3  N   UNL     1      15.823 -10.934  26.352  0.00  0.00    +0.000 NA
ATOM      4  C   UNL     1      15.093  -9.805  25.814  0.00  0.00    +0.000 C 
ATOM      5  C   UNL     1      13.694  -9.749  26.385  0.00  0.00    +0.000 C 
ATOM      6  C   UNL     1      12.917  -8.642  25.745  0.00  0.00    +0.000 C 
ATOM      7  C   UNL     1      12.403  -9.145  24.395  0.00  0.00    +0.000 C 
ATOM      8  C   UNL     1      13.265  -8.646  23.259  0.00  0.00    +0.000 C 
ATOM      9  C   UNL     1      14.736  -8.649  23.617  0.00  0.00    +0.000 C 
ATOM     10  C   UNL     1      15.085  -9.964  24.304  0.00  0.00    +0.000 C 
ATOM     11  C   UNL     1      15.851  -8.593  26.226  0.00  0.00    +0.000 C 
ATOM     12  O   UNL     1      15.645  -7.444  25.800  0.00  0.00    +0.000 OA
ATOM     13  N   UNL     1      16.824  -9.012  27.173  0.00  0.00    +0.000 N 
ENDROOT
BRANCH  13  14
ATOM     14  C   UNL     1      17.685  -8.110  27.928  0.00  0.00    +0.000 C 
BRANCH  14  15
ATOM     15  C   UNL     1      18.725  -7.513  27.054  0.00  0.00    +0.000 A 
ATOM     16  C   UNL     1      18.637  -6.155  26.815  0.00  0.00    +0.000 A 
ATOM     17  C   UNL     1      19.560  -5.501  26.011  0.00  0.00    +0.000 A 
ATOM     18  C   UNL     1      20.595  -6.206  25.430  0.00  0.00    +0.000 A 
ATOM     19  C   UNL     1      20.671  -7.560  25.678  0.00  0.00    +0.000 A 
ATOM     20  C   UNL     1      19.746  -8.205  26.479  0.00  0.00    +0.000 A 
ENDBRANCH  14  15
ENDBRANCH  13  14
TORSDOF 2
ENDMDL
