MODEL 1
REMARK VINA RESULT:      -7.6      0.000      0.000
REMARK  Name = 
REMARK  7 active torsions:
REMARK  status: ('A' for Active; 'I' for Inactive)
REMARK    1  A    between atoms: C_2  and  C_3
REMARK    2  A    between atoms: C_3  and  N_5
REMARK    3  A    between atoms: C_6  and  C_8
REMARK    4  A    between atoms: N_11  and  C_12
REMARK    5  A    between atoms: C_12  and  C_13
REMARK    6  A    between atoms: C_13  and  C_14
REMARK    7  A    between atoms: C_17  and  O_18
REMARK                            x       y       z     vdW  Elec       q    Type
REMARK                         _______ _______ _______ _____ _____    ______ ____
ROOT
ATOM      1  C   UNL     1      36.271  -0.475  16.010  0.00  0.00    +0.000 A 
ATOM      2  C   UNL     1      35.882   0.837  16.114  0.00  0.00    +0.000 A 
ATOM      3  N   UNL     1      34.612   1.301  16.577  0.00  0.00    +0.000 NA
ATOM      4  N   UNL     1      36.889   1.650  15.708  0.00  0.00    +0.000 N 
ATOM      5  C   UNL     1      37.897   0.837  15.356  0.00  0.00    +0.000 A 
ATOM      6  N   UNL     1      39.130   1.089  14.884  0.00  0.00    +0.000 NA
ATOM      7  C   UNL     1      40.022   0.126  14.581  0.00  0.00    +0.000 A 
ATOM      8  C   UNL     1      41.283   0.408  14.099  0.00  0.00    +0.000 A 
ATOM      9  C   UNL     1      42.214  -0.558  13.781  0.00  0.00    +0.000 A 
ATOM     10  C   UNL     1      41.861  -1.889  13.958  0.00  0.00    +0.000 A 
ATOM     11  C   UNL     1      40.597  -2.187  14.441  0.00  0.00    +0.000 A 
ATOM     12  C   UNL     1      39.674  -1.197  14.755  0.00  0.00    +0.000 A 
ATOM     13  N   UNL     1      38.447  -1.481  15.226  0.00  0.00    +0.000 NA
ATOM     14  C   UNL     1      37.558  -0.495  15.527  0.00  0.00    +0.000 A 
ENDROOT
BRANCH   1  16
ATOM     15  N   UNL     1      35.245  -2.679  15.394  0.00  0.00    +0.000 NA
ATOM     16  C   UNL     1      35.466  -1.676  16.351  0.00  0.00    +0.000 C 
ATOM     17  O   UNL     1      34.976  -1.812  17.489  0.00  0.00    +0.000 OA
BRANCH  15  18
ATOM     18  C   UNL     1      34.386  -3.885  15.873  0.00  0.00    +0.000 C 
ATOM     19  C   UNL     1      34.018  -4.429  14.364  0.00  0.00    +0.000 C 
BRANCH  18  21
ATOM     20  C   UNL     1      36.467  -4.605  14.804  0.00  0.00    +0.000 C 
ATOM     21  C   UNL     1      35.660  -4.914  16.054  0.00  0.00    +0.000 C 
ENDBRANCH  18  21
ENDBRANCH  15  18
ENDBRANCH   1  16
BRANCH   4  22
ATOM     22  C   UNL     1      36.815   3.106  15.684  0.00  0.00    +0.000 C 
BRANCH  22  23
ATOM     23  C   UNL     1      37.043   3.690  17.047  0.00  0.00    +0.000 C 
BRANCH  23  24
ATOM     24  C   UNL     1      38.287   4.496  16.980  0.00  0.00    +0.000 A 
ATOM     25  C   UNL     1      38.835   4.970  18.167  0.00  0.00    +0.000 A 
ATOM     26  C   UNL     1      39.986   5.729  18.195  0.00  0.00    +0.000 A 
ATOM     27  C   UNL     1      40.645   6.053  17.032  0.00  0.00    +0.000 A 
ATOM     28  C   UNL     1      40.104   5.585  15.852  0.00  0.00    +0.000 A 
ATOM     29  C   UNL     1      38.951   4.824  15.827  0.00  0.00    +0.000 A 
BRANCH  27  30
ATOM     30  O   UNL     1      41.819   6.826  17.043  0.00  0.00    +0.000 OA
ATOM     31  C   UNL     1      42.636   6.757  18.195  0.00  0.00    +0.000 C 
ENDBRANCH  27  30
ENDBRANCH  23  24
ENDBRANCH  22  23
ENDBRANCH   4  22
TORSDOF 7
ENDMDL
MODEL 2
REMARK VINA RESULT:      -7.6      2.666      6.031
REMARK  Name = 
REMARK  7 active torsions:
REMARK  status: ('A' for Active; 'I' for Inactive)
REMARK    1  A    between atoms: C_2  and  C_3
REMARK    2  A    between atoms: C_3  and  N_5
REMARK    3  A    between atoms: C_6  and  C_8
REMARK    4  A    between atoms: N_11  and  C_12
REMARK    5  A    between atoms: C_12  and  C_13
REMARK    6  A    between atoms: C_13  and  C_14
REMARK    7  A    between atoms: C_17  and  O_18
REMARK                            x       y       z     vdW  Elec       q    Type
REMARK                         _______ _______ _______ _____ _____    ______ ____
ROOT
ATOM      1  C   UNL     1      36.714   2.338  15.578  0.00  0.00    +0.000 A 
ATOM      2  C   UNL     1      36.958   2.196  14.234  0.00  0.00    +0.000 A 
ATOM      3  N   UNL     1      36.266   1.317  13.345  0.00  0.00    +0.000 NA
ATOM      4  N   UNL     1      37.968   3.019  13.859  0.00  0.00    +0.000 N 
ATOM      5  C   UNL     1      38.343   3.669  14.973  0.00  0.00    +0.000 A 
ATOM      6  N   UNL     1      39.289   4.598  15.194  0.00  0.00    +0.000 NA
ATOM      7  C   UNL     1      39.526   5.146  16.400  0.00  0.00    +0.000 A 
ATOM      8  C   UNL     1      40.501   6.099  16.604  0.00  0.00    +0.000 A 
ATOM      9  C   UNL     1      40.763   6.677  17.828  0.00  0.00    +0.000 A 
ATOM     10  C   UNL     1      40.001   6.275  18.917  0.00  0.00    +0.000 A 
ATOM     11  C   UNL     1      39.018   5.317  18.727  0.00  0.00    +0.000 A 
ATOM     12  C   UNL     1      38.770   4.749  17.484  0.00  0.00    +0.000 A 
ATOM     13  N   UNL     1      37.816   3.821  17.294  0.00  0.00    +0.000 NA
ATOM     14  C   UNL     1      37.590   3.277  16.067  0.00  0.00    +0.000 A 
ENDROOT
BRANCH   1  16
ATOM     15  N   UNL     1      35.998   0.387  16.981  0.00  0.00    +0.000 NA
ATOM     16  C   UNL     1      35.693   1.619  16.382  0.00  0.00    +0.000 C 
ATOM     17  O   UNL     1      34.551   2.097  16.537  0.00  0.00    +0.000 OA
BRANCH  15  18
ATOM     18  C   UNL     1      34.844  -0.266  17.796  0.00  0.00    +0.000 C 
ATOM     19  C   UNL     1      35.199  -1.814  17.364  0.00  0.00    +0.000 C 
BRANCH  18  21
ATOM     20  C   UNL     1      36.876  -1.198  18.793  0.00  0.00    +0.000 C 
ATOM     21  C   UNL     1      35.687  -0.349  19.210  0.00  0.00    +0.000 C 
ENDBRANCH  18  21
ENDBRANCH  15  18
ENDBRANCH   1  16
BRANCH   4  22
ATOM     22  C   UNL     1      38.490   3.121  12.502  0.00  0.00    +0.000 C 
BRANCH  22  23
ATOM     23  C   UNL     1      39.928   2.697  12.433  0.00  0.00    +0.000 C 
BRANCH  23  24
ATOM     24  C   UNL     1      39.982   1.258  12.791  0.00  0.00    +0.000 A 
ATOM     25  C   UNL     1      40.628   0.892  13.968  0.00  0.00    +0.000 A 
ATOM     26  C   UNL     1      40.727  -0.423  14.373  0.00  0.00    +0.000 A 
ATOM     27  C   UNL     1      40.186  -1.437  13.618  0.00  0.00    +0.000 A 
ATOM     28  C   UNL     1      39.545  -1.076  12.450  0.00  0.00    +0.000 A 
ATOM     29  C   UNL     1      39.446   0.242  12.046  0.00  0.00    +0.000 A 
BRANCH  27  30
ATOM     30  O   UNL     1      40.278  -2.781  14.017  0.00  0.00    +0.000 OA
ATOM     31  C   UNL     1      40.264  -3.053  15.404  0.00  0.00    +0.000 C 
ENDBRANCH  27  30
ENDBRANCH  23  24
ENDBRANCH  22  23
ENDBRANCH   4  22
TORSDOF 7
ENDMDL
MODEL 3
REMARK VINA RESULT:      -7.6      2.076      4.793
REMARK  Name = 
REMARK  7 active torsions:
REMARK  status: ('A' for Active; 'I' for Inactive)
REMARK    1  A    between atoms: C_2  and  C_3
REMARK    2  A    between atoms: C_3  and  N_5
REMARK    3  A    between atoms: C_6  and  C_8
REMARK    4  A    between atoms: N_11  and  C_12
REMARK    5  A    between atoms: C_12  and  C_13
REMARK    6  A    between atoms: C_13  and  C_14
REMARK    7  A    between atoms: C_17  and  O_18
REMARK                            x       y       z     vdW  Elec       q    Type
REMARK                         _______ _______ _______ _____ _____    ______ ____
ROOT
ATOM      1  C   UNL     1      39.148   1.066  14.204  0.00  0.00    +0.000 A 
ATOM      2  C   UNL     1      39.146   2.427  14.382  0.00  0.00    +0.000 A 
ATOM      3  N   UNL     1      40.107   3.343  13.853  0.00  0.00    +0.000 NA
ATOM      4  N   UNL     1      38.085   2.791  15.144  0.00  0.00    +0.000 N 
ATOM      5  C   UNL     1      37.434   1.654  15.434  0.00  0.00    +0.000 A 
ATOM      6  N   UNL     1      36.323   1.413  16.150  0.00  0.00    +0.000 NA
ATOM      7  C   UNL     1      35.809   0.183  16.336  0.00  0.00    +0.000 A 
ATOM      8  C   UNL     1      34.666  -0.041  17.075  0.00  0.00    +0.000 A 
ATOM      9  C   UNL     1      34.119  -1.289  17.279  0.00  0.00    +0.000 A 
ATOM     10  C   UNL     1      34.755  -2.383  16.708  0.00  0.00    +0.000 A 
ATOM     11  C   UNL     1      35.905  -2.174  15.963  0.00  0.00    +0.000 A 
ATOM     12  C   UNL     1      36.439  -0.906  15.770  0.00  0.00    +0.000 A 
ATOM     13  N   UNL     1      37.553  -0.697  15.047  0.00  0.00    +0.000 NA
ATOM     14  C   UNL     1      38.059   0.554  14.870  0.00  0.00    +0.000 A 
ENDROOT
BRANCH   1  16
ATOM     15  N   UNL     1      40.955  -0.668  14.089  0.00  0.00    +0.000 NA
ATOM     16  C   UNL     1      40.135   0.266  13.436  0.00  0.00    +0.000 C 
ATOM     17  O   UNL     1      40.252   0.410  12.203  0.00  0.00    +0.000 OA
BRANCH  15  18
ATOM     18  C   UNL     1      41.949  -1.442  13.175  0.00  0.00    +0.000 C 
ATOM     19  C   UNL     1      43.109  -1.635  14.326  0.00  0.00    +0.000 C 
BRANCH  18  21
ATOM     20  C   UNL     1      40.801  -2.773  14.879  0.00  0.00    +0.000 C 
ATOM     21  C   UNL     1      41.277  -2.923  13.443  0.00  0.00    +0.000 C 
ENDBRANCH  18  21
ENDBRANCH  15  18
ENDBRANCH   1  16
BRANCH   4  22
ATOM     22  C   UNL     1      37.781   4.163  15.533  0.00  0.00    +0.000 C 
BRANCH  22  23
ATOM     23  C   UNL     1      37.751   4.317  17.026  0.00  0.00    +0.000 C 
BRANCH  23  24
ATOM     24  C   UNL     1      38.951   5.098  17.414  0.00  0.00    +0.000 A 
ATOM     25  C   UNL     1      39.159   5.368  18.762  0.00  0.00    +0.000 A 
ATOM     26  C   UNL     1      40.246   6.091  19.208  0.00  0.00    +0.000 A 
ATOM     27  C   UNL     1      41.179   6.580  18.324  0.00  0.00    +0.000 A 
ATOM     28  C   UNL     1      40.976   6.313  16.986  0.00  0.00    +0.000 A 
ATOM     29  C   UNL     1      39.886   5.589  16.541  0.00  0.00    +0.000 A 
BRANCH  27  30
ATOM     30  O   UNL     1      42.292   7.317  18.763  0.00  0.00    +0.000 OA
ATOM     31  C   UNL     1      43.042   6.790  19.839  0.00  0.00    +0.000 C 
ENDBRANCH  27  30
ENDBRANCH  23  24
ENDBRANCH  22  23
ENDBRANCH   4  22
TORSDOF 7
ENDMDL
MODEL 4
REMARK VINA RESULT:      -7.3      2.305      7.589
REMARK  Name = 
REMARK  7 active torsions:
REMARK  status: ('A' for Active; 'I' for Inactive)
REMARK    1  A    between atoms: C_2  and  C_3
REMARK    2  A    between atoms: C_3  and  N_5
REMARK    3  A    between atoms: C_6  and  C_8
REMARK    4  A    between atoms: N_11  and  C_12
REMARK    5  A    between atoms: C_12  and  C_13
REMARK    6  A    between atoms: C_13  and  C_14
REMARK    7  A    between atoms: C_17  and  O_18
REMARK                            x       y       z     vdW  Elec       q    Type
REMARK                         _______ _______ _______ _____ _____    ______ ____
ROOT
ATOM      1  C   UNL     1      37.860   3.341  14.778  0.00  0.00    +0.000 A 
ATOM      2  C   UNL     1      38.231   3.031  13.493  0.00  0.00    +0.000 A 
ATOM      3  N   UNL     1      38.908   3.901  12.583  0.00  0.00    +0.000 NA
ATOM      4  N   UNL     1      37.859   1.761  13.199  0.00  0.00    +0.000 N 
ATOM      5  C   UNL     1      37.260   1.290  14.304  0.00  0.00    +0.000 A 
ATOM      6  N   UNL     1      36.702   0.100  14.584  0.00  0.00    +0.000 NA
ATOM      7  C   UNL     1      36.139  -0.198  15.770  0.00  0.00    +0.000 A 
ATOM      8  C   UNL     1      35.572  -1.427  16.036  0.00  0.00    +0.000 A 
ATOM      9  C   UNL     1      34.990  -1.756  17.241  0.00  0.00    +0.000 A 
ATOM     10  C   UNL     1      34.975  -0.796  18.244  0.00  0.00    +0.000 A 
ATOM     11  C   UNL     1      35.540   0.444  17.991  0.00  0.00    +0.000 A 
ATOM     12  C   UNL     1      36.122   0.754  16.768  0.00  0.00    +0.000 A 
ATOM     13  N   UNL     1      36.673   1.955  16.518  0.00  0.00    +0.000 NA
ATOM     14  C   UNL     1      37.238   2.238  15.313  0.00  0.00    +0.000 A 
ENDROOT
BRANCH   1  16
ATOM     15  N   UNL     1      39.007   4.713  16.536  0.00  0.00    +0.000 NA
ATOM     16  C   UNL     1      38.079   4.628  15.486  0.00  0.00    +0.000 C 
ATOM     17  O   UNL     1      37.443   5.651  15.160  0.00  0.00    +0.000 OA
BRANCH  15  18
ATOM     18  C   UNL     1      39.144   6.115  17.197  0.00  0.00    +0.000 C 
ATOM     19  C   UNL     1      39.230   5.555  18.743  0.00  0.00    +0.000 C 
BRANCH  18  21
ATOM     20  C   UNL     1      41.221   6.398  18.461  0.00  0.00    +0.000 C 
ATOM     21  C   UNL     1      40.780   6.205  17.020  0.00  0.00    +0.000 C 
ENDBRANCH  18  21
ENDBRANCH  15  18
ENDBRANCH   1  16
BRANCH   4  22
ATOM     22  C   UNL     1      38.093   1.108  11.917  0.00  0.00    +0.000 C 
BRANCH  22  23
ATOM     23  C   UNL     1      39.499   0.591  11.812  0.00  0.00    +0.000 C 
BRANCH  23  24
ATOM     24  C   UNL     1      39.648  -0.489  12.818  0.00  0.00    +0.000 A 
ATOM     25  C   UNL     1      40.541  -0.298  13.868  0.00  0.00    +0.000 A 
ATOM     26  C   UNL     1      40.743  -1.251  14.843  0.00  0.00    +0.000 A 
ATOM     27  C   UNL     1      40.062  -2.446  14.815  0.00  0.00    +0.000 A 
ATOM     28  C   UNL     1      39.176  -2.639  13.774  0.00  0.00    +0.000 A 
ATOM     29  C   UNL     1      38.975  -1.681  12.798  0.00  0.00    +0.000 A 
BRANCH  27  30
ATOM     30  O   UNL     1      40.258  -3.428  15.801  0.00  0.00    +0.000 OA
ATOM     31  C   UNL     1      39.182  -3.695  16.679  0.00  0.00    +0.000 C 
ENDBRANCH  27  30
ENDBRANCH  23  24
ENDBRANCH  22  23
ENDBRANCH   4  22
TORSDOF 7
ENDMDL
MODEL 5
REMARK VINA RESULT:      -7.3      2.994      3.961
REMARK  Name = 
REMARK  7 active torsions:
REMARK  status: ('A' for Active; 'I' for Inactive)
REMARK    1  A    between atoms: C_2  and  C_3
REMARK    2  A    between atoms: C_3  and  N_5
REMARK    3  A    between atoms: C_6  and  C_8
REMARK    4  A    between atoms: N_11  and  C_12
REMARK    5  A    between atoms: C_12  and  C_13
REMARK    6  A    between atoms: C_13  and  C_14
REMARK    7  A    between atoms: C_17  and  O_18
REMARK                            x       y       z     vdW  Elec       q    Type
REMARK                         _______ _______ _______ _____ _____    ______ ____
ROOT
ATOM      1  C   UNL     1      36.916   1.602  15.348  0.00  0.00    +0.000 A 
ATOM      2  C   UNL     1      37.157   2.738  16.081  0.00  0.00    +0.000 A 
ATOM      3  N   UNL     1      37.085   2.849  17.504  0.00  0.00    +0.000 NA
ATOM      4  N   UNL     1      37.479   3.762  15.251  0.00  0.00    +0.000 N 
ATOM      5  C   UNL     1      37.437   3.254  14.009  0.00  0.00    +0.000 A 
ATOM      6  N   UNL     1      37.665   3.807  12.806  0.00  0.00    +0.000 NA
ATOM      7  C   UNL     1      37.573   3.130  11.646  0.00  0.00    +0.000 A 
ATOM      8  C   UNL     1      37.813   3.718  10.422  0.00  0.00    +0.000 A 
ATOM      9  C   UNL     1      37.727   3.046   9.221  0.00  0.00    +0.000 A 
ATOM     10  C   UNL     1      37.379   1.702   9.246  0.00  0.00    +0.000 A 
ATOM     11  C   UNL     1      37.135   1.099  10.469  0.00  0.00    +0.000 A 
ATOM     12  C   UNL     1      37.228   1.794  11.669  0.00  0.00    +0.000 A 
ATOM     13  N   UNL     1      36.994   1.213  12.858  0.00  0.00    +0.000 NA
ATOM     14  C   UNL     1      37.091   1.913  14.020  0.00  0.00    +0.000 A 
ENDROOT
BRANCH   1  16
ATOM     15  N   UNL     1      37.497  -0.570  16.458  0.00  0.00    +0.000 NA
ATOM     16  C   UNL     1      36.534   0.266  15.871  0.00  0.00    +0.000 C 
ATOM     17  O   UNL     1      35.356  -0.134  15.797  0.00  0.00    +0.000 OA
BRANCH  15  18
ATOM     18  C   UNL     1      36.973  -1.944  16.966  0.00  0.00    +0.000 C 
ATOM     19  C   UNL     1      38.456  -2.646  17.089  0.00  0.00    +0.000 C 
BRANCH  18  21
ATOM     20  C   UNL     1      38.162  -2.207  19.089  0.00  0.00    +0.000 C 
ATOM     21  C   UNL     1      36.923  -1.508  18.554  0.00  0.00    +0.000 C 
ENDBRANCH  18  21
ENDBRANCH  15  18
ENDBRANCH   1  16
BRANCH   4  22
ATOM     22  C   UNL     1      37.791   5.115  15.694  0.00  0.00    +0.000 C 
BRANCH  22  23
ATOM     23  C   UNL     1      39.254   5.418  15.546  0.00  0.00    +0.000 C 
BRANCH  23  24
ATOM     24  C   UNL     1      39.776   5.746  16.896  0.00  0.00    +0.000 A 
ATOM     25  C   UNL     1      41.094   6.174  17.010  0.00  0.00    +0.000 A 
ATOM     26  C   UNL     1      41.659   6.496  18.227  0.00  0.00    +0.000 A 
ATOM     27  C   UNL     1      40.931   6.404  19.390  0.00  0.00    +0.000 A 
ATOM     28  C   UNL     1      39.622   5.980  19.279  0.00  0.00    +0.000 A 
ATOM     29  C   UNL     1      39.058   5.659  18.059  0.00  0.00    +0.000 A 
BRANCH  27  30
ATOM     30  O   UNL     1      41.492   6.729  20.637  0.00  0.00    +0.000 OA
ATOM     31  C   UNL     1      42.822   6.316  20.882  0.00  0.00    +0.000 C 
ENDBRANCH  27  30
ENDBRANCH  23  24
ENDBRANCH  22  23
ENDBRANCH   4  22
TORSDOF 7
ENDMDL
MODEL 6
REMARK VINA RESULT:      -7.1      2.425      3.092
REMARK  Name = 
REMARK  7 active torsions:
REMARK  status: ('A' for Active; 'I' for Inactive)
REMARK    1  A    between atoms: C_2  and  C_3
REMARK    2  A    between atoms: C_3  and  N_5
REMARK    3  A    between atoms: C_6  and  C_8
REMARK    4  A    between atoms: N_11  and  C_12
REMARK    5  A    between atoms: C_12  and  C_13
REMARK    6  A    between atoms: C_13  and  C_14
REMARK    7  A    between atoms: C_17  and  O_18
REMARK                            x       y       z     vdW  Elec       q    Type
REMARK                         _______ _______ _______ _____ _____    ______ ____
ROOT
ATOM      1  C   UNL     1      37.515   0.430  15.213  0.00  0.00    +0.000 A 
ATOM      2  C   UNL     1      37.252   1.687  15.700  0.00  0.00    +0.000 A 
ATOM      3  N   UNL     1      36.573   1.987  16.922  0.00  0.00    +0.000 NA
ATOM      4  N   UNL     1      37.732   2.623  14.845  0.00  0.00    +0.000 N 
ATOM      5  C   UNL     1      38.292   1.942  13.833  0.00  0.00    +0.000 A 
ATOM      6  N   UNL     1      38.917   2.348  12.715  0.00  0.00    +0.000 NA
ATOM      7  C   UNL     1      39.425   1.504  11.797  0.00  0.00    +0.000 A 
ATOM      8  C   UNL     1      40.063   1.944  10.657  0.00  0.00    +0.000 A 
ATOM      9  C   UNL     1      40.592   1.102   9.702  0.00  0.00    +0.000 A 
ATOM     10  C   UNL     1      40.474  -0.267   9.901  0.00  0.00    +0.000 A 
ATOM     11  C   UNL     1      39.834  -0.724  11.043  0.00  0.00    +0.000 A 
ATOM     12  C   UNL     1      39.309   0.144  11.992  0.00  0.00    +0.000 A 
ATOM     13  N   UNL     1      38.689  -0.294  13.102  0.00  0.00    +0.000 NA
ATOM     14  C   UNL     1      38.182   0.574  14.019  0.00  0.00    +0.000 A 
ENDROOT
BRANCH   1  16
ATOM     15  N   UNL     1      37.885  -1.348  16.942  0.00  0.00    +0.000 NA
ATOM     16  C   UNL     1      37.157  -0.866  15.843  0.00  0.00    +0.000 C 
ATOM     17  O   UNL     1      36.207  -1.545  15.406  0.00  0.00    +0.000 OA
BRANCH  15  18
ATOM     18  C   UNL     1      37.413  -2.717  17.511  0.00  0.00    +0.000 C 
ATOM     19  C   UNL     1      38.797  -3.529  17.147  0.00  0.00    +0.000 C 
BRANCH  18  21
ATOM     20  C   UNL     1      36.920  -1.276  19.428  0.00  0.00    +0.000 C 
ATOM     21  C   UNL     1      37.873  -2.402  19.062  0.00  0.00    +0.000 C 
ENDBRANCH  18  21
ENDBRANCH  15  18
ENDBRANCH   1  16
BRANCH   4  22
ATOM     22  C   UNL     1      37.620   4.062  15.049  0.00  0.00    +0.000 C 
BRANCH  22  23
ATOM     23  C   UNL     1      38.956   4.738  14.936  0.00  0.00    +0.000 C 
BRANCH  23  24
ATOM     24  C   UNL     1      39.341   5.184  16.298  0.00  0.00    +0.000 A 
ATOM     25  C   UNL     1      40.459   6.000  16.436  0.00  0.00    +0.000 A 
ATOM     26  C   UNL     1      40.889   6.457  17.664  0.00  0.00    +0.000 A 
ATOM     27  C   UNL     1      40.220   6.117  18.817  0.00  0.00    +0.000 A 
ATOM     28  C   UNL     1      39.110   5.308  18.683  0.00  0.00    +0.000 A 
ATOM     29  C   UNL     1      38.682   4.852  17.451  0.00  0.00    +0.000 A 
BRANCH  27  30
ATOM     30  O   UNL     1      40.645   6.575  20.076  0.00  0.00    +0.000 OA
ATOM     31  C   UNL     1      41.989   6.332  20.439  0.00  0.00    +0.000 C 
ENDBRANCH  27  30
ENDBRANCH  23  24
ENDBRANCH  22  23
ENDBRANCH   4  22
TORSDOF 7
ENDMDL
MODEL 7
REMARK VINA RESULT:      -7.1      3.913      6.313
REMARK  Name = 
REMARK  7 active torsions:
REMARK  status: ('A' for Active; 'I' for Inactive)
REMARK    1  A    between atoms: C_2  and  C_3
REMARK    2  A    between atoms: C_3  and  N_5
REMARK    3  A    between atoms: C_6  and  C_8
REMARK    4  A    between atoms: N_11  and  C_12
REMARK    5  A    between atoms: C_12  and  C_13
REMARK    6  A    between atoms: C_13  and  C_14
REMARK    7  A    between atoms: C_17  and  O_18
REMARK                            x       y       z     vdW  Elec       q    Type
REMARK                         _______ _______ _______ _____ _____    ______ ____
ROOT
ATOM      1  C   UNL     1      37.753   2.886  15.008  0.00  0.00    +0.000 A 
ATOM      2  C   UNL     1      37.288   3.385  13.816  0.00  0.00    +0.000 A 
ATOM      3  N   UNL     1      36.876   2.611  12.688  0.00  0.00    +0.000 NA
ATOM      4  N   UNL     1      37.273   4.740  13.858  0.00  0.00    +0.000 N 
ATOM      5  C   UNL     1      37.728   5.074  15.076  0.00  0.00    +0.000 A 
ATOM      6  N   UNL     1      37.925   6.267  15.664  0.00  0.00    +0.000 NA
ATOM      7  C   UNL     1      38.397   6.409  16.917  0.00  0.00    +0.000 A 
ATOM      8  C   UNL     1      38.590   7.644  17.501  0.00  0.00    +0.000 A 
ATOM      9  C   UNL     1      39.072   7.817  18.781  0.00  0.00    +0.000 A 
ATOM     10  C   UNL     1      39.379   6.684  19.523  0.00  0.00    +0.000 A 
ATOM     11  C   UNL     1      39.191   5.438  18.948  0.00  0.00    +0.000 A 
ATOM     12  C   UNL     1      38.704   5.286  17.656  0.00  0.00    +0.000 A 
ATOM     13  N   UNL     1      38.518   4.078  17.094  0.00  0.00    +0.000 NA
ATOM     14  C   UNL     1      38.039   3.953  15.827  0.00  0.00    +0.000 A 
ENDROOT
BRANCH   1  16
ATOM     15  N   UNL     1      36.901   0.764  16.035  0.00  0.00    +0.000 NA
ATOM     16  C   UNL     1      37.925   1.457  15.373  0.00  0.00    +0.000 C 
ATOM     17  O   UNL     1      38.980   0.852  15.097  0.00  0.00    +0.000 OA
BRANCH  15  18
ATOM     18  C   UNL     1      37.203  -0.727  16.364  0.00  0.00    +0.000 C 
ATOM     19  C   UNL     1      36.634  -0.670  17.907  0.00  0.00    +0.000 C 
BRANCH  18  21
ATOM     20  C   UNL     1      34.876  -1.204  16.955  0.00  0.00    +0.000 C 
ATOM     21  C   UNL     1      35.790  -1.306  15.745  0.00  0.00    +0.000 C 
ENDBRANCH  18  21
ENDBRANCH  15  18
ENDBRANCH   1  16
BRANCH   4  22
ATOM     22  C   UNL     1      36.841   5.595  12.759  0.00  0.00    +0.000 C 
BRANCH  22  23
ATOM     23  C   UNL     1      35.352   5.792  12.770  0.00  0.00    +0.000 C 
BRANCH  23  24
ATOM     24  C   UNL     1      35.080   7.051  13.507  0.00  0.00    +0.000 A 
ATOM     25  C   UNL     1      33.932   7.125  14.290  0.00  0.00    +0.000 A 
ATOM     26  C   UNL     1      33.601   8.258  15.004  0.00  0.00    +0.000 A 
ATOM     27  C   UNL     1      34.403   9.374  14.967  0.00  0.00    +0.000 A 
ATOM     28  C   UNL     1      35.542   9.304  14.191  0.00  0.00    +0.000 A 
ATOM     29  C   UNL     1      35.872   8.168  13.477  0.00  0.00    +0.000 A 
BRANCH  27  30
ATOM     30  O   UNL     1      34.080  10.536  15.689  0.00  0.00    +0.000 OA
ATOM     31  C   UNL     1      33.566  10.371  16.995  0.00  0.00    +0.000 C 
ENDBRANCH  27  30
ENDBRANCH  23  24
ENDBRANCH  22  23
ENDBRANCH   4  22
TORSDOF 7
ENDMDL
MODEL 8
REMARK VINA RESULT:      -7.1      2.998      5.520
REMARK  Name = 
REMARK  7 active torsions:
REMARK  status: ('A' for Active; 'I' for Inactive)
REMARK    1  A    between atoms: C_2  and  C_3
REMARK    2  A    between atoms: C_3  and  N_5
REMARK    3  A    between atoms: C_6  and  C_8
REMARK    4  A    between atoms: N_11  and  C_12
REMARK    5  A    between atoms: C_12  and  C_13
REMARK    6  A    between atoms: C_13  and  C_14
REMARK    7  A    between atoms: C_17  and  O_18
REMARK                            x       y       z     vdW  Elec       q    Type
REMARK                         _______ _______ _______ _____ _____    ______ ____
ROOT
ATOM      1  C   UNL     1      37.876   2.713  13.846  0.00  0.00    +0.000 A 
ATOM      2  C   UNL     1      38.167   3.921  14.432  0.00  0.00    +0.000 A 
ATOM      3  N   UNL     1      38.815   5.025  13.798  0.00  0.00    +0.000 NA
ATOM      4  N   UNL     1      37.747   3.920  15.721  0.00  0.00    +0.000 N 
ATOM      5  C   UNL     1      37.196   2.713  15.927  0.00  0.00    +0.000 A 
ATOM      6  N   UNL     1      36.622   2.162  17.010  0.00  0.00    +0.000 NA
ATOM      7  C   UNL     1      36.116   0.914  17.030  0.00  0.00    +0.000 A 
ATOM      8  C   UNL     1      35.530   0.369  18.153  0.00  0.00    +0.000 A 
ATOM      9  C   UNL     1      35.005  -0.905  18.199  0.00  0.00    +0.000 A 
ATOM     10  C   UNL     1      35.069  -1.681  17.050  0.00  0.00    +0.000 A 
ATOM     11  C   UNL     1      35.656  -1.146  15.914  0.00  0.00    +0.000 A 
ATOM     12  C   UNL     1      36.179   0.141  15.889  0.00  0.00    +0.000 A 
ATOM     13  N   UNL     1      36.748   0.665  14.790  0.00  0.00    +0.000 NA
ATOM     14  C   UNL     1      37.254   1.928  14.787  0.00  0.00    +0.000 A 
ENDROOT
BRANCH   1  16
ATOM     15  N   UNL     1      39.247   1.448  12.170  0.00  0.00    +0.000 NA
ATOM     16  C   UNL     1      38.170   2.304  12.449  0.00  0.00    +0.000 C 
ATOM     17  O   UNL     1      37.466   2.713  11.504  0.00  0.00    +0.000 OA
BRANCH  15  18
ATOM     18  C   UNL     1      39.451   1.094  10.669  0.00  0.00    +0.000 C 
ATOM     19  C   UNL     1      41.063   1.426  10.643  0.00  0.00    +0.000 C 
BRANCH  18  21
ATOM     20  C   UNL     1      41.188  -0.595  11.017  0.00  0.00    +0.000 C 
ATOM     21  C   UNL     1      39.673  -0.518  10.923  0.00  0.00    +0.000 C 
ENDBRANCH  18  21
ENDBRANCH  15  18
ENDBRANCH   1  16
BRANCH   4  22
ATOM     22  C   UNL     1      37.900   5.042  16.639  0.00  0.00    +0.000 C 
BRANCH  22  23
ATOM     23  C   UNL     1      39.037   4.819  17.594  0.00  0.00    +0.000 C 
BRANCH  23  24
ATOM     24  C   UNL     1      39.075   5.981  18.515  0.00  0.00    +0.000 A 
ATOM     25  C   UNL     1      38.141   6.997  18.339  0.00  0.00    +0.000 A 
ATOM     26  C   UNL     1      38.108   8.114  19.148  0.00  0.00    +0.000 A 
ATOM     27  C   UNL     1      39.011   8.269  20.173  0.00  0.00    +0.000 A 
ATOM     28  C   UNL     1      39.939   7.263  20.351  0.00  0.00    +0.000 A 
ATOM     29  C   UNL     1      39.970   6.145  19.539  0.00  0.00    +0.000 A 
BRANCH  27  30
ATOM     30  O   UNL     1      38.991   9.402  21.006  0.00  0.00    +0.000 OA
ATOM     31  C   UNL     1      38.187  10.493  20.605  0.00  0.00    +0.000 C 
ENDBRANCH  27  30
ENDBRANCH  23  24
ENDBRANCH  22  23
ENDBRANCH   4  22
TORSDOF 7
ENDMDL
MODEL 9
REMARK VINA RESULT:      -6.9      3.022      8.312
REMARK  Name = 
REMARK  7 active torsions:
REMARK  status: ('A' for Active; 'I' for Inactive)
REMARK    1  A    between atoms: C_2  and  C_3
REMARK    2  A    between atoms: C_3  and  N_5
REMARK    3  A    between atoms: C_6  and  C_8
REMARK    4  A    between atoms: N_11  and  C_12
REMARK    5  A    between atoms: C_12  and  C_13
REMARK    6  A    between atoms: C_13  and  C_14
REMARK    7  A    between atoms: C_17  and  O_18
REMARK                            x       y       z     vdW  Elec       q    Type
REMARK                         _______ _______ _______ _____ _____    ______ ____
ROOT
ATOM      1  C   UNL     1      38.100   2.450  15.093  0.00  0.00    +0.000 A 
ATOM      2  C   UNL     1      39.030   2.063  14.161  0.00  0.00    +0.000 A 
ATOM      3  N   UNL     1      40.028   2.901  13.574  0.00  0.00    +0.000 NA
ATOM      4  N   UNL     1      38.869   0.749  13.865  0.00  0.00    +0.000 N 
ATOM      5  C   UNL     1      37.840   0.329  14.618  0.00  0.00    +0.000 A 
ATOM      6  N   UNL     1      37.247  -0.872  14.736  0.00  0.00    +0.000 NA
ATOM      7  C   UNL     1      36.207  -1.110  15.559  0.00  0.00    +0.000 A 
ATOM      8  C   UNL     1      35.614  -2.351  15.664  0.00  0.00    +0.000 A 
ATOM      9  C   UNL     1      34.550  -2.621  16.498  0.00  0.00    +0.000 A 
ATOM     10  C   UNL     1      34.049  -1.586  17.275  0.00  0.00    +0.000 A 
ATOM     11  C   UNL     1      34.635  -0.334  17.179  0.00  0.00    +0.000 A 
ATOM     12  C   UNL     1      35.707  -0.083  16.331  0.00  0.00    +0.000 A 
ATOM     13  N   UNL     1      36.280   1.129  16.235  0.00  0.00    +0.000 NA
ATOM     14  C   UNL     1      37.330   1.353  15.399  0.00  0.00    +0.000 A 
ENDROOT
BRANCH   1  16
ATOM     15  N   UNL     1      38.764   4.228  16.732  0.00  0.00    +0.000 NA
ATOM     16  C   UNL     1      37.934   3.803  15.683  0.00  0.00    +0.000 C 
ATOM     17  O   UNL     1      37.057   4.580  15.257  0.00  0.00    +0.000 OA
BRANCH  15  18
ATOM     18  C   UNL     1      38.490   5.664  17.264  0.00  0.00    +0.000 C 
ATOM     19  C   UNL     1      39.142   5.411  18.753  0.00  0.00    +0.000 C 
BRANCH  18  21
ATOM     20  C   UNL     1      40.792   6.250  17.853  0.00  0.00    +0.000 C 
ATOM     21  C   UNL     1      39.871   6.319  16.647  0.00  0.00    +0.000 C 
ENDBRANCH  18  21
ENDBRANCH  15  18
ENDBRANCH   1  16
BRANCH   4  22
ATOM     22  C   UNL     1      39.685   0.012  12.909  0.00  0.00    +0.000 C 
BRANCH  22  23
ATOM     23  C   UNL     1      40.819  -0.700  13.588  0.00  0.00    +0.000 C 
BRANCH  23  24
ATOM     24  C   UNL     1      41.310  -1.742  12.652  0.00  0.00    +0.000 A 
ATOM     25  C   UNL     1      42.499  -2.397  12.956  0.00  0.00    +0.000 A 
ATOM     26  C   UNL     1      43.028  -3.375  12.139  0.00  0.00    +0.000 A 
ATOM     27  C   UNL     1      42.392  -3.744  10.976  0.00  0.00    +0.000 A 
ATOM     28  C   UNL     1      41.213  -3.095  10.673  0.00  0.00    +0.000 A 
ATOM     29  C   UNL     1      40.685  -2.116  11.493  0.00  0.00    +0.000 A 
BRANCH  27  30
ATOM     30  O   UNL     1      42.919  -4.738  10.134  0.00  0.00    +0.000 OA
ATOM     31  C   UNL     1      42.001  -5.565   9.448  0.00  0.00    +0.000 C 
ENDBRANCH  27  30
ENDBRANCH  23  24
ENDBRANCH  22  23
ENDBRANCH   4  22
TORSDOF 7
ENDMDL
MODEL 10
REMARK VINA RESULT:      -6.8      2.888      6.530
REMARK  Name = 
REMARK  7 active torsions:
REMARK  status: ('A' for Active; 'I' for Inactive)
REMARK    1  A    between atoms: C_2  and  C_3
REMARK    2  A    between atoms: C_3  and  N_5
REMARK    3  A    between atoms: C_6  and  C_8
REMARK    4  A    between atoms: N_11  and  C_12
REMARK    5  A    between atoms: C_12  and  C_13
REMARK    6  A    between atoms: C_13  and  C_14
REMARK    7  A    between atoms: C_17  and  O_18
REMARK                            x       y       z     vdW  Elec       q    Type
REMARK                         _______ _______ _______ _____ _____    ______ ____
ROOT
ATOM      1  C   UNL     1      37.699   0.039  14.946  0.00  0.00    +0.000 A 
ATOM      2  C   UNL     1      38.199  -0.515  13.793  0.00  0.00    +0.000 A 
ATOM      3  N   UNL     1      38.183   0.088  12.498  0.00  0.00    +0.000 NA
ATOM      4  N   UNL     1      38.719  -1.739  14.058  0.00  0.00    +0.000 N 
ATOM      5  C   UNL     1      38.541  -1.937  15.374  0.00  0.00    +0.000 A 
ATOM      6  N   UNL     1      38.859  -2.965  16.178  0.00  0.00    +0.000 NA
ATOM      7  C   UNL     1      38.597  -2.986  17.498  0.00  0.00    +0.000 A 
ATOM      8  C   UNL     1      38.933  -4.053  18.306  0.00  0.00    +0.000 A 
ATOM      9  C   UNL     1      38.677  -4.098  19.659  0.00  0.00    +0.000 A 
ATOM     10  C   UNL     1      38.044  -3.009  20.242  0.00  0.00    +0.000 A 
ATOM     11  C   UNL     1      37.699  -1.930  19.443  0.00  0.00    +0.000 A 
ATOM     12  C   UNL     1      37.968  -1.905  18.080  0.00  0.00    +0.000 A 
ATOM     13  N   UNL     1      37.637  -0.860  17.301  0.00  0.00    +0.000 NA
ATOM     14  C   UNL     1      37.910  -0.856  15.968  0.00  0.00    +0.000 A 
ENDROOT
BRANCH   1  16
ATOM     15  N   UNL     1      37.795   2.491  15.459  0.00  0.00    +0.000 NA
ATOM     16  C   UNL     1      37.045   1.364  15.090  0.00  0.00    +0.000 C 
ATOM     17  O   UNL     1      35.821   1.496  14.885  0.00  0.00    +0.000 OA
BRANCH  15  18
ATOM     18  C   UNL     1      36.995   3.820  15.578  0.00  0.00    +0.000 C 
ATOM     19  C   UNL     1      38.080   4.574  16.559  0.00  0.00    +0.000 C 
BRANCH  18  21
ATOM     20  C   UNL     1      36.335   4.730  13.403  0.00  0.00    +0.000 C 
ATOM     21  C   UNL     1      37.606   4.487  14.201  0.00  0.00    +0.000 C 
ENDBRANCH  18  21
ENDBRANCH  15  18
ENDBRANCH   1  16
BRANCH   4  22
ATOM     22  C   UNL     1      39.330  -2.610  13.061  0.00  0.00    +0.000 C 
BRANCH  22  23
ATOM     23  C   UNL     1      40.731  -2.988  13.446  0.00  0.00    +0.000 C 
BRANCH  23  24
ATOM     24  C   UNL     1      41.573  -1.776  13.292  0.00  0.00    +0.000 A 
ATOM     25  C   UNL     1      42.332  -1.354  14.379  0.00  0.00    +0.000 A 
ATOM     26  C   UNL     1      43.138  -0.237  14.323  0.00  0.00    +0.000 A 
ATOM     27  C   UNL     1      43.223   0.516  13.175  0.00  0.00    +0.000 A 
ATOM     28  C   UNL     1      42.471   0.100  12.095  0.00  0.00    +0.000 A 
ATOM     29  C   UNL     1      41.664  -1.020  12.153  0.00  0.00    +0.000 A 
BRANCH  27  30
ATOM     30  O   UNL     1      44.040   1.657  13.102  0.00  0.00    +0.000 OA
ATOM     31  C   UNL     1      45.013   1.700  12.078  0.00  0.00    +0.000 C 
ENDBRANCH  27  30
ENDBRANCH  23  24
ENDBRANCH  22  23
ENDBRANCH   4  22
TORSDOF 7
ENDMDL
