MODEL 1
REMARK VINA RESULT:      -6.4      0.000      0.000
REMARK  Name = 
REMARK  3 active torsions:
REMARK  status: ('A' for Active; 'I' for Inactive)
REMARK    1  A    between atoms: C_2  and  C_4
REMARK    2  A    between atoms: C_6  and  C_7
REMARK    3  A    between atoms: C_14  and  C_15
REMARK                            x       y       z     vdW  Elec       q    Type
REMARK                         _______ _______ _______ _____ _____    ______ ____
ROOT
ATOM      1  C   UNL     1      24.888  25.300  28.563  0.00  0.00    +0.000 A 
ATOM      2  C   UNL     1      25.121  25.001  27.273  0.00  0.00    +0.000 A 
ATOM      3  C   UNL     1      26.020  23.997  26.938  0.00  0.00    +0.000 A 
ATOM      4  C   UNL     1      26.644  23.305  27.956  0.00  0.00    +0.000 A 
ATOM      5  C   UNL     1      26.382  23.614  29.289  0.00  0.00    +0.000 A 
ATOM      6  C   UNL     1      25.532  24.593  29.560  0.00  0.00    +0.000 A 
ATOM      7  O   UNL     1      25.288  24.920  30.923  0.00  0.00    +0.000 OA
ENDROOT
BRANCH   3   8
ATOM      8  C   UNL     1      26.377  23.695  25.493  0.00  0.00    +0.000 A 
ATOM      9  C   UNL     1      27.659  24.063  25.025  0.00  0.00    +0.000 A 
ATOM     10  S   UNL     1      27.533  23.722  23.365  0.00  0.00    +0.000 S 
ATOM     11  C   UNL     1      25.921  23.157  23.351  0.00  0.00    +0.000 A 
ATOM     12  O   UNL     1      25.198  22.717  22.348  0.00  0.00    +0.000 OA
ATOM     13  N   UNL     1      25.537  23.253  24.640  0.00  0.00    +0.000 NA
ENDBRANCH   3   8
BRANCH   1  15
ATOM     14  C   UNL     1      22.900  26.809  28.070  0.00  0.00    +0.000 C 
ATOM     15  C   UNL     1      24.120  26.515  28.997  0.00  0.00    +0.000 C 
ATOM     16  C   UNL     1      25.135  27.728  28.563  0.00  0.00    +0.000 C 
ENDBRANCH   1  15
BRANCH   5  17
ATOM     17  C   UNL     1      27.040  22.796  30.358  0.00  0.00    +0.000 C 
ATOM     18  C   UNL     1      26.346  21.455  30.565  0.00  0.00    +0.000 C 
ATOM     19  C   UNL     1      28.508  22.628  30.123  0.00  0.00    +0.000 C 
ENDBRANCH   5  17
TORSDOF 3
ENDMDL
MODEL 2
REMARK VINA RESULT:      -6.0     15.728     19.151
REMARK  Name = 
REMARK  3 active torsions:
REMARK  status: ('A' for Active; 'I' for Inactive)
REMARK    1  A    between atoms: C_2  and  C_4
REMARK    2  A    between atoms: C_6  and  C_7
REMARK    3  A    between atoms: C_14  and  C_15
REMARK                            x       y       z     vdW  Elec       q    Type
REMARK                         _______ _______ _______ _____ _____    ______ ____
ROOT
ATOM      1  C   UNL     1      33.034  20.541  10.356  0.00  0.00    +0.000 A 
ATOM      2  C   UNL     1      32.117  21.114  11.154  0.00  0.00    +0.000 A 
ATOM      3  C   UNL     1      30.900  21.533  10.634  0.00  0.00    +0.000 A 
ATOM      4  C   UNL     1      30.650  21.327   9.292  0.00  0.00    +0.000 A 
ATOM      5  C   UNL     1      31.603  20.718   8.479  0.00  0.00    +0.000 A 
ATOM      6  C   UNL     1      32.758  20.352   9.015  0.00  0.00    +0.000 A 
ATOM      7  O   UNL     1      33.736  19.754   8.173  0.00  0.00    +0.000 OA
ENDROOT
BRANCH   3   8
ATOM      8  C   UNL     1      29.878  22.267  11.486  0.00  0.00    +0.000 A 
ATOM      9  C   UNL     1      30.316  22.889  12.677  0.00  0.00    +0.000 A 
ATOM     10  S   UNL     1      28.845  23.389  13.367  0.00  0.00    +0.000 S 
ATOM     11  C   UNL     1      27.792  22.802  12.157  0.00  0.00    +0.000 A 
ATOM     12  O   UNL     1      26.484  22.874  12.080  0.00  0.00    +0.000 OA
ATOM     13  N   UNL     1      28.622  22.237  11.257  0.00  0.00    +0.000 NA
ENDBRANCH   3   8
BRANCH   1  15
ATOM     14  C   UNL     1      34.566  20.045  12.325  0.00  0.00    +0.000 C 
ATOM     15  C   UNL     1      34.448  20.279  10.787  0.00  0.00    +0.000 C 
ATOM     16  C   UNL     1      35.123  21.769  10.651  0.00  0.00    +0.000 C 
ENDBRANCH   1  15
BRANCH   5  17
ATOM     17  C   UNL     1      31.263  20.463   7.042  0.00  0.00    +0.000 C 
ATOM     18  C   UNL     1      30.054  19.549   6.891  0.00  0.00    +0.000 C 
ATOM     19  C   UNL     1      31.098  21.730   6.264  0.00  0.00    +0.000 C 
ENDBRANCH   5  17
TORSDOF 3
ENDMDL
MODEL 3
REMARK VINA RESULT:      -6.0      2.484      3.989
REMARK  Name = 
REMARK  3 active torsions:
REMARK  status: ('A' for Active; 'I' for Inactive)
REMARK    1  A    between atoms: C_2  and  C_4
REMARK    2  A    between atoms: C_6  and  C_7
REMARK    3  A    between atoms: C_14  and  C_15
REMARK                            x       y       z     vdW  Elec       q    Type
REMARK                         _______ _______ _______ _____ _____    ______ ____
ROOT
ATOM      1  C   UNL     1      28.112  22.649  29.193  0.00  0.00    +0.000 A 
ATOM      2  C   UNL     1      27.767  22.671  27.895  0.00  0.00    +0.000 A 
ATOM      3  C   UNL     1      28.743  22.768  26.912  0.00  0.00    +0.000 A 
ATOM      4  C   UNL     1      30.066  22.816  27.300  0.00  0.00    +0.000 A 
ATOM      5  C   UNL     1      30.412  22.777  28.649  0.00  0.00    +0.000 A 
ATOM      6  C   UNL     1      29.445  22.705  29.552  0.00  0.00    +0.000 A 
ATOM      7  O   UNL     1      29.804  22.690  30.928  0.00  0.00    +0.000 OA
ENDROOT
BRANCH   3   8
ATOM      8  C   UNL     1      28.385  22.888  25.440  0.00  0.00    +0.000 A 
ATOM      9  C   UNL     1      29.408  23.222  24.524  0.00  0.00    +0.000 A 
ATOM     10  S   UNL     1      28.528  23.433  23.085  0.00  0.00    +0.000 S 
ATOM     11  C   UNL     1      26.969  23.105  23.699  0.00  0.00    +0.000 A 
ATOM     12  O   UNL     1      25.812  23.092  23.079  0.00  0.00    +0.000 OA
ATOM     13  N   UNL     1      27.187  22.842  25.003  0.00  0.00    +0.000 NA
ENDBRANCH   3   8
BRANCH   1  15
ATOM     14  C   UNL     1      26.236  21.507  30.478  0.00  0.00    +0.000 C 
ATOM     15  C   UNL     1      27.116  22.785  30.309  0.00  0.00    +0.000 C 
ATOM     16  C   UNL     1      26.026  23.826  29.663  0.00  0.00    +0.000 C 
ENDBRANCH   1  15
BRANCH   5  17
ATOM     17  C   UNL     1      31.864  22.774  29.019  0.00  0.00    +0.000 C 
ATOM     18  C   UNL     1      32.438  21.364  29.078  0.00  0.00    +0.000 C 
ATOM     19  C   UNL     1      32.677  23.665  28.134  0.00  0.00    +0.000 C 
ENDBRANCH   5  17
TORSDOF 3
ENDMDL
MODEL 4
REMARK VINA RESULT:      -5.6     31.120     33.106
REMARK  Name = 
REMARK  3 active torsions:
REMARK  status: ('A' for Active; 'I' for Inactive)
REMARK    1  A    between atoms: C_2  and  C_4
REMARK    2  A    between atoms: C_6  and  C_7
REMARK    3  A    between atoms: C_14  and  C_15
REMARK                            x       y       z     vdW  Elec       q    Type
REMARK                         _______ _______ _______ _____ _____    ______ ____
ROOT
ATOM      1  C   UNL     1      19.197  -7.787  26.889  0.00  0.00    +0.000 A 
ATOM      2  C   UNL     1      20.028  -7.484  25.877  0.00  0.00    +0.000 A 
ATOM      3  C   UNL     1      21.117  -8.299  25.597  0.00  0.00    +0.000 A 
ATOM      4  C   UNL     1      21.307  -9.431  26.363  0.00  0.00    +0.000 A 
ATOM      5  C   UNL     1      20.430  -9.742  27.400  0.00  0.00    +0.000 A 
ATOM      6  C   UNL     1      19.417  -8.924  27.643  0.00  0.00    +0.000 A 
ATOM      7  O   UNL     1      18.539  -9.235  28.718  0.00  0.00    +0.000 OA
ENDROOT
BRANCH   3   8
ATOM      8  C   UNL     1      22.128  -7.938  24.522  0.00  0.00    +0.000 A 
ATOM      9  C   UNL     1      21.954  -8.474  23.226  0.00  0.00    +0.000 A 
ATOM     10  S   UNL     1      23.383  -7.977  22.450  0.00  0.00    +0.000 S 
ATOM     11  C   UNL     1      24.100  -7.151  23.762  0.00  0.00    +0.000 A 
ATOM     12  O   UNL     1      25.245  -6.511  23.821  0.00  0.00    +0.000 OA
ATOM     13  N   UNL     1      23.203  -7.291  24.758  0.00  0.00    +0.000 NA
ENDBRANCH   3   8
BRANCH   1  15
ATOM     14  C   UNL     1      16.751  -7.100  26.753  0.00  0.00    +0.000 C 
ATOM     15  C   UNL     1      18.148  -6.842  27.400  0.00  0.00    +0.000 C 
ATOM     16  C   UNL     1      18.572  -5.439  26.665  0.00  0.00    +0.000 C 
ENDBRANCH   1  15
BRANCH   5  17
ATOM     17  C   UNL     1      20.646 -11.011  28.166  0.00  0.00    +0.000 C 
ATOM     18  C   UNL     1      19.950 -12.200  27.515  0.00  0.00    +0.000 C 
ATOM     19  C   UNL     1      22.095 -11.287  28.413  0.00  0.00    +0.000 C 
ENDBRANCH   5  17
TORSDOF 3
ENDMDL
MODEL 5
REMARK VINA RESULT:      -5.5     22.858     25.855
REMARK  Name = 
REMARK  3 active torsions:
REMARK  status: ('A' for Active; 'I' for Inactive)
REMARK    1  A    between atoms: C_2  and  C_4
REMARK    2  A    between atoms: C_6  and  C_7
REMARK    3  A    between atoms: C_14  and  C_15
REMARK                            x       y       z     vdW  Elec       q    Type
REMARK                         _______ _______ _______ _____ _____    ______ ____
ROOT
ATOM      1  C   UNL     1      33.507   1.306  34.441  0.00  0.00    +0.000 A 
ATOM      2  C   UNL     1      33.711   0.993  35.732  0.00  0.00    +0.000 A 
ATOM      3  C   UNL     1      34.123   1.967  36.632  0.00  0.00    +0.000 A 
ATOM      4  C   UNL     1      34.292   3.258  36.174  0.00  0.00    +0.000 A 
ATOM      5  C   UNL     1      34.062   3.572  34.836  0.00  0.00    +0.000 A 
ATOM      6  C   UNL     1      33.690   2.606  34.010  0.00  0.00    +0.000 A 
ATOM      7  O   UNL     1      33.480   2.929  32.641  0.00  0.00    +0.000 OA
ENDROOT
BRANCH   3   8
ATOM      8  C   UNL     1      34.453   1.632  38.077  0.00  0.00    +0.000 A 
ATOM      9  C   UNL     1      34.091   2.556  39.082  0.00  0.00    +0.000 A 
ATOM     10  S   UNL     1      34.815   1.871  40.459  0.00  0.00    +0.000 S 
ATOM     11  C   UNL     1      35.516   0.503  39.714  0.00  0.00    +0.000 A 
ATOM     12  O   UNL     1      36.227  -0.465  40.244  0.00  0.00    +0.000 OA
ATOM     13  N   UNL     1      35.162   0.627  38.419  0.00  0.00    +0.000 NA
ENDBRANCH   3   8
BRANCH   1  15
ATOM     14  C   UNL     1      33.282  -1.179  33.941  0.00  0.00    +0.000 C 
ATOM     15  C   UNL     1      33.294   0.274  33.371  0.00  0.00    +0.000 C 
ATOM     16  C   UNL     1      34.740   0.288  32.597  0.00  0.00    +0.000 C 
ENDBRANCH   1  15
BRANCH   5  17
ATOM     17  C   UNL     1      34.203   4.998  34.399  0.00  0.00    +0.000 C 
ATOM     18  C   UNL     1      32.894   5.769  34.521  0.00  0.00    +0.000 C 
ATOM     19  C   UNL     1      35.323   5.700  35.100  0.00  0.00    +0.000 C 
ENDBRANCH   5  17
TORSDOF 3
ENDMDL
MODEL 6
REMARK VINA RESULT:      -5.5      4.435      6.718
REMARK  Name = 
REMARK  3 active torsions:
REMARK  status: ('A' for Active; 'I' for Inactive)
REMARK    1  A    between atoms: C_2  and  C_4
REMARK    2  A    between atoms: C_6  and  C_7
REMARK    3  A    between atoms: C_14  and  C_15
REMARK                            x       y       z     vdW  Elec       q    Type
REMARK                         _______ _______ _______ _____ _____    ______ ____
ROOT
ATOM      1  C   UNL     1      29.216  22.702  26.707  0.00  0.00    +0.000 A 
ATOM      2  C   UNL     1      30.333  22.623  27.450  0.00  0.00    +0.000 A 
ATOM      3  C   UNL     1      30.255  22.631  28.836  0.00  0.00    +0.000 A 
ATOM      4  C   UNL     1      29.008  22.698  29.425  0.00  0.00    +0.000 A 
ATOM      5  C   UNL     1      27.857  22.765  28.644  0.00  0.00    +0.000 A 
ATOM      6  C   UNL     1      27.982  22.774  27.325  0.00  0.00    +0.000 A 
ATOM      7  O   UNL     1      26.804  22.867  26.534  0.00  0.00    +0.000 OA
ENDROOT
BRANCH   3   8
ATOM      8  C   UNL     1      31.500  22.636  29.706  0.00  0.00    +0.000 A 
ATOM      9  C   UNL     1      32.212  23.848  29.856  0.00  0.00    +0.000 A 
ATOM     10  S   UNL     1      33.586  23.338  30.717  0.00  0.00    +0.000 S 
ATOM     11  C   UNL     1      33.202  21.677  30.833  0.00  0.00    +0.000 A 
ATOM     12  O   UNL     1      33.870  20.703  31.405  0.00  0.00    +0.000 OA
ATOM     13  N   UNL     1      32.017  21.578  30.197  0.00  0.00    +0.000 NA
ENDBRANCH   3   8
BRANCH   1  15
ATOM     14  C   UNL     1      30.561  22.456  24.561  0.00  0.00    +0.000 C 
ATOM     15  C   UNL     1      29.232  22.936  25.223  0.00  0.00    +0.000 C 
ATOM     16  C   UNL     1      29.418  24.563  25.141  0.00  0.00    +0.000 C 
ENDBRANCH   1  15
BRANCH   5  17
ATOM     17  C   UNL     1      26.524  22.778  29.328  0.00  0.00    +0.000 C 
ATOM     18  C   UNL     1      26.431  21.724  30.425  0.00  0.00    +0.000 C 
ATOM     19  C   UNL     1      26.160  24.137  29.837  0.00  0.00    +0.000 C 
ENDBRANCH   5  17
TORSDOF 3
ENDMDL
MODEL 7
REMARK VINA RESULT:      -5.5     31.200     33.393
REMARK  Name = 
REMARK  3 active torsions:
REMARK  status: ('A' for Active; 'I' for Inactive)
REMARK    1  A    between atoms: C_2  and  C_4
REMARK    2  A    between atoms: C_6  and  C_7
REMARK    3  A    between atoms: C_14  and  C_15
REMARK                            x       y       z     vdW  Elec       q    Type
REMARK                         _______ _______ _______ _____ _____    ______ ____
ROOT
ATOM      1  C   UNL     1      20.418  -9.750  27.448  0.00  0.00    +0.000 A 
ATOM      2  C   UNL     1      21.346  -9.472  26.517  0.00  0.00    +0.000 A 
ATOM      3  C   UNL     1      21.219  -8.346  25.715  0.00  0.00    +0.000 A 
ATOM      4  C   UNL     1      20.135  -7.515  25.915  0.00  0.00    +0.000 A 
ATOM      5  C   UNL     1      19.188  -7.806  26.894  0.00  0.00    +0.000 A 
ATOM      6  C   UNL     1      19.341  -8.903  27.622  0.00  0.00    +0.000 A 
ATOM      7  O   UNL     1      18.357  -9.207  28.603  0.00  0.00    +0.000 OA
ENDROOT
BRANCH   3   8
ATOM      8  C   UNL     1      22.198  -8.050  24.592  0.00  0.00    +0.000 A 
ATOM      9  C   UNL     1      22.007  -8.691  23.346  0.00  0.00    +0.000 A 
ATOM     10  S   UNL     1      23.406  -8.225  22.500  0.00  0.00    +0.000 S 
ATOM     11  C   UNL     1      24.133  -7.283  23.726  0.00  0.00    +0.000 A 
ATOM     12  O   UNL     1      25.264  -6.617  23.707  0.00  0.00    +0.000 OA
ATOM     13  N   UNL     1      23.261  -7.363  24.751  0.00  0.00    +0.000 NA
ENDBRANCH   3   8
BRANCH   1  15
ATOM     14  C   UNL     1      21.779 -11.654  28.448  0.00  0.00    +0.000 C 
ATOM     15  C   UNL     1      20.360 -11.058  28.184  0.00  0.00    +0.000 C 
ATOM     16  C   UNL     1      19.812 -12.076  27.020  0.00  0.00    +0.000 C 
ENDBRANCH   1  15
BRANCH   5  17
ATOM     17  C   UNL     1      18.061  -6.844  27.112  0.00  0.00    +0.000 C 
ATOM     18  C   UNL     1      18.458  -5.410  26.783  0.00  0.00    +0.000 C 
ATOM     19  C   UNL     1      16.817  -7.252  26.387  0.00  0.00    +0.000 C 
ENDBRANCH   5  17
TORSDOF 3
ENDMDL
MODEL 8
REMARK VINA RESULT:      -5.5      3.943      6.018
REMARK  Name = 
REMARK  3 active torsions:
REMARK  status: ('A' for Active; 'I' for Inactive)
REMARK    1  A    between atoms: C_2  and  C_4
REMARK    2  A    between atoms: C_6  and  C_7
REMARK    3  A    between atoms: C_14  and  C_15
REMARK                            x       y       z     vdW  Elec       q    Type
REMARK                         _______ _______ _______ _____ _____    ______ ____
ROOT
ATOM      1  C   UNL     1      24.893  25.408  27.967  0.00  0.00    +0.000 A 
ATOM      2  C   UNL     1      24.560  26.089  29.076  0.00  0.00    +0.000 A 
ATOM      3  C   UNL     1      24.982  25.646  30.323  0.00  0.00    +0.000 A 
ATOM      4  C   UNL     1      25.765  24.512  30.389  0.00  0.00    +0.000 A 
ATOM      5  C   UNL     1      26.116  23.823  29.230  0.00  0.00    +0.000 A 
ATOM      6  C   UNL     1      25.674  24.272  28.064  0.00  0.00    +0.000 A 
ATOM      7  O   UNL     1      26.016  23.550  26.888  0.00  0.00    +0.000 OA
ENDROOT
BRANCH   3   8
ATOM      8  C   UNL     1      24.548  26.337  31.604  0.00  0.00    +0.000 A 
ATOM      9  C   UNL     1      25.360  27.372  32.120  0.00  0.00    +0.000 A 
ATOM     10  S   UNL     1      24.608  27.692  33.611  0.00  0.00    +0.000 S 
ATOM     11  C   UNL     1      23.354  26.537  33.507  0.00  0.00    +0.000 A 
ATOM     12  O   UNL     1      22.391  26.270  34.359  0.00  0.00    +0.000 OA
ATOM     13  N   UNL     1      23.564  25.943  32.316  0.00  0.00    +0.000 NA
ENDBRANCH   3   8
BRANCH   1  15
ATOM     14  C   UNL     1      24.889  26.957  25.948  0.00  0.00    +0.000 C 
ATOM     15  C   UNL     1      24.287  25.684  26.621  0.00  0.00    +0.000 C 
ATOM     16  C   UNL     1      22.795  26.229  27.030  0.00  0.00    +0.000 C 
ENDBRANCH   1  15
BRANCH   5  17
ATOM     17  C   UNL     1      27.015  22.631  29.348  0.00  0.00    +0.000 C 
ATOM     18  C   UNL     1      28.471  23.027  29.557  0.00  0.00    +0.000 C 
ATOM     19  C   UNL     1      26.549  21.669  30.395  0.00  0.00    +0.000 C 
ENDBRANCH   5  17
TORSDOF 3
ENDMDL
MODEL 9
REMARK VINA RESULT:      -5.4     14.319     16.502
REMARK  Name = 
REMARK  3 active torsions:
REMARK  status: ('A' for Active; 'I' for Inactive)
REMARK    1  A    between atoms: C_2  and  C_4
REMARK    2  A    between atoms: C_6  and  C_7
REMARK    3  A    between atoms: C_14  and  C_15
REMARK                            x       y       z     vdW  Elec       q    Type
REMARK                         _______ _______ _______ _____ _____    ______ ____
ROOT
ATOM      1  C   UNL     1      11.383  21.743  20.816  0.00  0.00    +0.000 A 
ATOM      2  C   UNL     1      10.547  22.393  21.643  0.00  0.00    +0.000 A 
ATOM      3  C   UNL     1      11.008  23.452  22.414  0.00  0.00    +0.000 A 
ATOM      4  C   UNL     1      12.329  23.831  22.290  0.00  0.00    +0.000 A 
ATOM      5  C   UNL     1      13.181  23.158  21.417  0.00  0.00    +0.000 A 
ATOM      6  C   UNL     1      12.702  22.141  20.717  0.00  0.00    +0.000 A 
ATOM      7  O   UNL     1      13.584  21.444  19.846  0.00  0.00    +0.000 OA
ENDROOT
BRANCH   3   8
ATOM      8  C   UNL     1      10.116  24.149  23.427  0.00  0.00    +0.000 A 
ATOM      9  C   UNL     1      10.691  25.129  24.268  0.00  0.00    +0.000 A 
ATOM     10  S   UNL     1       9.407  25.472  25.328  0.00  0.00    +0.000 S 
ATOM     11  C   UNL     1       8.255  24.392  24.677  0.00  0.00    +0.000 A 
ATOM     12  O   UNL     1       7.016  24.169  25.048  0.00  0.00    +0.000 OA
ATOM     13  N   UNL     1       8.910  23.802  23.657  0.00  0.00    +0.000 NA
ENDBRANCH   3   8
BRANCH   1  15
ATOM     14  C   UNL     1       9.564  20.459  19.584  0.00  0.00    +0.000 C 
ATOM     15  C   UNL     1      11.024  20.453  20.135  0.00  0.00    +0.000 C 
ATOM     16  C   UNL     1      10.869  19.432  21.409  0.00  0.00    +0.000 C 
ENDBRANCH   1  15
BRANCH   5  17
ATOM     17  C   UNL     1      14.592  23.643  21.275  0.00  0.00    +0.000 C 
ATOM     18  C   UNL     1      14.722  25.130  21.579  0.00  0.00    +0.000 C 
ATOM     19  C   UNL     1      15.556  22.829  22.080  0.00  0.00    +0.000 C 
ENDBRANCH   5  17
TORSDOF 3
ENDMDL
MODEL 10
REMARK VINA RESULT:      -5.4      2.897      6.504
REMARK  Name = 
REMARK  3 active torsions:
REMARK  status: ('A' for Active; 'I' for Inactive)
REMARK    1  A    between atoms: C_2  and  C_4
REMARK    2  A    between atoms: C_6  and  C_7
REMARK    3  A    between atoms: C_14  and  C_15
REMARK                            x       y       z     vdW  Elec       q    Type
REMARK                         _______ _______ _______ _____ _____    ______ ____
ROOT
ATOM      1  C   UNL     1      29.199  22.797  26.263  0.00  0.00    +0.000 A 
ATOM      2  C   UNL     1      28.440  23.204  27.295  0.00  0.00    +0.000 A 
ATOM      3  C   UNL     1      27.202  23.788  27.066  0.00  0.00    +0.000 A 
ATOM      4  C   UNL     1      26.764  23.915  25.763  0.00  0.00    +0.000 A 
ATOM      5  C   UNL     1      27.553  23.475  24.703  0.00  0.00    +0.000 A 
ATOM      6  C   UNL     1      28.736  22.942  24.969  0.00  0.00    +0.000 A 
ATOM      7  O   UNL     1      29.547  22.517  23.880  0.00  0.00    +0.000 OA
ENDROOT
BRANCH   3   8
ATOM      8  C   UNL     1      26.359  24.344  28.201  0.00  0.00    +0.000 A 
ATOM      9  C   UNL     1      25.399  25.338  27.904  0.00  0.00    +0.000 A 
ATOM     10  S   UNL     1      24.866  25.780  29.456  0.00  0.00    +0.000 S 
ATOM     11  C   UNL     1      25.853  24.725  30.366  0.00  0.00    +0.000 A 
ATOM     12  O   UNL     1      25.924  24.559  31.666  0.00  0.00    +0.000 OA
ATOM     13  N   UNL     1      26.565  24.065  29.430  0.00  0.00    +0.000 NA
ENDBRANCH   3   8
BRANCH   1  15
ATOM     14  C   UNL     1      30.994  22.016  27.888  0.00  0.00    +0.000 C 
ATOM     15  C   UNL     1      30.633  22.379  26.414  0.00  0.00    +0.000 C 
ATOM     16  C   UNL     1      31.420  23.809  26.248  0.00  0.00    +0.000 C 
ENDBRANCH   1  15
BRANCH   5  17
ATOM     17  C   UNL     1      27.010  23.582  23.311  0.00  0.00    +0.000 C 
ATOM     18  C   UNL     1      25.545  23.167  23.232  0.00  0.00    +0.000 C 
ATOM     19  C   UNL     1      27.232  24.937  22.717  0.00  0.00    +0.000 C 
ENDBRANCH   5  17
TORSDOF 3
ENDMDL
