MODEL 1
REMARK VINA RESULT:      -6.4      0.000      0.000
REMARK  Name = 
REMARK  2 active torsions:
REMARK  status: ('A' for Active; 'I' for Inactive)
REMARK    1  A    between atoms: N_4  and  C_5
REMARK    2  A    between atoms: C_10  and  N_11
REMARK                            x       y       z     vdW  Elec       q    Type
REMARK                         _______ _______ _______ _____ _____    ______ ____
ROOT
ATOM      1  C   UNL     1      17.883  10.290  39.117  0.00  0.00    +0.000 A 
ATOM      2  C   UNL     1      16.510  10.256  39.197  0.00  0.00    +0.000 A 
ATOM      3  C   UNL     1      15.723  10.875  38.248  0.00  0.00    +0.000 A 
ATOM      4  C   UNL     1      16.294  11.548  37.188  0.00  0.00    +0.000 A 
ATOM      5  C   UNL     1      17.668  11.581  37.111  0.00  0.00    +0.000 A 
ATOM      6  C   UNL     1      18.452  10.962  38.060  0.00  0.00    +0.000 A 
ATOM      7  N   UNL     1      15.348  12.073  36.390  0.00  0.00    +0.000 NA
ATOM      8  C   UNL     1      14.159  11.733  36.943  0.00  0.00    +0.000 A 
ATOM      9  C   UNL     1      12.866  11.994  36.561  0.00  0.00    +0.000 A 
ATOM     10  C   UNL     1      11.808  11.527  37.309  0.00  0.00    +0.000 A 
ATOM     11  C   UNL     1      12.029  10.796  38.443  0.00  0.00    +0.000 A 
ATOM     12  C   UNL     1      13.325  10.516  38.854  0.00  0.00    +0.000 A 
ATOM     13  C   UNL     1      14.365  10.996  38.086  0.00  0.00    +0.000 A 
ENDROOT
BRANCH   1  17
ATOM     14  C   UNL     1      19.942   7.669  41.048  0.00  0.00    +0.000 C 
ATOM     15  C   UNL     1      19.033   8.282  40.054  0.00  0.00    +0.000 C 
ATOM     16  O   UNL     1      18.478   7.589  39.171  0.00  0.00    +0.000 OA
ATOM     17  N   UNL     1      18.750   9.676  40.056  0.00  0.00    +0.000 NA
ENDBRANCH   1  17
BRANCH   6  18
ATOM     18  N   UNL     1      19.866  11.032  37.923  0.00  0.00    +0.000 N 
ATOM     19  C   UNL     1      20.559  12.140  38.529  0.00  0.00    +0.000 C 
ATOM     20  C   UNL     1      20.603  10.035  37.203  0.00  0.00    +0.000 C 
ENDBRANCH   6  18
TORSDOF 2
ENDMDL
MODEL 2
REMARK VINA RESULT:      -6.2     21.033     24.470
REMARK  Name = 
REMARK  2 active torsions:
REMARK  status: ('A' for Active; 'I' for Inactive)
REMARK    1  A    between atoms: N_4  and  C_5
REMARK    2  A    between atoms: C_10  and  N_11
REMARK                            x       y       z     vdW  Elec       q    Type
REMARK                         _______ _______ _______ _____ _____    ______ ____
ROOT
ATOM      1  C   UNL     1      33.623  -3.902  33.692  0.00  0.00    +0.000 A 
ATOM      2  C   UNL     1      33.392  -4.241  32.379  0.00  0.00    +0.000 A 
ATOM      3  C   UNL     1      34.073  -5.280  31.779  0.00  0.00    +0.000 A 
ATOM      4  C   UNL     1      35.008  -6.011  32.483  0.00  0.00    +0.000 A 
ATOM      5  C   UNL     1      35.236  -5.669  33.797  0.00  0.00    +0.000 A 
ATOM      6  C   UNL     1      34.555  -4.631  34.394  0.00  0.00    +0.000 A 
ATOM      7  N   UNL     1      35.547  -6.969  31.709  0.00  0.00    +0.000 NA
ATOM      8  C   UNL     1      34.953  -6.852  30.497  0.00  0.00    +0.000 A 
ATOM      9  C   UNL     1      35.109  -7.559  29.331  0.00  0.00    +0.000 A 
ATOM     10  C   UNL     1      34.371  -7.237  28.213  0.00  0.00    +0.000 A 
ATOM     11  C   UNL     1      33.471  -6.209  28.249  0.00  0.00    +0.000 A 
ATOM     12  C   UNL     1      33.291  -5.476  29.413  0.00  0.00    +0.000 A 
ATOM     13  C   UNL     1      34.043  -5.820  30.517  0.00  0.00    +0.000 A 
ENDROOT
BRANCH   1  17
ATOM     14  C   UNL     1      32.496  -0.395  34.821  0.00  0.00    +0.000 C 
ATOM     15  C   UNL     1      33.205  -1.473  34.096  0.00  0.00    +0.000 C 
ATOM     16  O   UNL     1      34.052  -1.211  33.212  0.00  0.00    +0.000 OA
ATOM     17  N   UNL     1      32.958  -2.848  34.370  0.00  0.00    +0.000 NA
ENDBRANCH   1  17
BRANCH   6  18
ATOM     18  N   UNL     1      34.836  -4.328  35.755  0.00  0.00    +0.000 N 
ATOM     19  C   UNL     1      35.883  -3.382  36.044  0.00  0.00    +0.000 C 
ATOM     20  C   UNL     1      34.107  -4.939  36.829  0.00  0.00    +0.000 C 
ENDBRANCH   6  18
TORSDOF 2
ENDMDL
MODEL 3
REMARK VINA RESULT:      -6.2      1.686      3.232
REMARK  Name = 
REMARK  2 active torsions:
REMARK  status: ('A' for Active; 'I' for Inactive)
REMARK    1  A    between atoms: N_4  and  C_5
REMARK    2  A    between atoms: C_10  and  N_11
REMARK                            x       y       z     vdW  Elec       q    Type
REMARK                         _______ _______ _______ _____ _____    ______ ____
ROOT
ATOM      1  C   UNL     1      18.522  10.240  37.854  0.00  0.00    +0.000 A 
ATOM      2  C   UNL     1      17.718  10.981  37.020  0.00  0.00    +0.000 A 
ATOM      3  C   UNL     1      16.393  11.217  37.327  0.00  0.00    +0.000 A 
ATOM      4  C   UNL     1      15.837  10.714  38.484  0.00  0.00    +0.000 A 
ATOM      5  C   UNL     1      16.645   9.973  39.317  0.00  0.00    +0.000 A 
ATOM      6  C   UNL     1      17.967   9.738  39.009  0.00  0.00    +0.000 A 
ATOM      7  N   UNL     1      14.542  11.063  38.583  0.00  0.00    +0.000 NA
ATOM      8  C   UNL     1      14.265  11.796  37.479  0.00  0.00    +0.000 A 
ATOM      9  C   UNL     1      13.111  12.407  37.054  0.00  0.00    +0.000 A 
ATOM     10  C   UNL     1      13.087  13.108  35.869  0.00  0.00    +0.000 A 
ATOM     11  C   UNL     1      14.211  13.207  35.097  0.00  0.00    +0.000 A 
ATOM     12  C   UNL     1      15.392  12.600  35.501  0.00  0.00    +0.000 A 
ATOM     13  C   UNL     1      15.388  11.905  36.692  0.00  0.00    +0.000 A 
ENDROOT
BRANCH   1  17
ATOM     14  C   UNL     1      22.342  10.597  37.511  0.00  0.00    +0.000 C 
ATOM     15  C   UNL     1      20.924  10.918  37.786  0.00  0.00    +0.000 C 
ATOM     16  O   UNL     1      20.584  12.052  38.194  0.00  0.00    +0.000 OA
ATOM     17  N   UNL     1      19.889   9.960  37.599  0.00  0.00    +0.000 NA
ENDBRANCH   1  17
BRANCH   6  18
ATOM     18  N   UNL     1      18.748   8.965  39.911  0.00  0.00    +0.000 N 
ATOM     19  C   UNL     1      18.757   7.532  39.755  0.00  0.00    +0.000 C 
ATOM     20  C   UNL     1      19.515   9.576  40.958  0.00  0.00    +0.000 C 
ENDBRANCH   6  18
TORSDOF 2
ENDMDL
MODEL 4
REMARK VINA RESULT:      -6.2      2.196      3.083
REMARK  Name = 
REMARK  2 active torsions:
REMARK  status: ('A' for Active; 'I' for Inactive)
REMARK    1  A    between atoms: N_4  and  C_5
REMARK    2  A    between atoms: C_10  and  N_11
REMARK                            x       y       z     vdW  Elec       q    Type
REMARK                         _______ _______ _______ _____ _____    ______ ____
ROOT
ATOM      1  C   UNL     1      17.309   9.481  40.025  0.00  0.00    +0.000 A 
ATOM      2  C   UNL     1      16.430  10.272  39.323  0.00  0.00    +0.000 A 
ATOM      3  C   UNL     1      16.569  10.463  37.963  0.00  0.00    +0.000 A 
ATOM      4  C   UNL     1      17.598   9.863  37.268  0.00  0.00    +0.000 A 
ATOM      5  C   UNL     1      18.476   9.072  37.974  0.00  0.00    +0.000 A 
ATOM      6  C   UNL     1      18.336   8.882  39.331  0.00  0.00    +0.000 A 
ATOM      7  N   UNL     1      17.544  10.184  35.964  0.00  0.00    +0.000 NA
ATOM      8  C   UNL     1      16.471  10.997  35.820  0.00  0.00    +0.000 A 
ATOM      9  C   UNL     1      15.938  11.622  34.719  0.00  0.00    +0.000 A 
ATOM     10  C   UNL     1      14.817  12.413  34.838  0.00  0.00    +0.000 A 
ATOM     11  C   UNL     1      14.217  12.588  36.054  0.00  0.00    +0.000 A 
ATOM     12  C   UNL     1      14.732  11.970  37.185  0.00  0.00    +0.000 A 
ATOM     13  C   UNL     1      15.855  11.183  37.036  0.00  0.00    +0.000 A 
ENDROOT
BRANCH   1  17
ATOM     14  C   UNL     1      16.233   8.098  43.456  0.00  0.00    +0.000 C 
ATOM     15  C   UNL     1      16.299   8.325  41.995  0.00  0.00    +0.000 C 
ATOM     16  O   UNL     1      15.538   7.716  41.210  0.00  0.00    +0.000 OA
ATOM     17  N   UNL     1      17.224   9.242  41.420  0.00  0.00    +0.000 NA
ENDBRANCH   1  17
BRANCH   6  18
ATOM     18  N   UNL     1      19.276   8.052  40.002  0.00  0.00    +0.000 N 
ATOM     19  C   UNL     1      20.486   8.654  40.502  0.00  0.00    +0.000 C 
ATOM     20  C   UNL     1      19.045   6.649  40.187  0.00  0.00    +0.000 C 
ENDBRANCH   6  18
TORSDOF 2
ENDMDL
MODEL 5
REMARK VINA RESULT:      -6.0     20.392     23.426
REMARK  Name = 
REMARK  2 active torsions:
REMARK  status: ('A' for Active; 'I' for Inactive)
REMARK    1  A    between atoms: N_4  and  C_5
REMARK    2  A    between atoms: C_10  and  N_11
REMARK                            x       y       z     vdW  Elec       q    Type
REMARK                         _______ _______ _______ _____ _____    ______ ____
ROOT
ATOM      1  C   UNL     1      33.620  -5.587  32.002  0.00  0.00    +0.000 A 
ATOM      2  C   UNL     1      33.815  -4.257  32.294  0.00  0.00    +0.000 A 
ATOM      3  C   UNL     1      33.215  -3.671  33.390  0.00  0.00    +0.000 A 
ATOM      4  C   UNL     1      32.401  -4.405  34.226  0.00  0.00    +0.000 A 
ATOM      5  C   UNL     1      32.208  -5.736  33.931  0.00  0.00    +0.000 A 
ATOM      6  C   UNL     1      32.808  -6.320  32.837  0.00  0.00    +0.000 A 
ATOM      7  N   UNL     1      31.925  -3.640  35.223  0.00  0.00    +0.000 NA
ATOM      8  C   UNL     1      32.438  -2.402  35.025  0.00  0.00    +0.000 A 
ATOM      9  C   UNL     1      32.295  -1.230  35.727  0.00  0.00    +0.000 A 
ATOM     10  C   UNL     1      32.935  -0.084  35.311  0.00  0.00    +0.000 A 
ATOM     11  C   UNL     1      33.724  -0.095  34.194  0.00  0.00    +0.000 A 
ATOM     12  C   UNL     1      33.888  -1.264  33.465  0.00  0.00    +0.000 A 
ATOM     13  C   UNL     1      33.235  -2.397  33.904  0.00  0.00    +0.000 A 
ENDROOT
BRANCH   1  17
ATOM     14  C   UNL     1      34.325  -6.862  28.436  0.00  0.00    +0.000 C 
ATOM     15  C   UNL     1      33.692  -6.155  29.572  0.00  0.00    +0.000 C 
ATOM     16  O   UNL     1      32.675  -5.443  29.406  0.00  0.00    +0.000 OA
ATOM     17  N   UNL     1      34.206  -6.252  30.895  0.00  0.00    +0.000 NA
ENDBRANCH   1  17
BRANCH   6  18
ATOM     18  N   UNL     1      32.569  -7.700  32.587  0.00  0.00    +0.000 N 
ATOM     19  C   UNL     1      33.468  -8.666  33.164  0.00  0.00    +0.000 C 
ATOM     20  C   UNL     1      31.465  -8.140  31.783  0.00  0.00    +0.000 C 
ENDBRANCH   6  18
TORSDOF 2
ENDMDL
MODEL 6
REMARK VINA RESULT:      -5.9     18.255     20.416
REMARK  Name = 
REMARK  2 active torsions:
REMARK  status: ('A' for Active; 'I' for Inactive)
REMARK    1  A    between atoms: N_4  and  C_5
REMARK    2  A    between atoms: C_10  and  N_11
REMARK                            x       y       z     vdW  Elec       q    Type
REMARK                         _______ _______ _______ _____ _____    ______ ____
ROOT
ATOM      1  C   UNL     1      34.128  -0.727  35.161  0.00  0.00    +0.000 A 
ATOM      2  C   UNL     1      33.811   0.453  34.530  0.00  0.00    +0.000 A 
ATOM      3  C   UNL     1      33.858   1.658  35.200  0.00  0.00    +0.000 A 
ATOM      4  C   UNL     1      34.227   1.712  36.528  0.00  0.00    +0.000 A 
ATOM      5  C   UNL     1      34.543   0.529  37.157  0.00  0.00    +0.000 A 
ATOM      6  C   UNL     1      34.496  -0.673  36.486  0.00  0.00    +0.000 A 
ATOM      7  N   UNL     1      34.204   2.979  36.979  0.00  0.00    +0.000 NA
ATOM      8  C   UNL     1      33.817   3.744  35.930  0.00  0.00    +0.000 A 
ATOM      9  C   UNL     1      33.624   5.098  35.810  0.00  0.00    +0.000 A 
ATOM     10  C   UNL     1      33.221   5.643  34.610  0.00  0.00    +0.000 A 
ATOM     11  C   UNL     1      33.009   4.844  33.522  0.00  0.00    +0.000 A 
ATOM     12  C   UNL     1      33.196   3.472  33.613  0.00  0.00    +0.000 A 
ATOM     13  C   UNL     1      33.600   2.954  34.825  0.00  0.00    +0.000 A 
ENDROOT
BRANCH   1  17
ATOM     14  C   UNL     1      32.921  -4.099  33.743  0.00  0.00    +0.000 C 
ATOM     15  C   UNL     1      32.917  -2.775  34.404  0.00  0.00    +0.000 C 
ATOM     16  O   UNL     1      31.864  -2.292  34.878  0.00  0.00    +0.000 OA
ATOM     17  N   UNL     1      34.102  -1.998  34.532  0.00  0.00    +0.000 NA
ENDBRANCH   1  17
BRANCH   6  18
ATOM     18  N   UNL     1      34.836  -1.859  37.193  0.00  0.00    +0.000 N 
ATOM     19  C   UNL     1      36.196  -2.330  37.129  0.00  0.00    +0.000 C 
ATOM     20  C   UNL     1      33.863  -2.584  37.958  0.00  0.00    +0.000 C 
ENDBRANCH   6  18
TORSDOF 2
ENDMDL
MODEL 7
REMARK VINA RESULT:      -5.7     19.273     20.933
REMARK  Name = 
REMARK  2 active torsions:
REMARK  status: ('A' for Active; 'I' for Inactive)
REMARK    1  A    between atoms: N_4  and  C_5
REMARK    2  A    between atoms: C_10  and  N_11
REMARK                            x       y       z     vdW  Elec       q    Type
REMARK                         _______ _______ _______ _____ _____    ______ ____
ROOT
ATOM      1  C   UNL     1      33.728  -1.555  36.345  0.00  0.00    +0.000 A 
ATOM      2  C   UNL     1      33.831  -0.185  36.411  0.00  0.00    +0.000 A 
ATOM      3  C   UNL     1      33.696   0.598  35.283  0.00  0.00    +0.000 A 
ATOM      4  C   UNL     1      33.452   0.025  34.052  0.00  0.00    +0.000 A 
ATOM      5  C   UNL     1      33.349  -1.347  33.990  0.00  0.00    +0.000 A 
ATOM      6  C   UNL     1      33.484  -2.126  35.117  0.00  0.00    +0.000 A 
ATOM      7  N   UNL     1      33.357   0.966  33.097  0.00  0.00    +0.000 NA
ATOM      8  C   UNL     1      33.542   2.154  33.721  0.00  0.00    +0.000 A 
ATOM      9  C   UNL     1      33.550   3.443  33.247  0.00  0.00    +0.000 A 
ATOM     10  C   UNL     1      33.765   4.501  34.103  0.00  0.00    +0.000 A 
ATOM     11  C   UNL     1      33.972   4.284  35.436  0.00  0.00    +0.000 A 
ATOM     12  C   UNL     1      33.970   2.992  35.944  0.00  0.00    +0.000 A 
ATOM     13  C   UNL     1      33.752   1.952  35.065  0.00  0.00    +0.000 A 
ENDROOT
BRANCH   1  17
ATOM     14  C   UNL     1      35.213  -3.694  39.184  0.00  0.00    +0.000 C 
ATOM     15  C   UNL     1      35.112  -2.792  38.015  0.00  0.00    +0.000 C 
ATOM     16  O   UNL     1      36.137  -2.325  37.468  0.00  0.00    +0.000 OA
ATOM     17  N   UNL     1      33.855  -2.417  37.464  0.00  0.00    +0.000 NA
ENDBRANCH   1  17
BRANCH   6  18
ATOM     18  N   UNL     1      33.366  -3.538  34.985  0.00  0.00    +0.000 N 
ATOM     19  C   UNL     1      32.060  -4.131  35.114  0.00  0.00    +0.000 C 
ATOM     20  C   UNL     1      34.507  -4.368  34.730  0.00  0.00    +0.000 C 
ENDBRANCH   6  18
TORSDOF 2
ENDMDL
MODEL 8
REMARK VINA RESULT:      -5.7     22.530     23.823
REMARK  Name = 
REMARK  2 active torsions:
REMARK  status: ('A' for Active; 'I' for Inactive)
REMARK    1  A    between atoms: N_4  and  C_5
REMARK    2  A    between atoms: C_10  and  N_11
REMARK                            x       y       z     vdW  Elec       q    Type
REMARK                         _______ _______ _______ _____ _____    ______ ____
ROOT
ATOM      1  C   UNL     1      23.114  -9.193  24.823  0.00  0.00    +0.000 A 
ATOM      2  C   UNL     1      21.980  -9.131  25.599  0.00  0.00    +0.000 A 
ATOM      3  C   UNL     1      21.185  -8.003  25.616  0.00  0.00    +0.000 A 
ATOM      4  C   UNL     1      21.508  -6.902  24.852  0.00  0.00    +0.000 A 
ATOM      5  C   UNL     1      22.644  -6.966  24.076  0.00  0.00    +0.000 A 
ATOM      6  C   UNL     1      23.436  -8.093  24.060  0.00  0.00    +0.000 A 
ATOM      7  N   UNL     1      20.603  -5.922  25.019  0.00  0.00    +0.000 NA
ATOM      8  C   UNL     1      19.691  -6.399  25.900  0.00  0.00    +0.000 A 
ATOM      9  C   UNL     1      18.556  -5.840  26.434  0.00  0.00    +0.000 A 
ATOM     10  C   UNL     1      17.782  -6.546  27.328  0.00  0.00    +0.000 A 
ATOM     11  C   UNL     1      18.131  -7.816  27.696  0.00  0.00    +0.000 A 
ATOM     12  C   UNL     1      19.272  -8.408  27.173  0.00  0.00    +0.000 A 
ATOM     13  C   UNL     1      20.028  -7.678  26.280  0.00  0.00    +0.000 A 
ENDROOT
BRANCH   1  17
ATOM     14  C   UNL     1      24.573 -12.656  23.977  0.00  0.00    +0.000 C 
ATOM     15  C   UNL     1      23.655 -11.496  24.025  0.00  0.00    +0.000 C 
ATOM     16  O   UNL     1      22.560 -11.511  23.418  0.00  0.00    +0.000 OA
ATOM     17  N   UNL     1      23.974 -10.319  24.758  0.00  0.00    +0.000 NA
ENDBRANCH   1  17
BRANCH   6  18
ATOM     18  N   UNL     1      24.596  -8.097  23.237  0.00  0.00    +0.000 N 
ATOM     19  C   UNL     1      24.517  -8.729  21.945  0.00  0.00    +0.000 C 
ATOM     20  C   UNL     1      25.824  -7.491  23.664  0.00  0.00    +0.000 C 
ENDBRANCH   6  18
TORSDOF 2
ENDMDL
MODEL 9
REMARK VINA RESULT:      -5.7     18.358     20.847
REMARK  Name = 
REMARK  2 active torsions:
REMARK  status: ('A' for Active; 'I' for Inactive)
REMARK    1  A    between atoms: N_4  and  C_5
REMARK    2  A    between atoms: C_10  and  N_11
REMARK                            x       y       z     vdW  Elec       q    Type
REMARK                         _______ _______ _______ _____ _____    ______ ____
ROOT
ATOM      1  C   UNL     1      28.450  22.917  28.321  0.00  0.00    +0.000 A 
ATOM      2  C   UNL     1      28.818  23.028  27.000  0.00  0.00    +0.000 A 
ATOM      3  C   UNL     1      27.888  23.306  26.020  0.00  0.00    +0.000 A 
ATOM      4  C   UNL     1      26.558  23.481  26.339  0.00  0.00    +0.000 A 
ATOM      5  C   UNL     1      26.193  23.369  27.662  0.00  0.00    +0.000 A 
ATOM      6  C   UNL     1      27.123  23.092  28.639  0.00  0.00    +0.000 A 
ATOM      7  N   UNL     1      25.832  23.740  25.237  0.00  0.00    +0.000 NA
ATOM      8  C   UNL     1      26.705  23.731  24.201  0.00  0.00    +0.000 A 
ATOM      9  C   UNL     1      26.527  23.934  22.855  0.00  0.00    +0.000 A 
ATOM     10  C   UNL     1      27.598  23.871  21.991  0.00  0.00    +0.000 A 
ATOM     11  C   UNL     1      28.854  23.607  22.461  0.00  0.00    +0.000 A 
ATOM     12  C   UNL     1      29.065  23.397  23.817  0.00  0.00    +0.000 A 
ATOM     13  C   UNL     1      27.975  23.467  24.659  0.00  0.00    +0.000 A 
ENDROOT
BRANCH   1  17
ATOM     14  C   UNL     1      31.082  23.309  31.107  0.00  0.00    +0.000 C 
ATOM     15  C   UNL     1      30.147  23.635  30.007  0.00  0.00    +0.000 C 
ATOM     16  O   UNL     1      30.022  24.808  29.590  0.00  0.00    +0.000 OA
ATOM     17  N   UNL     1      29.354  22.635  29.377  0.00  0.00    +0.000 NA
ENDBRANCH   1  17
BRANCH   6  18
ATOM     18  N   UNL     1      26.682  22.990  29.988  0.00  0.00    +0.000 N 
ATOM     19  C   UNL     1      26.372  21.684  30.510  0.00  0.00    +0.000 C 
ATOM     20  C   UNL     1      26.542  24.147  30.823  0.00  0.00    +0.000 C 
ENDBRANCH   6  18
TORSDOF 2
ENDMDL
MODEL 10
REMARK VINA RESULT:      -5.6     18.340     20.883
REMARK  Name = 
REMARK  2 active torsions:
REMARK  status: ('A' for Active; 'I' for Inactive)
REMARK    1  A    between atoms: N_4  and  C_5
REMARK    2  A    between atoms: C_10  and  N_11
REMARK                            x       y       z     vdW  Elec       q    Type
REMARK                         _______ _______ _______ _____ _____    ______ ____
ROOT
ATOM      1  C   UNL     1      26.451  23.816  28.280  0.00  0.00    +0.000 A 
ATOM      2  C   UNL     1      26.418  24.275  26.984  0.00  0.00    +0.000 A 
ATOM      3  C   UNL     1      27.287  23.786  26.029  0.00  0.00    +0.000 A 
ATOM      4  C   UNL     1      28.216  22.820  26.351  0.00  0.00    +0.000 A 
ATOM      5  C   UNL     1      28.247  22.362  27.649  0.00  0.00    +0.000 A 
ATOM      6  C   UNL     1      27.379  22.851  28.600  0.00  0.00    +0.000 A 
ATOM      7  N   UNL     1      28.955  22.491  25.277  0.00  0.00    +0.000 NA
ATOM      8  C   UNL     1      28.496  23.255  24.256  0.00  0.00    +0.000 A 
ATOM      9  C   UNL     1      28.873  23.342  22.939  0.00  0.00    +0.000 A 
ATOM     10  C   UNL     1      28.235  24.216  22.086  0.00  0.00    +0.000 A 
ATOM     11  C   UNL     1      27.217  25.008  22.537  0.00  0.00    +0.000 A 
ATOM     12  C   UNL     1      26.814  24.942  23.864  0.00  0.00    +0.000 A 
ATOM     13  C   UNL     1      27.470  24.059  24.696  0.00  0.00    +0.000 A 
ENDROOT
BRANCH   1  17
ATOM     14  C   UNL     1      24.931  25.891  31.147  0.00  0.00    +0.000 C 
ATOM     15  C   UNL     1      25.851  25.439  30.079  0.00  0.00    +0.000 C 
ATOM     16  O   UNL     1      26.900  26.071  29.818  0.00  0.00    +0.000 OA
ATOM     17  N   UNL     1      25.588  24.273  29.308  0.00  0.00    +0.000 NA
ENDBRANCH   1  17
BRANCH   6  18
ATOM     18  N   UNL     1      27.461  22.336  29.923  0.00  0.00    +0.000 N 
ATOM     19  C   UNL     1      28.588  22.716  30.737  0.00  0.00    +0.000 C 
ATOM     20  C   UNL     1      26.458  21.459  30.454  0.00  0.00    +0.000 C 
ENDBRANCH   6  18
TORSDOF 2
ENDMDL
