MODEL 1
REMARK VINA RESULT:      -7.1      0.000      0.000
REMARK  Name = 
REMARK  7 active torsions:
REMARK  status: ('A' for Active; 'I' for Inactive)
REMARK    1  A    between atoms: C_2  and  N_3
REMARK    2  A    between atoms: C_2  and  C_27
REMARK    3  A    between atoms: C_4  and  C_6
REMARK    4  A    between atoms: C_6  and  N_7
REMARK    5  A    between atoms: C_10  and  C_11
REMARK    6  A    between atoms: N_16  and  C_17
REMARK    7  A    between atoms: C_17  and  C_18
REMARK                            x       y       z     vdW  Elec       q    Type
REMARK                         _______ _______ _______ _____ _____    ______ ____
ROOT
ATOM      1  N   UNL     1      25.906  24.491  27.081  0.00  0.00    +0.000 NA
ATOM      2  C   UNL     1      25.275  24.127  25.834  0.00  0.00    +0.000 C 
ATOM      3  C   UNL     1      25.633  25.158  24.791  0.00  0.00    +0.000 C 
ATOM      4  C   UNL     1      27.105  25.238  24.724  0.00  0.00    +0.000 C 
ATOM      5  C   UNL     1      27.706  25.682  25.984  0.00  0.00    +0.000 C 
ATOM      6  C   UNL     1      26.536  25.817  26.984  0.00  0.00    +0.000 C 
ENDROOT
BRANCH   4   7
ATOM      7  C   UNL     1      27.769  25.392  23.473  0.00  0.00    +0.000 A 
ATOM      8  N   UNL     1      27.786  26.560  22.765  0.00  0.00    +0.000 NA
ATOM      9  N   UNL     1      28.485  26.390  21.675  0.00  0.00    +0.000 NA
ATOM     10  C   UNL     1      28.942  25.120  21.635  0.00  0.00    +0.000 A 
ATOM     11  O   UNL     1      29.722  24.569  20.633  0.00  0.00    +0.000 OA
ATOM     12  N   UNL     1      28.502  24.512  22.737  0.00  0.00    +0.000 N 
BRANCH  12  13
ATOM     13  C   UNL     1      28.707  23.149  23.184  0.00  0.00    +0.000 C 
BRANCH  13  14
ATOM     14  C   UNL     1      29.782  23.193  24.243  0.00  0.00    +0.000 A 
ATOM     15  C   UNL     1      30.905  23.976  24.095  0.00  0.00    +0.000 A 
ATOM     16  C   UNL     1      31.905  24.034  25.068  0.00  0.00    +0.000 A 
ATOM     17  C   UNL     1      31.690  23.251  26.184  0.00  0.00    +0.000 A 
ATOM     18  C   UNL     1      30.587  22.460  26.365  0.00  0.00    +0.000 A 
ATOM     19  F   UNL     1      30.471  21.730  27.495  0.00  0.00    +0.000 F 
ATOM     20  C   UNL     1      29.627  22.433  25.384  0.00  0.00    +0.000 A 
ENDBRANCH  13  14
ENDBRANCH  12  13
ENDBRANCH   4   7
BRANCH   1  21
ATOM     21  C   UNL     1      26.914  23.485  27.351  0.00  0.00    +0.000 C 
BRANCH  21  23
ATOM     22  N   UNL     1      28.438  23.632  29.288  0.00  0.00    +0.000 NA
ATOM     23  C   UNL     1      27.132  23.448  28.814  0.00  0.00    +0.000 C 
ATOM     24  O   UNL     1      26.160  23.253  29.576  0.00  0.00    +0.000 OA
BRANCH  22  26
ATOM     25  C   UNL     1      29.161  25.154  30.966  0.00  0.00    +0.000 C 
ATOM     26  C   UNL     1      28.658  23.581  30.853  0.00  0.00    +0.000 C 
BRANCH  26  27
ATOM     27  C   UNL     1      30.167  23.004  30.783  0.00  0.00    +0.000 A 
ATOM     28  C   UNL     1      30.419  21.922  31.593  0.00  0.00    +0.000 A 
ATOM     29  C   UNL     1      31.686  21.388  31.574  0.00  0.00    +0.000 A 
ATOM     30  C   UNL     1      32.632  21.954  30.753  0.00  0.00    +0.000 A 
ATOM     31  C   UNL     1      32.344  23.027  29.960  0.00  0.00    +0.000 A 
ATOM     32  C   UNL     1      31.059  23.568  29.980  0.00  0.00    +0.000 A 
ENDBRANCH  26  27
ENDBRANCH  22  26
ENDBRANCH  21  23
ENDBRANCH   1  21
TORSDOF 7
ENDMDL
MODEL 2
REMARK VINA RESULT:      -7.0      2.517      4.700
REMARK  Name = 
REMARK  7 active torsions:
REMARK  status: ('A' for Active; 'I' for Inactive)
REMARK    1  A    between atoms: C_2  and  N_3
REMARK    2  A    between atoms: C_2  and  C_27
REMARK    3  A    between atoms: C_4  and  C_6
REMARK    4  A    between atoms: C_6  and  N_7
REMARK    5  A    between atoms: C_10  and  C_11
REMARK    6  A    between atoms: N_16  and  C_17
REMARK    7  A    between atoms: C_17  and  C_18
REMARK                            x       y       z     vdW  Elec       q    Type
REMARK                         _______ _______ _______ _____ _____    ______ ____
ROOT
ATOM      1  N   UNL     1      32.604  24.595  26.365  0.00  0.00    +0.000 NA
ATOM      2  C   UNL     1      31.519  25.548  26.357  0.00  0.00    +0.000 C 
ATOM      3  C   UNL     1      30.964  25.638  24.956  0.00  0.00    +0.000 C 
ATOM      4  C   UNL     1      30.578  24.277  24.536  0.00  0.00    +0.000 C 
ATOM      5  C   UNL     1      31.716  23.355  24.485  0.00  0.00    +0.000 C 
ATOM      6  C   UNL     1      32.932  24.158  24.999  0.00  0.00    +0.000 C 
ENDROOT
BRANCH   4   7
ATOM      7  C   UNL     1      29.393  24.058  23.778  0.00  0.00    +0.000 A 
ATOM      8  N   UNL     1      29.255  24.424  22.468  0.00  0.00    +0.000 NA
ATOM      9  N   UNL     1      28.067  24.077  22.050  0.00  0.00    +0.000 NA
ATOM     10  C   UNL     1      27.397  23.481  23.060  0.00  0.00    +0.000 A 
ATOM     11  O   UNL     1      26.109  22.978  22.995  0.00  0.00    +0.000 OA
ATOM     12  N   UNL     1      28.212  23.471  24.115  0.00  0.00    +0.000 N 
BRANCH  12  13
ATOM     13  C   UNL     1      27.988  22.950  25.449  0.00  0.00    +0.000 C 
BRANCH  13  14
ATOM     14  C   UNL     1      27.266  24.026  26.223  0.00  0.00    +0.000 A 
ATOM     15  C   UNL     1      27.950  25.051  26.837  0.00  0.00    +0.000 A 
ATOM     16  C   UNL     1      27.297  26.058  27.552  0.00  0.00    +0.000 A 
ATOM     17  C   UNL     1      25.922  25.952  27.600  0.00  0.00    +0.000 A 
ATOM     18  C   UNL     1      25.209  24.947  27.003  0.00  0.00    +0.000 A 
ATOM     19  F   UNL     1      23.863  24.933  27.110  0.00  0.00    +0.000 F 
ATOM     20  C   UNL     1      25.890  23.977  26.310  0.00  0.00    +0.000 A 
ENDBRANCH  13  14
ENDBRANCH  12  13
ENDBRANCH   4   7
BRANCH   1  21
ATOM     21  C   UNL     1      32.161  23.460  27.151  0.00  0.00    +0.000 C 
BRANCH  21  23
ATOM     22  N   UNL     1      30.613  23.508  29.074  0.00  0.00    +0.000 NA
ATOM     23  C   UNL     1      31.809  23.957  28.500  0.00  0.00    +0.000 C 
ATOM     24  O   UNL     1      32.576  24.756  29.081  0.00  0.00    +0.000 OA
BRANCH  22  26
ATOM     25  C   UNL     1      30.538  22.615  31.277  0.00  0.00    +0.000 C 
ATOM     26  C   UNL     1      30.244  24.054  30.511  0.00  0.00    +0.000 C 
BRANCH  26  27
ATOM     27  C   UNL     1      28.657  23.772  30.386  0.00  0.00    +0.000 A 
ATOM     28  C   UNL     1      28.315  22.656  29.659  0.00  0.00    +0.000 A 
ATOM     29  C   UNL     1      26.979  22.365  29.520  0.00  0.00    +0.000 A 
ATOM     30  C   UNL     1      26.055  23.194  30.110  0.00  0.00    +0.000 A 
ATOM     31  C   UNL     1      26.432  24.294  30.826  0.00  0.00    +0.000 A 
ATOM     32  C   UNL     1      27.787  24.588  30.966  0.00  0.00    +0.000 A 
ENDBRANCH  26  27
ENDBRANCH  22  26
ENDBRANCH  21  23
ENDBRANCH   1  21
TORSDOF 7
ENDMDL
MODEL 3
REMARK VINA RESULT:      -6.9      3.134      6.712
REMARK  Name = 
REMARK  7 active torsions:
REMARK  status: ('A' for Active; 'I' for Inactive)
REMARK    1  A    between atoms: C_2  and  N_3
REMARK    2  A    between atoms: C_2  and  C_27
REMARK    3  A    between atoms: C_4  and  C_6
REMARK    4  A    between atoms: C_6  and  N_7
REMARK    5  A    between atoms: C_10  and  C_11
REMARK    6  A    between atoms: N_16  and  C_17
REMARK    7  A    between atoms: C_17  and  C_18
REMARK                            x       y       z     vdW  Elec       q    Type
REMARK                         _______ _______ _______ _____ _____    ______ ____
ROOT
ATOM      1  N   UNL     1      28.982  22.740  29.360  0.00  0.00    +0.000 NA
ATOM      2  C   UNL     1      27.813  22.253  28.665  0.00  0.00    +0.000 C 
ATOM      3  C   UNL     1      26.582  22.792  29.351  0.00  0.00    +0.000 C 
ATOM      4  C   UNL     1      26.695  24.263  29.388  0.00  0.00    +0.000 C 
ATOM      5  C   UNL     1      27.850  24.724  30.163  0.00  0.00    +0.000 C 
ATOM      6  C   UNL     1      28.604  23.446  30.594  0.00  0.00    +0.000 C 
ENDROOT
BRANCH   4   7
ATOM      7  C   UNL     1      25.554  25.086  29.169  0.00  0.00    +0.000 A 
ATOM      8  N   UNL     1      24.975  25.851  30.143  0.00  0.00    +0.000 NA
ATOM      9  N   UNL     1      23.963  26.501  29.633  0.00  0.00    +0.000 NA
ATOM     10  C   UNL     1      23.848  26.187  28.325  0.00  0.00    +0.000 A 
ATOM     11  O   UNL     1      22.894  26.680  27.452  0.00  0.00    +0.000 OA
ATOM     12  N   UNL     1      24.823  25.321  28.045  0.00  0.00    +0.000 N 
BRANCH  12  13
ATOM     13  C   UNL     1      25.149  24.673  26.790  0.00  0.00    +0.000 C 
BRANCH  13  14
ATOM     14  C   UNL     1      25.948  25.666  25.980  0.00  0.00    +0.000 A 
ATOM     15  C   UNL     1      27.288  25.873  26.217  0.00  0.00    +0.000 A 
ATOM     16  C   UNL     1      28.043  26.782  25.472  0.00  0.00    +0.000 A 
ATOM     17  C   UNL     1      27.352  27.458  24.487  0.00  0.00    +0.000 A 
ATOM     18  C   UNL     1      26.020  27.279  24.225  0.00  0.00    +0.000 A 
ATOM     19  F   UNL     1      25.436  27.990  23.238  0.00  0.00    +0.000 F 
ATOM     20  C   UNL     1      25.315  26.375  24.980  0.00  0.00    +0.000 A 
ENDBRANCH  13  14
ENDBRANCH  12  13
ENDBRANCH   4   7
BRANCH   1  21
ATOM     21  C   UNL     1      29.657  23.652  28.458  0.00  0.00    +0.000 C 
BRANCH  21  23
ATOM     22  N   UNL     1      29.689  23.416  26.001  0.00  0.00    +0.000 NA
ATOM     23  C   UNL     1      30.041  22.889  27.249  0.00  0.00    +0.000 C 
ATOM     24  O   UNL     1      30.659  21.809  27.375  0.00  0.00    +0.000 OA
BRANCH  22  26
ATOM     25  C   UNL     1      31.421  23.520  24.374  0.00  0.00    +0.000 C 
ATOM     26  C   UNL     1      30.098  22.586  24.718  0.00  0.00    +0.000 C 
BRANCH  26  27
ATOM     27  C   UNL     1      29.142  23.394  23.694  0.00  0.00    +0.000 A 
ATOM     28  C   UNL     1      27.802  23.103  23.790  0.00  0.00    +0.000 A 
ATOM     29  C   UNL     1      26.940  23.761  22.944  0.00  0.00    +0.000 A 
ATOM     30  C   UNL     1      27.454  24.671  22.052  0.00  0.00    +0.000 A 
ATOM     31  C   UNL     1      28.792  24.935  21.986  0.00  0.00    +0.000 A 
ATOM     32  C   UNL     1      29.664  24.267  22.844  0.00  0.00    +0.000 A 
ENDBRANCH  26  27
ENDBRANCH  22  26
ENDBRANCH  21  23
ENDBRANCH   1  21
TORSDOF 7
ENDMDL
MODEL 4
REMARK VINA RESULT:      -6.8      1.527      1.978
REMARK  Name = 
REMARK  7 active torsions:
REMARK  status: ('A' for Active; 'I' for Inactive)
REMARK    1  A    between atoms: C_2  and  N_3
REMARK    2  A    between atoms: C_2  and  C_27
REMARK    3  A    between atoms: C_4  and  C_6
REMARK    4  A    between atoms: C_6  and  N_7
REMARK    5  A    between atoms: C_10  and  C_11
REMARK    6  A    between atoms: N_16  and  C_17
REMARK    7  A    between atoms: C_17  and  C_18
REMARK                            x       y       z     vdW  Elec       q    Type
REMARK                         _______ _______ _______ _____ _____    ______ ____
ROOT
ATOM      1  N   UNL     1      25.438  24.715  26.790  0.00  0.00    +0.000 NA
ATOM      2  C   UNL     1      25.881  23.544  26.070  0.00  0.00    +0.000 C 
ATOM      3  C   UNL     1      25.750  23.808  24.590  0.00  0.00    +0.000 C 
ATOM      4  C   UNL     1      26.513  25.033  24.282  0.00  0.00    +0.000 C 
ATOM      5  C   UNL     1      25.990  26.215  24.972  0.00  0.00    +0.000 C 
ATOM      6  C   UNL     1      24.846  25.703  25.875  0.00  0.00    +0.000 C 
ENDROOT
BRANCH   4   7
ATOM      7  C   UNL     1      27.276  25.133  23.084  0.00  0.00    +0.000 A 
ATOM      8  N   UNL     1      26.987  26.007  22.074  0.00  0.00    +0.000 NA
ATOM      9  N   UNL     1      27.874  25.872  21.124  0.00  0.00    +0.000 NA
ATOM     10  C   UNL     1      28.761  24.918  21.477  0.00  0.00    +0.000 A 
ATOM     11  O   UNL     1      29.845  24.498  20.726  0.00  0.00    +0.000 OA
ATOM     12  N   UNL     1      28.392  24.468  22.677  0.00  0.00    +0.000 N 
BRANCH  12  13
ATOM     13  C   UNL     1      29.000  23.447  23.507  0.00  0.00    +0.000 C 
BRANCH  13  14
ATOM     14  C   UNL     1      30.256  24.047  24.089  0.00  0.00    +0.000 A 
ATOM     15  C   UNL     1      31.363  23.274  24.361  0.00  0.00    +0.000 A 
ATOM     16  C   UNL     1      32.535  23.814  24.894  0.00  0.00    +0.000 A 
ATOM     17  C   UNL     1      32.505  25.174  25.129  0.00  0.00    +0.000 A 
ATOM     18  C   UNL     1      31.424  25.974  24.873  0.00  0.00    +0.000 A 
ATOM     19  F   UNL     1      31.496  27.295  25.139  0.00  0.00    +0.000 F 
ATOM     20  C   UNL     1      30.292  25.402  24.349  0.00  0.00    +0.000 A 
ENDBRANCH  13  14
ENDBRANCH  12  13
ENDBRANCH   4   7
BRANCH   1  21
ATOM     21  C   UNL     1      26.607  25.280  27.435  0.00  0.00    +0.000 C 
BRANCH  21  23
ATOM     22  N   UNL     1      28.173  24.121  28.951  0.00  0.00    +0.000 NA
ATOM     23  C   UNL     1      26.856  24.508  28.673  0.00  0.00    +0.000 C 
ATOM     24  O   UNL     1      25.897  24.223  29.424  0.00  0.00    +0.000 OA
BRANCH  22  26
ATOM     25  C   UNL     1      29.073  24.562  31.108  0.00  0.00    +0.000 C 
ATOM     26  C   UNL     1      28.423  23.289  30.273  0.00  0.00    +0.000 C 
BRANCH  26  27
ATOM     27  C   UNL     1      29.870  22.719  29.830  0.00  0.00    +0.000 A 
ATOM     28  C   UNL     1      30.109  22.715  28.475  0.00  0.00    +0.000 A 
ATOM     29  C   UNL     1      31.324  22.242  28.039  0.00  0.00    +0.000 A 
ATOM     30  C   UNL     1      32.235  21.800  28.969  0.00  0.00    +0.000 A 
ATOM     31  C   UNL     1      31.963  21.819  30.306  0.00  0.00    +0.000 A 
ATOM     32  C   UNL     1      30.731  22.299  30.747  0.00  0.00    +0.000 A 
ENDBRANCH  26  27
ENDBRANCH  22  26
ENDBRANCH  21  23
ENDBRANCH   1  21
TORSDOF 7
ENDMDL
MODEL 5
REMARK VINA RESULT:      -6.8      2.597      4.685
REMARK  Name = 
REMARK  7 active torsions:
REMARK  status: ('A' for Active; 'I' for Inactive)
REMARK    1  A    between atoms: C_2  and  N_3
REMARK    2  A    between atoms: C_2  and  C_27
REMARK    3  A    between atoms: C_4  and  C_6
REMARK    4  A    between atoms: C_6  and  N_7
REMARK    5  A    between atoms: C_10  and  C_11
REMARK    6  A    between atoms: N_16  and  C_17
REMARK    7  A    between atoms: C_17  and  C_18
REMARK                            x       y       z     vdW  Elec       q    Type
REMARK                         _______ _______ _______ _____ _____    ______ ____
ROOT
ATOM      1  N   UNL     1      30.999  23.902  26.896  0.00  0.00    +0.000 NA
ATOM      2  C   UNL     1      29.948  24.885  26.780  0.00  0.00    +0.000 C 
ATOM      3  C   UNL     1      29.857  25.330  25.340  0.00  0.00    +0.000 C 
ATOM      4  C   UNL     1      29.657  24.127  24.509  0.00  0.00    +0.000 C 
ATOM      5  C   UNL     1      30.776  23.185  24.595  0.00  0.00    +0.000 C 
ATOM      6  C   UNL     1      31.749  23.782  25.636  0.00  0.00    +0.000 C 
ENDROOT
BRANCH   4   7
ATOM      7  C   UNL     1      28.774  24.153  23.392  0.00  0.00    +0.000 A 
ATOM      8  N   UNL     1      29.045  24.820  22.230  0.00  0.00    +0.000 NA
ATOM      9  N   UNL     1      28.056  24.643  21.395  0.00  0.00    +0.000 NA
ATOM     10  C   UNL     1      27.118  23.865  21.976  0.00  0.00    +0.000 A 
ATOM     11  O   UNL     1      25.928  23.459  21.397  0.00  0.00    +0.000 OA
ATOM     12  N   UNL     1      27.561  23.567  23.197  0.00  0.00    +0.000 N 
BRANCH  12  13
ATOM     13  C   UNL     1      26.943  22.762  24.232  0.00  0.00    +0.000 C 
BRANCH  13  14
ATOM     14  C   UNL     1      26.192  23.712  25.134  0.00  0.00    +0.000 A 
ATOM     15  C   UNL     1      26.233  23.583  26.505  0.00  0.00    +0.000 A 
ATOM     16  C   UNL     1      25.550  24.457  27.354  0.00  0.00    +0.000 A 
ATOM     17  C   UNL     1      24.832  25.453  26.725  0.00  0.00    +0.000 A 
ATOM     18  C   UNL     1      24.768  25.610  25.366  0.00  0.00    +0.000 A 
ATOM     19  F   UNL     1      24.036  26.619  24.848  0.00  0.00    +0.000 F 
ATOM     20  C   UNL     1      25.455  24.730  24.567  0.00  0.00    +0.000 A 
ENDBRANCH  13  14
ENDBRANCH  12  13
ENDBRANCH   4   7
BRANCH   1  21
ATOM     21  C   UNL     1      30.361  22.639  27.212  0.00  0.00    +0.000 C 
BRANCH  21  23
ATOM     22  N   UNL     1      28.630  22.710  28.971  0.00  0.00    +0.000 NA
ATOM     23  C   UNL     1      29.992  22.667  28.645  0.00  0.00    +0.000 C 
ATOM     24  O   UNL     1      30.892  22.654  29.512  0.00  0.00    +0.000 OA
BRANCH  22  26
ATOM     25  C   UNL     1      26.835  21.912  30.312  0.00  0.00    +0.000 C 
ATOM     26  C   UNL     1      28.251  22.748  30.506  0.00  0.00    +0.000 C 
BRANCH  26  27
ATOM     27  C   UNL     1      27.518  24.189  30.453  0.00  0.00    +0.000 A 
ATOM     28  C   UNL     1      26.229  24.209  30.932  0.00  0.00    +0.000 A 
ATOM     29  C   UNL     1      25.556  25.408  30.912  0.00  0.00    +0.000 A 
ATOM     30  C   UNL     1      26.197  26.520  30.421  0.00  0.00    +0.000 A 
ATOM     31  C   UNL     1      27.479  26.462  29.954  0.00  0.00    +0.000 A 
ATOM     32  C   UNL     1      28.160  25.246  29.974  0.00  0.00    +0.000 A 
ENDBRANCH  26  27
ENDBRANCH  22  26
ENDBRANCH  21  23
ENDBRANCH   1  21
TORSDOF 7
ENDMDL
MODEL 6
REMARK VINA RESULT:      -6.8      2.500      6.246
REMARK  Name = 
REMARK  7 active torsions:
REMARK  status: ('A' for Active; 'I' for Inactive)
REMARK    1  A    between atoms: C_2  and  N_3
REMARK    2  A    between atoms: C_2  and  C_27
REMARK    3  A    between atoms: C_4  and  C_6
REMARK    4  A    between atoms: C_6  and  N_7
REMARK    5  A    between atoms: C_10  and  C_11
REMARK    6  A    between atoms: N_16  and  C_17
REMARK    7  A    between atoms: C_17  and  C_18
REMARK                            x       y       z     vdW  Elec       q    Type
REMARK                         _______ _______ _______ _____ _____    ______ ____
ROOT
ATOM      1  N   UNL     1      26.491  24.527  29.467  0.00  0.00    +0.000 NA
ATOM      2  C   UNL     1      27.571  25.369  29.009  0.00  0.00    +0.000 C 
ATOM      3  C   UNL     1      28.770  25.147  29.899  0.00  0.00    +0.000 C 
ATOM      4  C   UNL     1      29.079  23.704  29.887  0.00  0.00    +0.000 C 
ATOM      5  C   UNL     1      27.990  22.886  30.427  0.00  0.00    +0.000 C 
ATOM      6  C   UNL     1      26.839  23.870  30.736  0.00  0.00    +0.000 C 
ENDROOT
BRANCH   4   7
ATOM      7  C   UNL     1      30.428  23.250  29.867  0.00  0.00    +0.000 A 
ATOM      8  N   UNL     1      30.896  22.235  30.654  0.00  0.00    +0.000 NA
ATOM      9  N   UNL     1      32.162  22.042  30.396  0.00  0.00    +0.000 NA
ATOM     10  C   UNL     1      32.559  22.913  29.445  0.00  0.00    +0.000 A 
ATOM     11  O   UNL     1      33.833  23.009  28.912  0.00  0.00    +0.000 OA
ATOM     12  N   UNL     1      31.496  23.651  29.123  0.00  0.00    +0.000 N 
BRANCH  12  13
ATOM     13  C   UNL     1      31.375  24.725  28.159  0.00  0.00    +0.000 C 
BRANCH  13  14
ATOM     14  C   UNL     1      31.189  24.080  26.807  0.00  0.00    +0.000 A 
ATOM     15  C   UNL     1      32.188  24.098  25.859  0.00  0.00    +0.000 A 
ATOM     16  C   UNL     1      32.034  23.501  24.606  0.00  0.00    +0.000 A 
ATOM     17  C   UNL     1      30.814  22.895  24.385  0.00  0.00    +0.000 A 
ATOM     18  C   UNL     1      29.798  22.859  25.303  0.00  0.00    +0.000 A 
ATOM     19  F   UNL     1      28.640  22.240  24.989  0.00  0.00    +0.000 F 
ATOM     20  C   UNL     1      29.991  23.458  26.522  0.00  0.00    +0.000 A 
ENDBRANCH  13  14
ENDBRANCH  12  13
ENDBRANCH   4   7
BRANCH   1  21
ATOM     21  C   UNL     1      26.271  23.529  28.439  0.00  0.00    +0.000 C 
BRANCH  21  23
ATOM     22  N   UNL     1      26.377  24.087  26.037  0.00  0.00    +0.000 NA
ATOM     23  C   UNL     1      25.703  24.216  27.258  0.00  0.00    +0.000 C 
ATOM     24  O   UNL     1      24.654  24.886  27.382  0.00  0.00    +0.000 OA
BRANCH  22  26
ATOM     25  C   UNL     1      25.640  23.464  23.863  0.00  0.00    +0.000 C 
ATOM     26  C   UNL     1      25.763  24.834  24.785  0.00  0.00    +0.000 C 
BRANCH  26  27
ATOM     27  C   UNL     1      27.185  25.255  24.139  0.00  0.00    +0.000 A 
ATOM     28  C   UNL     1      27.946  26.108  24.903  0.00  0.00    +0.000 A 
ATOM     29  C   UNL     1      29.166  26.501  24.405  0.00  0.00    +0.000 A 
ATOM     30  C   UNL     1      29.565  26.024  23.179  0.00  0.00    +0.000 A 
ATOM     31  C   UNL     1      28.783  25.176  22.449  0.00  0.00    +0.000 A 
ATOM     32  C   UNL     1      27.546  24.780  22.955  0.00  0.00    +0.000 A 
ENDBRANCH  26  27
ENDBRANCH  22  26
ENDBRANCH  21  23
ENDBRANCH   1  21
TORSDOF 7
ENDMDL
MODEL 7
REMARK VINA RESULT:      -6.8      2.923      6.440
REMARK  Name = 
REMARK  7 active torsions:
REMARK  status: ('A' for Active; 'I' for Inactive)
REMARK    1  A    between atoms: C_2  and  N_3
REMARK    2  A    between atoms: C_2  and  C_27
REMARK    3  A    between atoms: C_4  and  C_6
REMARK    4  A    between atoms: C_6  and  N_7
REMARK    5  A    between atoms: C_10  and  C_11
REMARK    6  A    between atoms: N_16  and  C_17
REMARK    7  A    between atoms: C_17  and  C_18
REMARK                            x       y       z     vdW  Elec       q    Type
REMARK                         _______ _______ _______ _____ _____    ______ ____
ROOT
ATOM      1  N   UNL     1      24.738  28.365  27.415  0.00  0.00    +0.000 NA
ATOM      2  C   UNL     1      26.077  28.157  27.916  0.00  0.00    +0.000 C 
ATOM      3  C   UNL     1      25.995  27.364  29.198  0.00  0.00    +0.000 C 
ATOM      4  C   UNL     1      25.255  26.120  28.912  0.00  0.00    +0.000 C 
ATOM      5  C   UNL     1      23.878  26.366  28.476  0.00  0.00    +0.000 C 
ATOM      6  C   UNL     1      23.735  27.902  28.386  0.00  0.00    +0.000 C 
ENDROOT
BRANCH   4   7
ATOM      7  C   UNL     1      25.653  24.885  29.500  0.00  0.00    +0.000 A 
ATOM      8  N   UNL     1      25.600  24.635  30.843  0.00  0.00    +0.000 NA
ATOM      9  N   UNL     1      26.014  23.417  31.068  0.00  0.00    +0.000 NA
ATOM     10  C   UNL     1      26.346  22.837  29.895  0.00  0.00    +0.000 A 
ATOM     11  O   UNL     1      26.824  21.548  29.732  0.00  0.00    +0.000 OA
ATOM     12  N   UNL     1      26.124  23.738  28.938  0.00  0.00    +0.000 N 
BRANCH  12  13
ATOM     13  C   UNL     1      26.313  23.629  27.505  0.00  0.00    +0.000 C 
BRANCH  13  14
ATOM     14  C   UNL     1      27.794  23.771  27.248  0.00  0.00    +0.000 A 
ATOM     15  C   UNL     1      28.418  24.997  27.300  0.00  0.00    +0.000 A 
ATOM     16  C   UNL     1      29.788  25.145  27.071  0.00  0.00    +0.000 A 
ATOM     17  C   UNL     1      30.469  23.979  26.788  0.00  0.00    +0.000 A 
ATOM     18  C   UNL     1      29.882  22.743  26.726  0.00  0.00    +0.000 A 
ATOM     19  F   UNL     1      30.638  21.662  26.440  0.00  0.00    +0.000 F 
ATOM     20  C   UNL     1      28.533  22.643  26.958  0.00  0.00    +0.000 A 
ENDBRANCH  13  14
ENDBRANCH  12  13
ENDBRANCH   4   7
BRANCH   1  21
ATOM     21  C   UNL     1      24.626  27.601  26.188  0.00  0.00    +0.000 C 
BRANCH  21  23
ATOM     22  N   UNL     1      26.546  26.892  24.808  0.00  0.00    +0.000 NA
ATOM     23  C   UNL     1      25.786  27.944  25.336  0.00  0.00    +0.000 C 
ATOM     24  O   UNL     1      26.054  29.145  25.116  0.00  0.00    +0.000 OA
BRANCH  22  26
ATOM     25  C   UNL     1      26.917  27.328  22.500  0.00  0.00    +0.000 C 
ATOM     26  C   UNL     1      27.788  27.273  23.907  0.00  0.00    +0.000 C 
BRANCH  26  27
ATOM     27  C   UNL     1      28.275  25.751  23.657  0.00  0.00    +0.000 A 
ATOM     28  C   UNL     1      27.284  24.800  23.723  0.00  0.00    +0.000 A 
ATOM     29  C   UNL     1      27.639  23.488  23.518  0.00  0.00    +0.000 A 
ATOM     30  C   UNL     1      28.956  23.191  23.257  0.00  0.00    +0.000 A 
ATOM     31  C   UNL     1      29.913  24.162  23.197  0.00  0.00    +0.000 A 
ATOM     32  C   UNL     1      29.551  25.493  23.406  0.00  0.00    +0.000 A 
ENDBRANCH  26  27
ENDBRANCH  22  26
ENDBRANCH  21  23
ENDBRANCH   1  21
TORSDOF 7
ENDMDL
MODEL 8
REMARK VINA RESULT:      -6.7      4.458      9.492
REMARK  Name = 
REMARK  7 active torsions:
REMARK  status: ('A' for Active; 'I' for Inactive)
REMARK    1  A    between atoms: C_2  and  N_3
REMARK    2  A    between atoms: C_2  and  C_27
REMARK    3  A    between atoms: C_4  and  C_6
REMARK    4  A    between atoms: C_6  and  N_7
REMARK    5  A    between atoms: C_10  and  C_11
REMARK    6  A    between atoms: N_16  and  C_17
REMARK    7  A    between atoms: C_17  and  C_18
REMARK                            x       y       z     vdW  Elec       q    Type
REMARK                         _______ _______ _______ _____ _____    ______ ____
ROOT
ATOM      1  N   UNL     1      29.401  27.512  20.290  0.00  0.00    +0.000 NA
ATOM      2  C   UNL     1      29.591  26.110  20.000  0.00  0.00    +0.000 C 
ATOM      3  C   UNL     1      29.357  25.317  21.263  0.00  0.00    +0.000 C 
ATOM      4  C   UNL     1      28.010  25.656  21.764  0.00  0.00    +0.000 C 
ATOM      5  C   UNL     1      27.876  27.071  22.118  0.00  0.00    +0.000 C 
ATOM      6  C   UNL     1      29.220  27.730  21.734  0.00  0.00    +0.000 C 
ENDROOT
BRANCH   4   7
ATOM      7  C   UNL     1      27.170  24.652  22.324  0.00  0.00    +0.000 A 
ATOM      8  N   UNL     1      26.367  23.835  21.578  0.00  0.00    +0.000 NA
ATOM      9  N   UNL     1      25.734  23.015  22.374  0.00  0.00    +0.000 NA
ATOM     10  C   UNL     1      26.097  23.265  23.650  0.00  0.00    +0.000 A 
ATOM     11  O   UNL     1      25.637  22.597  24.771  0.00  0.00    +0.000 OA
ATOM     12  N   UNL     1      26.976  24.268  23.616  0.00  0.00    +0.000 N 
BRANCH  12  13
ATOM     13  C   UNL     1      27.674  24.920  24.705  0.00  0.00    +0.000 C 
BRANCH  13  14
ATOM     14  C   UNL     1      29.075  24.358  24.725  0.00  0.00    +0.000 A 
ATOM     15  C   UNL     1      29.303  23.001  24.744  0.00  0.00    +0.000 A 
ATOM     16  C   UNL     1      30.593  22.464  24.757  0.00  0.00    +0.000 A 
ATOM     17  C   UNL     1      31.618  23.388  24.751  0.00  0.00    +0.000 A 
ATOM     18  C   UNL     1      31.428  24.744  24.734  0.00  0.00    +0.000 A 
ATOM     19  F   UNL     1      32.500  25.565  24.730  0.00  0.00    +0.000 F 
ATOM     20  C   UNL     1      30.144  25.229  24.722  0.00  0.00    +0.000 A 
ENDBRANCH  13  14
ENDBRANCH  12  13
ENDBRANCH   4   7
BRANCH   1  21
ATOM     21  C   UNL     1      28.212  27.932  19.575  0.00  0.00    +0.000 C 
BRANCH  21  23
ATOM     22  N   UNL     1      29.249  28.410  17.387  0.00  0.00    +0.000 NA
ATOM     23  C   UNL     1      28.629  28.905  18.541  0.00  0.00    +0.000 C 
ATOM     24  O   UNL     1      28.421  30.124  18.724  0.00  0.00    +0.000 OA
BRANCH  22  26
ATOM     25  C   UNL     1      29.995  28.322  15.130  0.00  0.00    +0.000 C 
ATOM     26  C   UNL     1      29.697  29.461  16.293  0.00  0.00    +0.000 C 
BRANCH  26  27
ATOM     27  C   UNL     1      31.244  29.526  16.760  0.00  0.00    +0.000 A 
ATOM     28  C   UNL     1      31.751  30.793  16.935  0.00  0.00    +0.000 A 
ATOM     29  C   UNL     1      33.062  30.910  17.333  0.00  0.00    +0.000 A 
ATOM     30  C   UNL     1      33.797  29.767  17.537  0.00  0.00    +0.000 A 
ATOM     31  C   UNL     1      33.260  28.525  17.354  0.00  0.00    +0.000 A 
ATOM     32  C   UNL     1      31.930  28.408  16.950  0.00  0.00    +0.000 A 
ENDBRANCH  26  27
ENDBRANCH  22  26
ENDBRANCH  21  23
ENDBRANCH   1  21
TORSDOF 7
ENDMDL
MODEL 9
REMARK VINA RESULT:      -6.6      2.224      3.942
REMARK  Name = 
REMARK  7 active torsions:
REMARK  status: ('A' for Active; 'I' for Inactive)
REMARK    1  A    between atoms: C_2  and  N_3
REMARK    2  A    between atoms: C_2  and  C_27
REMARK    3  A    between atoms: C_4  and  C_6
REMARK    4  A    between atoms: C_6  and  N_7
REMARK    5  A    between atoms: C_10  and  C_11
REMARK    6  A    between atoms: N_16  and  C_17
REMARK    7  A    between atoms: C_17  and  C_18
REMARK                            x       y       z     vdW  Elec       q    Type
REMARK                         _______ _______ _______ _____ _____    ______ ____
ROOT
ATOM      1  N   UNL     1      29.810  23.542  27.994  0.00  0.00    +0.000 NA
ATOM      2  C   UNL     1      29.251  24.769  27.476  0.00  0.00    +0.000 C 
ATOM      3  C   UNL     1      29.542  24.846  25.996  0.00  0.00    +0.000 C 
ATOM      4  C   UNL     1      29.006  23.624  25.368  0.00  0.00    +0.000 C 
ATOM      5  C   UNL     1      29.646  22.403  25.864  0.00  0.00    +0.000 C 
ATOM      6  C   UNL     1      30.620  22.860  26.973  0.00  0.00    +0.000 C 
ENDROOT
BRANCH   4   7
ATOM      7  C   UNL     1      28.367  23.680  24.096  0.00  0.00    +0.000 A 
ATOM      8  N   UNL     1      28.989  24.106  22.956  0.00  0.00    +0.000 NA
ATOM      9  N   UNL     1      28.151  24.027  21.957  0.00  0.00    +0.000 NA
ATOM     10  C   UNL     1      26.969  23.553  22.405  0.00  0.00    +0.000 A 
ATOM     11  O   UNL     1      25.839  23.332  21.636  0.00  0.00    +0.000 OA
ATOM     12  N   UNL     1      27.105  23.342  23.714  0.00  0.00    +0.000 N 
BRANCH  12  13
ATOM     13  C   UNL     1      26.142  22.839  24.672  0.00  0.00    +0.000 C 
BRANCH  13  14
ATOM     14  C   UNL     1      25.647  24.028  25.461  0.00  0.00    +0.000 A 
ATOM     15  C   UNL     1      25.213  25.174  24.834  0.00  0.00    +0.000 A 
ATOM     16  C   UNL     1      24.746  26.280  25.548  0.00  0.00    +0.000 A 
ATOM     17  C   UNL     1      24.752  26.143  26.921  0.00  0.00    +0.000 A 
ATOM     18  C   UNL     1      25.176  25.019  27.578  0.00  0.00    +0.000 A 
ATOM     19  F   UNL     1      25.142  24.985  28.927  0.00  0.00    +0.000 F 
ATOM     20  C   UNL     1      25.627  23.955  26.838  0.00  0.00    +0.000 A 
ENDBRANCH  13  14
ENDBRANCH  12  13
ENDBRANCH   4   7
BRANCH   1  21
ATOM     21  C   UNL     1      28.693  22.701  28.378  0.00  0.00    +0.000 C 
BRANCH  21  23
ATOM     22  N   UNL     1      30.052  22.515  30.431  0.00  0.00    +0.000 NA
ATOM     23  C   UNL     1      28.784  22.471  29.837  0.00  0.00    +0.000 C 
ATOM     24  O   UNL     1      27.742  22.243  30.490  0.00  0.00    +0.000 OA
BRANCH  22  26
ATOM     25  C   UNL     1      30.454  23.839  32.366  0.00  0.00    +0.000 C 
ATOM     26  C   UNL     1      30.135  22.259  31.989  0.00  0.00    +0.000 C 
BRANCH  26  27
ATOM     27  C   UNL     1      31.697  21.842  31.998  0.00  0.00    +0.000 A 
ATOM     28  C   UNL     1      32.247  21.601  30.761  0.00  0.00    +0.000 A 
ATOM     29  C   UNL     1      33.573  21.243  30.707  0.00  0.00    +0.000 A 
ATOM     30  C   UNL     1      34.282  21.147  31.880  0.00  0.00    +0.000 A 
ATOM     31  C   UNL     1      33.703  21.396  33.091  0.00  0.00    +0.000 A 
ATOM     32  C   UNL     1      32.358  21.758  33.145  0.00  0.00    +0.000 A 
ENDBRANCH  26  27
ENDBRANCH  22  26
ENDBRANCH  21  23
ENDBRANCH   1  21
TORSDOF 7
ENDMDL
MODEL 10
REMARK VINA RESULT:      -6.4     18.374     21.159
REMARK  Name = 
REMARK  7 active torsions:
REMARK  status: ('A' for Active; 'I' for Inactive)
REMARK    1  A    between atoms: C_2  and  N_3
REMARK    2  A    between atoms: C_2  and  C_27
REMARK    3  A    between atoms: C_4  and  C_6
REMARK    4  A    between atoms: C_6  and  N_7
REMARK    5  A    between atoms: C_10  and  C_11
REMARK    6  A    between atoms: N_16  and  C_17
REMARK    7  A    between atoms: C_17  and  C_18
REMARK                            x       y       z     vdW  Elec       q    Type
REMARK                         _______ _______ _______ _____ _____    ______ ____
ROOT
ATOM      1  N   UNL     1      19.973   7.776  41.687  0.00  0.00    +0.000 NA
ATOM      2  C   UNL     1      19.568   7.233  40.412  0.00  0.00    +0.000 C 
ATOM      3  C   UNL     1      18.110   7.556  40.190  0.00  0.00    +0.000 C 
ATOM      4  C   UNL     1      17.949   9.018  40.305  0.00  0.00    +0.000 C 
ATOM      5  C   UNL     1      18.300   9.524  41.634  0.00  0.00    +0.000 C 
ATOM      6  C   UNL     1      18.816   8.303  42.427  0.00  0.00    +0.000 C 
ENDROOT
BRANCH   4   7
ATOM      7  C   UNL     1      17.072   9.724  39.433  0.00  0.00    +0.000 A 
ATOM      8  N   UNL     1      15.795  10.076  39.769  0.00  0.00    +0.000 NA
ATOM      9  N   UNL     1      15.254  10.724  38.772  0.00  0.00    +0.000 NA
ATOM     10  C   UNL     1      16.147  10.815  37.764  0.00  0.00    +0.000 A 
ATOM     11  O   UNL     1      15.935  11.434  36.544  0.00  0.00    +0.000 OA
ATOM     12  N   UNL     1      17.259  10.202  38.172  0.00  0.00    +0.000 N 
BRANCH  12  13
ATOM     13  C   UNL     1      18.517  10.015  37.479  0.00  0.00    +0.000 C 
BRANCH  13  14
ATOM     14  C   UNL     1      19.398  11.185  37.847  0.00  0.00    +0.000 A 
ATOM     15  C   UNL     1      18.906  12.471  37.883  0.00  0.00    +0.000 A 
ATOM     16  C   UNL     1      19.705  13.563  38.227  0.00  0.00    +0.000 A 
ATOM     17  C   UNL     1      21.018  13.264  38.527  0.00  0.00    +0.000 A 
ATOM     18  C   UNL     1      21.542  11.999  38.501  0.00  0.00    +0.000 A 
ATOM     19  F   UNL     1      22.842  11.811  38.812  0.00  0.00    +0.000 F 
ATOM     20  C   UNL     1      20.721  10.953  38.157  0.00  0.00    +0.000 A 
ENDBRANCH  13  14
ENDBRANCH  12  13
ENDBRANCH   4   7
BRANCH   1  21
ATOM     21  C   UNL     1      20.909   8.847  41.410  0.00  0.00    +0.000 C 
BRANCH  21  23
ATOM     22  N   UNL     1      22.934   8.821  39.997  0.00  0.00    +0.000 NA
ATOM     23  C   UNL     1      22.202   8.231  41.035  0.00  0.00    +0.000 C 
ATOM     24  O   UNL     1      22.597   7.213  41.645  0.00  0.00    +0.000 OA
BRANCH  22  26
ATOM     25  C   UNL     1      25.233   9.227  40.449  0.00  0.00    +0.000 C 
ATOM     26  C   UNL     1      24.308   8.146  39.601  0.00  0.00    +0.000 C 
BRANCH  26  27
ATOM     27  C   UNL     1      24.482   8.947  38.207  0.00  0.00    +0.000 A 
ATOM     28  C   UNL     1      25.668   9.629  38.066  0.00  0.00    +0.000 A 
ATOM     29  C   UNL     1      25.872  10.327  36.900  0.00  0.00    +0.000 A 
ATOM     30  C   UNL     1      24.892  10.310  35.937  0.00  0.00    +0.000 A 
ATOM     31  C   UNL     1      23.727   9.620  36.111  0.00  0.00    +0.000 A 
ATOM     32  C   UNL     1      23.521   8.913  37.294  0.00  0.00    +0.000 A 
ENDBRANCH  26  27
ENDBRANCH  22  26
ENDBRANCH  21  23
ENDBRANCH   1  21
TORSDOF 7
ENDMDL
