MODEL 1
REMARK VINA RESULT:      -8.8      0.000      0.000
REMARK  Name = 
REMARK  6 active torsions:
REMARK  status: ('A' for Active; 'I' for Inactive)
REMARK    1  A    between atoms: C_5  and  C_6
REMARK    2  A    between atoms: C_11  and  C_13
REMARK    3  A    between atoms: C_17  and  O_18
REMARK    4  A    between atoms: O_18  and  C_19
REMARK    5  A    between atoms: C_19  and  C_20
REMARK    6  A    between atoms: C_20  and  C_21
REMARK                            x       y       z     vdW  Elec       q    Type
REMARK                         _______ _______ _______ _____ _____    ______ ____
ROOT
ATOM      1  C   UNL     1      38.797   5.570  17.276  0.00  0.00    +0.000 A 
ATOM      2  C   UNL     1      38.363   6.063  16.066  0.00  0.00    +0.000 A 
ATOM      3  S   UNL     1      37.401   4.777  15.485  0.00  0.00    +0.000 S 
ATOM      4  C   UNL     1      37.607   3.710  16.795  0.00  0.00    +0.000 A 
ATOM      5  N   UNL     1      37.099   2.386  17.058  0.00  0.00    +0.000 NA
ATOM      6  C   UNL     1      36.250   1.762  16.096  0.00  0.00    +0.000 C 
ATOM      7  O   UNL     1      35.989   2.407  15.060  0.00  0.00    +0.000 OA
ATOM      8  N   UNL     1      38.394   4.382  17.606  0.00  0.00    +0.000 NA
ENDROOT
BRANCH   1  13
ATOM      9  C   UNL     1      42.097   8.881  20.649  0.00  0.00    +0.000 C 
ATOM     10  C   UNL     1      41.237   8.018  19.770  0.00  0.00    +0.000 A 
ATOM     11  C   UNL     1      41.781   7.016  18.999  0.00  0.00    +0.000 A 
ATOM     12  C   UNL     1      41.028   6.202  18.179  0.00  0.00    +0.000 A 
ATOM     13  C   UNL     1      39.687   6.398  18.130  0.00  0.00    +0.000 A 
ATOM     14  C   UNL     1      39.133   7.397  18.896  0.00  0.00    +0.000 A 
ATOM     15  C   UNL     1      37.759   7.615  18.863  0.00  0.00    +0.000 A 
ATOM     16  C   UNL     1      37.174   8.606  19.618  0.00  0.00    +0.000 A 
ATOM     17  C   UNL     1      37.921   9.425  20.440  0.00  0.00    +0.000 A 
ATOM     18  C   UNL     1      39.277   9.222  20.485  0.00  0.00    +0.000 A 
ATOM     19  C   UNL     1      39.874   8.216  19.719  0.00  0.00    +0.000 A 
ENDBRANCH   1  13
BRANCH   6  20
ATOM     20  C   UNL     1      35.699   0.434  16.285  0.00  0.00    +0.000 A 
ATOM     21  C   UNL     1      34.732   0.174  17.230  0.00  0.00    +0.000 A 
ATOM     22  C   UNL     1      34.220  -1.101  17.393  0.00  0.00    +0.000 A 
ATOM     23  C   UNL     1      34.664  -2.132  16.618  0.00  0.00    +0.000 A 
ATOM     24  C   UNL     1      35.627  -1.914  15.666  0.00  0.00    +0.000 A 
ATOM     25  C   UNL     1      36.134  -0.620  15.513  0.00  0.00    +0.000 A 
BRANCH  24  26
ATOM     26  O   UNL     1      36.065  -2.957  14.894  0.00  0.00    +0.000 OA
BRANCH  26  27
ATOM     27  C   UNL     1      37.407  -3.356  14.937  0.00  0.00    +0.000 C 
BRANCH  27  28
ATOM     28  C   UNL     1      37.799  -3.964  16.250  0.00  0.00    +0.000 C 
BRANCH  28  29
ATOM     29  C   UNL     1      38.950  -3.194  16.868  0.00  0.00    +0.000 C 
ATOM     30  C   UNL     1      38.360  -2.402  18.028  0.00  0.00    +0.000 C 
ATOM     31  C   UNL     1      39.513  -2.211  15.874  0.00  0.00    +0.000 C 
ENDBRANCH  28  29
ENDBRANCH  27  28
ENDBRANCH  26  27
ENDBRANCH  24  26
ENDBRANCH   6  20
TORSDOF 6
ENDMDL
MODEL 2
REMARK VINA RESULT:      -8.8      2.367      9.699
REMARK  Name = 
REMARK  6 active torsions:
REMARK  status: ('A' for Active; 'I' for Inactive)
REMARK    1  A    between atoms: C_5  and  C_6
REMARK    2  A    between atoms: C_11  and  C_13
REMARK    3  A    between atoms: C_17  and  O_18
REMARK    4  A    between atoms: O_18  and  C_19
REMARK    5  A    between atoms: C_19  and  C_20
REMARK    6  A    between atoms: C_20  and  C_21
REMARK                            x       y       z     vdW  Elec       q    Type
REMARK                         _______ _______ _______ _____ _____    ______ ____
ROOT
ATOM      1  C   UNL     1      37.081   1.372  14.881  0.00  0.00    +0.000 A 
ATOM      2  C   UNL     1      36.717   2.204  13.846  0.00  0.00    +0.000 A 
ATOM      3  S   UNL     1      37.064   3.745  14.494  0.00  0.00    +0.000 S 
ATOM      4  C   UNL     1      37.642   3.245  16.015  0.00  0.00    +0.000 A 
ATOM      5  N   UNL     1      38.139   3.977  17.154  0.00  0.00    +0.000 NA
ATOM      6  C   UNL     1      38.197   5.401  17.094  0.00  0.00    +0.000 C 
ATOM      7  O   UNL     1      37.809   5.946  16.041  0.00  0.00    +0.000 OA
ATOM      8  N   UNL     1      37.542   1.935  15.954  0.00  0.00    +0.000 NA
ENDROOT
BRANCH   1  13
ATOM      9  C   UNL     1      36.379  -4.332  14.426  0.00  0.00    +0.000 C 
ATOM     10  C   UNL     1      36.562  -2.845  14.544  0.00  0.00    +0.000 A 
ATOM     11  C   UNL     1      37.467  -2.171  13.757  0.00  0.00    +0.000 A 
ATOM     12  C   UNL     1      37.666  -0.808  13.833  0.00  0.00    +0.000 A 
ATOM     13  C   UNL     1      36.934  -0.098  14.728  0.00  0.00    +0.000 A 
ATOM     14  C   UNL     1      36.027  -0.762  15.521  0.00  0.00    +0.000 A 
ATOM     15  C   UNL     1      35.265  -0.055  16.445  0.00  0.00    +0.000 A 
ATOM     16  C   UNL     1      34.349  -0.689  17.252  0.00  0.00    +0.000 A 
ATOM     17  C   UNL     1      34.145  -2.052  17.181  0.00  0.00    +0.000 A 
ATOM     18  C   UNL     1      34.888  -2.765  16.274  0.00  0.00    +0.000 A 
ATOM     19  C   UNL     1      35.820  -2.123  15.453  0.00  0.00    +0.000 A 
ENDBRANCH   1  13
BRANCH   6  20
ATOM     20  C   UNL     1      38.684   6.209  18.196  0.00  0.00    +0.000 A 
ATOM     21  C   UNL     1      38.049   7.367  18.587  0.00  0.00    +0.000 A 
ATOM     22  C   UNL     1      38.531   8.122  19.641  0.00  0.00    +0.000 A 
ATOM     23  C   UNL     1      39.649   7.734  20.320  0.00  0.00    +0.000 A 
ATOM     24  C   UNL     1      40.310   6.587  19.961  0.00  0.00    +0.000 A 
ATOM     25  C   UNL     1      39.811   5.834  18.894  0.00  0.00    +0.000 A 
BRANCH  24  26
ATOM     26  O   UNL     1      41.431   6.208  20.649  0.00  0.00    +0.000 OA
BRANCH  26  27
ATOM     27  C   UNL     1      42.529   7.073  20.749  0.00  0.00    +0.000 C 
BRANCH  27  28
ATOM     28  C   UNL     1      43.709   6.623  19.941  0.00  0.00    +0.000 C 
BRANCH  28  29
ATOM     29  C   UNL     1      43.827   7.448  18.673  0.00  0.00    +0.000 C 
ATOM     30  C   UNL     1      43.139   8.776  18.961  0.00  0.00    +0.000 C 
ATOM     31  C   UNL     1      43.088   6.778  17.545  0.00  0.00    +0.000 C 
ENDBRANCH  28  29
ENDBRANCH  27  28
ENDBRANCH  26  27
ENDBRANCH  24  26
ENDBRANCH   6  20
TORSDOF 6
ENDMDL
MODEL 3
REMARK VINA RESULT:      -8.5      2.342     10.005
REMARK  Name = 
REMARK  6 active torsions:
REMARK  status: ('A' for Active; 'I' for Inactive)
REMARK    1  A    between atoms: C_5  and  C_6
REMARK    2  A    between atoms: C_11  and  C_13
REMARK    3  A    between atoms: C_17  and  O_18
REMARK    4  A    between atoms: O_18  and  C_19
REMARK    5  A    between atoms: C_19  and  C_20
REMARK    6  A    between atoms: C_20  and  C_21
REMARK                            x       y       z     vdW  Elec       q    Type
REMARK                         _______ _______ _______ _____ _____    ______ ____
ROOT
ATOM      1  C   UNL     1      36.369   1.072  15.576  0.00  0.00    +0.000 A 
ATOM      2  C   UNL     1      36.120   1.792  14.429  0.00  0.00    +0.000 A 
ATOM      3  S   UNL     1      36.671   3.349  14.864  0.00  0.00    +0.000 S 
ATOM      4  C   UNL     1      37.175   2.993  16.451  0.00  0.00    +0.000 A 
ATOM      5  N   UNL     1      37.764   3.805  17.487  0.00  0.00    +0.000 NA
ATOM      6  C   UNL     1      38.014   5.186  17.232  0.00  0.00    +0.000 C 
ATOM      7  O   UNL     1      37.703   5.626  16.106  0.00  0.00    +0.000 OA
ATOM      8  N   UNL     1      36.900   1.713  16.570  0.00  0.00    +0.000 NA
ENDROOT
BRANCH   1  13
ATOM      9  C   UNL     1      35.172  -4.567  15.636  0.00  0.00    +0.000 C 
ATOM     10  C   UNL     1      35.484  -3.097  15.620  0.00  0.00    +0.000 A 
ATOM     11  C   UNL     1      34.791  -2.210  16.412  0.00  0.00    +0.000 A 
ATOM     12  C   UNL     1      35.045  -0.855  16.429  0.00  0.00    +0.000 A 
ATOM     13  C   UNL     1      36.025  -0.373  15.625  0.00  0.00    +0.000 A 
ATOM     14  C   UNL     1      36.724  -1.250  14.829  0.00  0.00    +0.000 A 
ATOM     15  C   UNL     1      37.734  -0.778  13.997  0.00  0.00    +0.000 A 
ATOM     16  C   UNL     1      38.452  -1.629  13.189  0.00  0.00    +0.000 A 
ATOM     17  C   UNL     1      38.203  -2.986  13.167  0.00  0.00    +0.000 A 
ATOM     18  C   UNL     1      37.210  -3.469  13.982  0.00  0.00    +0.000 A 
ATOM     19  C   UNL     1      36.479  -2.606  14.804  0.00  0.00    +0.000 A 
ENDBRANCH   1  13
BRANCH   6  20
ATOM     20  C   UNL     1      38.603   6.068  18.221  0.00  0.00    +0.000 A 
ATOM     21  C   UNL     1      38.054   7.294  18.525  0.00  0.00    +0.000 A 
ATOM     22  C   UNL     1      38.633   8.119  19.472  0.00  0.00    +0.000 A 
ATOM     23  C   UNL     1      39.766   7.735  20.129  0.00  0.00    +0.000 A 
ATOM     24  C   UNL     1      40.344   6.522  19.854  0.00  0.00    +0.000 A 
ATOM     25  C   UNL     1      39.747   5.699  18.894  0.00  0.00    +0.000 A 
BRANCH  24  26
ATOM     26  O   UNL     1      41.481   6.148  20.519  0.00  0.00    +0.000 OA
BRANCH  26  27
ATOM     27  C   UNL     1      42.594   6.999  20.557  0.00  0.00    +0.000 C 
BRANCH  27  28
ATOM     28  C   UNL     1      43.723   6.531  19.688  0.00  0.00    +0.000 C 
BRANCH  28  29
ATOM     29  C   UNL     1      43.804   7.370  18.427  0.00  0.00    +0.000 C 
ATOM     30  C   UNL     1      43.119   8.692  18.749  0.00  0.00    +0.000 C 
ATOM     31  C   UNL     1      43.036   6.710  17.312  0.00  0.00    +0.000 C 
ENDBRANCH  28  29
ENDBRANCH  27  28
ENDBRANCH  26  27
ENDBRANCH  24  26
ENDBRANCH   6  20
TORSDOF 6
ENDMDL
MODEL 4
REMARK VINA RESULT:      -8.4      1.774      2.574
REMARK  Name = 
REMARK  6 active torsions:
REMARK  status: ('A' for Active; 'I' for Inactive)
REMARK    1  A    between atoms: C_5  and  C_6
REMARK    2  A    between atoms: C_11  and  C_13
REMARK    3  A    between atoms: C_17  and  O_18
REMARK    4  A    between atoms: O_18  and  C_19
REMARK    5  A    between atoms: C_19  and  C_20
REMARK    6  A    between atoms: C_20  and  C_21
REMARK                            x       y       z     vdW  Elec       q    Type
REMARK                         _______ _______ _______ _____ _____    ______ ____
ROOT
ATOM      1  C   UNL     1      39.111   5.009  15.801  0.00  0.00    +0.000 A 
ATOM      2  C   UNL     1      38.109   5.708  15.166  0.00  0.00    +0.000 A 
ATOM      3  S   UNL     1      36.858   4.547  15.098  0.00  0.00    +0.000 S 
ATOM      4  C   UNL     1      37.673   3.267  15.869  0.00  0.00    +0.000 A 
ATOM      5  N   UNL     1      37.275   1.920  16.196  0.00  0.00    +0.000 NA
ATOM      6  C   UNL     1      35.965   1.477  15.850  0.00  0.00    +0.000 C 
ATOM      7  O   UNL     1      35.219   2.294  15.271  0.00  0.00    +0.000 OA
ATOM      8  N   UNL     1      38.852   3.784  16.138  0.00  0.00    +0.000 NA
ENDROOT
BRANCH   1  13
ATOM      9  C   UNL     1      44.121   7.592  17.012  0.00  0.00    +0.000 C 
ATOM     10  C   UNL     1      42.815   6.918  16.696  0.00  0.00    +0.000 A 
ATOM     11  C   UNL     1      42.500   6.536  15.413  0.00  0.00    +0.000 A 
ATOM     12  C   UNL     1      41.314   5.915  15.080  0.00  0.00    +0.000 A 
ATOM     13  C   UNL     1      40.414   5.671  16.065  0.00  0.00    +0.000 A 
ATOM     14  C   UNL     1      40.719   6.050  17.352  0.00  0.00    +0.000 A 
ATOM     15  C   UNL     1      39.812   5.809  18.379  0.00  0.00    +0.000 A 
ATOM     16  C   UNL     1      40.087   6.175  19.677  0.00  0.00    +0.000 A 
ATOM     17  C   UNL     1      41.272   6.796  20.017  0.00  0.00    +0.000 A 
ATOM     18  C   UNL     1      42.177   7.041  19.016  0.00  0.00    +0.000 A 
ATOM     19  C   UNL     1      41.901   6.670  17.697  0.00  0.00    +0.000 A 
ENDBRANCH   1  13
BRANCH   6  20
ATOM     20  C   UNL     1      35.489   0.140  16.144  0.00  0.00    +0.000 A 
ATOM     21  C   UNL     1      34.567  -0.105  17.137  0.00  0.00    +0.000 A 
ATOM     22  C   UNL     1      34.127  -1.390  17.401  0.00  0.00    +0.000 A 
ATOM     23  C   UNL     1      34.598  -2.447  16.679  0.00  0.00    +0.000 A 
ATOM     24  C   UNL     1      35.518  -2.246  15.681  0.00  0.00    +0.000 A 
ATOM     25  C   UNL     1      35.953  -0.941  15.427  0.00  0.00    +0.000 A 
BRANCH  24  26
ATOM     26  O   UNL     1      35.985  -3.314  14.964  0.00  0.00    +0.000 OA
BRANCH  26  27
ATOM     27  C   UNL     1      37.363  -3.518  14.810  0.00  0.00    +0.000 C 
BRANCH  27  28
ATOM     28  C   UNL     1      37.832  -3.329  13.399  0.00  0.00    +0.000 C 
BRANCH  28  29
ATOM     29  C   UNL     1      38.858  -2.214  13.328  0.00  0.00    +0.000 C 
ATOM     30  C   UNL     1      39.711  -2.495  12.097  0.00  0.00    +0.000 C 
ATOM     31  C   UNL     1      39.758  -2.256  14.535  0.00  0.00    +0.000 C 
ENDBRANCH  28  29
ENDBRANCH  27  28
ENDBRANCH  26  27
ENDBRANCH  24  26
ENDBRANCH   6  20
TORSDOF 6
ENDMDL
MODEL 5
REMARK VINA RESULT:      -8.3      2.405     10.272
REMARK  Name = 
REMARK  6 active torsions:
REMARK  status: ('A' for Active; 'I' for Inactive)
REMARK    1  A    between atoms: C_5  and  C_6
REMARK    2  A    between atoms: C_11  and  C_13
REMARK    3  A    between atoms: C_17  and  O_18
REMARK    4  A    between atoms: O_18  and  C_19
REMARK    5  A    between atoms: C_19  and  C_20
REMARK    6  A    between atoms: C_20  and  C_21
REMARK                            x       y       z     vdW  Elec       q    Type
REMARK                         _______ _______ _______ _____ _____    ______ ____
ROOT
ATOM      1  C   UNL     1      37.167   1.603  14.927  0.00  0.00    +0.000 A 
ATOM      2  C   UNL     1      36.811   2.456  13.906  0.00  0.00    +0.000 A 
ATOM      3  S   UNL     1      37.141   3.984  14.593  0.00  0.00    +0.000 S 
ATOM      4  C   UNL     1      37.702   3.453  16.110  0.00  0.00    +0.000 A 
ATOM      5  N   UNL     1      38.181   4.162  17.271  0.00  0.00    +0.000 NA
ATOM      6  C   UNL     1      38.232   5.587  17.244  0.00  0.00    +0.000 C 
ATOM      7  O   UNL     1      37.853   6.154  16.198  0.00  0.00    +0.000 OA
ATOM      8  N   UNL     1      37.611   2.144  16.018  0.00  0.00    +0.000 NA
ENDROOT
BRANCH   1  13
ATOM      9  C   UNL     1      36.507  -4.093  14.337  0.00  0.00    +0.000 C 
ATOM     10  C   UNL     1      36.679  -2.608  14.491  0.00  0.00    +0.000 A 
ATOM     11  C   UNL     1      37.573  -1.908  13.714  0.00  0.00    +0.000 A 
ATOM     12  C   UNL     1      37.762  -0.546  13.822  0.00  0.00    +0.000 A 
ATOM     13  C   UNL     1      37.031   0.136  14.739  0.00  0.00    +0.000 A 
ATOM     14  C   UNL     1      36.134  -0.554  15.521  0.00  0.00    +0.000 A 
ATOM     15  C   UNL     1      35.373   0.124  16.467  0.00  0.00    +0.000 A 
ATOM     16  C   UNL     1      34.467  -0.537  17.265  0.00  0.00    +0.000 A 
ATOM     17  C   UNL     1      34.273  -1.899  17.163  0.00  0.00    +0.000 A 
ATOM     18  C   UNL     1      35.016  -2.584  16.233  0.00  0.00    +0.000 A 
ATOM     19  C   UNL     1      35.937  -1.915  15.422  0.00  0.00    +0.000 A 
ENDBRANCH   1  13
BRANCH   6  20
ATOM     20  C   UNL     1      38.699   6.373  18.369  0.00  0.00    +0.000 A 
ATOM     21  C   UNL     1      39.864   6.067  19.039  0.00  0.00    +0.000 A 
ATOM     22  C   UNL     1      40.290   6.831  20.111  0.00  0.00    +0.000 A 
ATOM     23  C   UNL     1      39.565   7.909  20.529  0.00  0.00    +0.000 A 
ATOM     24  C   UNL     1      38.399   8.246  19.888  0.00  0.00    +0.000 A 
ATOM     25  C   UNL     1      37.981   7.464  18.807  0.00  0.00    +0.000 A 
BRANCH  24  26
ATOM     26  O   UNL     1      37.680   9.329  20.317  0.00  0.00    +0.000 OA
BRANCH  26  27
ATOM     27  C   UNL     1      38.241  10.612  20.282  0.00  0.00    +0.000 C 
BRANCH  27  28
ATOM     28  C   UNL     1      38.492  11.108  18.890  0.00  0.00    +0.000 C 
BRANCH  28  29
ATOM     29  C   UNL     1      39.957  11.460  18.709  0.00  0.00    +0.000 C 
ATOM     30  C   UNL     1      40.561  10.351  17.858  0.00  0.00    +0.000 C 
ATOM     31  C   UNL     1      40.661  11.458  20.041  0.00  0.00    +0.000 C 
ENDBRANCH  28  29
ENDBRANCH  27  28
ENDBRANCH  26  27
ENDBRANCH  24  26
ENDBRANCH   6  20
TORSDOF 6
ENDMDL
MODEL 6
REMARK VINA RESULT:      -8.2     24.192     26.992
REMARK  Name = 
REMARK  6 active torsions:
REMARK  status: ('A' for Active; 'I' for Inactive)
REMARK    1  A    between atoms: C_5  and  C_6
REMARK    2  A    between atoms: C_11  and  C_13
REMARK    3  A    between atoms: C_17  and  O_18
REMARK    4  A    between atoms: O_18  and  C_19
REMARK    5  A    between atoms: C_19  and  C_20
REMARK    6  A    between atoms: C_20  and  C_21
REMARK                            x       y       z     vdW  Elec       q    Type
REMARK                         _______ _______ _______ _____ _____    ______ ____
ROOT
ATOM      1  C   UNL     1      26.446  16.165  37.042  0.00  0.00    +0.000 A 
ATOM      2  C   UNL     1      27.788  16.354  37.282  0.00  0.00    +0.000 A 
ATOM      3  S   UNL     1      28.053  15.337  38.628  0.00  0.00    +0.000 S 
ATOM      4  C   UNL     1      26.466  14.745  38.800  0.00  0.00    +0.000 A 
ATOM      5  N   UNL     1      25.872  13.819  39.732  0.00  0.00    +0.000 NA
ATOM      6  C   UNL     1      26.687  13.230  40.744  0.00  0.00    +0.000 C 
ATOM      7  O   UNL     1      27.892  13.553  40.768  0.00  0.00    +0.000 OA
ATOM      8  N   UNL     1      25.817  15.348  37.829  0.00  0.00    +0.000 NA
ENDROOT
BRANCH   1  13
ATOM      9  C   UNL     1      23.918  18.814  32.590  0.00  0.00    +0.000 C 
ATOM     10  C   UNL     1      24.576  18.124  33.751  0.00  0.00    +0.000 A 
ATOM     11  C   UNL     1      24.792  18.777  34.943  0.00  0.00    +0.000 A 
ATOM     12  C   UNL     1      25.392  18.181  36.032  0.00  0.00    +0.000 A 
ATOM     13  C   UNL     1      25.790  16.889  35.923  0.00  0.00    +0.000 A 
ATOM     14  C   UNL     1      25.580  16.226  34.735  0.00  0.00    +0.000 A 
ATOM     15  C   UNL     1      25.979  14.901  34.601  0.00  0.00    +0.000 A 
ATOM     16  C   UNL     1      25.783  14.210  33.426  0.00  0.00    +0.000 A 
ATOM     17  C   UNL     1      25.184  14.800  32.332  0.00  0.00    +0.000 A 
ATOM     18  C   UNL     1      24.783  16.108  32.449  0.00  0.00    +0.000 A 
ATOM     19  C   UNL     1      24.981  16.811  33.641  0.00  0.00    +0.000 A 
ENDBRANCH   1  13
BRANCH   6  20
ATOM     20  C   UNL     1      26.165  12.291  41.718  0.00  0.00    +0.000 A 
ATOM     21  C   UNL     1      25.271  12.673  42.693  0.00  0.00    +0.000 A 
ATOM     22  C   UNL     1      24.787  11.759  43.613  0.00  0.00    +0.000 A 
ATOM     23  C   UNL     1      25.184  10.455  43.572  0.00  0.00    +0.000 A 
ATOM     24  C   UNL     1      26.074  10.034  42.616  0.00  0.00    +0.000 A 
ATOM     25  C   UNL     1      26.555  10.970  41.694  0.00  0.00    +0.000 A 
BRANCH  24  26
ATOM     26  O   UNL     1      26.467   8.723  42.585  0.00  0.00    +0.000 OA
BRANCH  26  27
ATOM     27  C   UNL     1      27.548   8.325  41.788  0.00  0.00    +0.000 C 
BRANCH  27  28
ATOM     28  C   UNL     1      28.751   7.921  42.587  0.00  0.00    +0.000 C 
BRANCH  28  29
ATOM     29  C   UNL     1      29.967   8.716  42.151  0.00  0.00    +0.000 C 
ATOM     30  C   UNL     1      29.993   9.968  43.019  0.00  0.00    +0.000 C 
ATOM     31  C   UNL     1      29.820   9.150  40.716  0.00  0.00    +0.000 C 
ENDBRANCH  28  29
ENDBRANCH  27  28
ENDBRANCH  26  27
ENDBRANCH  24  26
ENDBRANCH   6  20
TORSDOF 6
ENDMDL
MODEL 7
REMARK VINA RESULT:      -7.8      6.718      9.739
REMARK  Name = 
REMARK  6 active torsions:
REMARK  status: ('A' for Active; 'I' for Inactive)
REMARK    1  A    between atoms: C_5  and  C_6
REMARK    2  A    between atoms: C_11  and  C_13
REMARK    3  A    between atoms: C_17  and  O_18
REMARK    4  A    between atoms: O_18  and  C_19
REMARK    5  A    between atoms: C_19  and  C_20
REMARK    6  A    between atoms: C_20  and  C_21
REMARK                            x       y       z     vdW  Elec       q    Type
REMARK                         _______ _______ _______ _____ _____    ______ ____
ROOT
ATOM      1  C   UNL     1      37.294   1.442   8.768  0.00  0.00    +0.000 A 
ATOM      2  C   UNL     1      38.651   1.558   8.971  0.00  0.00    +0.000 A 
ATOM      3  S   UNL     1      38.772   1.366  10.663  0.00  0.00    +0.000 S 
ATOM      4  C   UNL     1      37.118   1.154  11.003  0.00  0.00    +0.000 A 
ATOM      5  N   UNL     1      36.400   0.931  12.233  0.00  0.00    +0.000 NA
ATOM      6  C   UNL     1      37.126   0.857  13.459  0.00  0.00    +0.000 C 
ATOM      7  O   UNL     1      38.365   0.993  13.399  0.00  0.00    +0.000 OA
ATOM      8  N   UNL     1      36.558   1.239   9.816  0.00  0.00    +0.000 NA
ENDROOT
BRANCH   1  13
ATOM      9  C   UNL     1      35.102   2.046   3.471  0.00  0.00    +0.000 C 
ATOM     10  C   UNL     1      35.674   1.888   4.852  0.00  0.00    +0.000 A 
ATOM     11  C   UNL     1      36.293   0.723   5.240  0.00  0.00    +0.000 A 
ATOM     12  C   UNL     1      36.831   0.537   6.496  0.00  0.00    +0.000 A 
ATOM     13  C   UNL     1      36.744   1.552   7.392  0.00  0.00    +0.000 A 
ATOM     14  C   UNL     1      36.127   2.721   7.014  0.00  0.00    +0.000 A 
ATOM     15  C   UNL     1      36.027   3.776   7.916  0.00  0.00    +0.000 A 
ATOM     16  C   UNL     1      35.415   4.959   7.569  0.00  0.00    +0.000 A 
ATOM     17  C   UNL     1      34.875   5.152   6.314  0.00  0.00    +0.000 A 
ATOM     18  C   UNL     1      34.966   4.121   5.412  0.00  0.00    +0.000 A 
ATOM     19  C   UNL     1      35.586   2.919   5.762  0.00  0.00    +0.000 A 
ENDBRANCH   1  13
BRANCH   6  20
ATOM     20  C   UNL     1      36.479   0.636  14.738  0.00  0.00    +0.000 A 
ATOM     21  C   UNL     1      35.578   1.535  15.265  0.00  0.00    +0.000 A 
ATOM     22  C   UNL     1      34.973   1.303  16.487  0.00  0.00    +0.000 A 
ATOM     23  C   UNL     1      35.255   0.174  17.199  0.00  0.00    +0.000 A 
ATOM     24  C   UNL     1      36.147  -0.746  16.708  0.00  0.00    +0.000 A 
ATOM     25  C   UNL     1      36.750  -0.497  15.472  0.00  0.00    +0.000 A 
BRANCH  24  26
ATOM     26  O   UNL     1      36.422  -1.876  17.432  0.00  0.00    +0.000 OA
BRANCH  26  27
ATOM     27  C   UNL     1      35.902  -3.115  17.037  0.00  0.00    +0.000 C 
BRANCH  27  28
ATOM     28  C   UNL     1      36.903  -3.972  16.321  0.00  0.00    +0.000 C 
BRANCH  28  29
ATOM     29  C   UNL     1      36.398  -4.329  14.935  0.00  0.00    +0.000 C 
ATOM     30  C   UNL     1      37.259  -3.546  13.952  0.00  0.00    +0.000 C 
ATOM     31  C   UNL     1      34.972  -3.875  14.767  0.00  0.00    +0.000 C 
ENDBRANCH  28  29
ENDBRANCH  27  28
ENDBRANCH  26  27
ENDBRANCH  24  26
ENDBRANCH   6  20
TORSDOF 6
ENDMDL
MODEL 8
REMARK VINA RESULT:      -7.7      0.973      2.302
REMARK  Name = 
REMARK  6 active torsions:
REMARK  status: ('A' for Active; 'I' for Inactive)
REMARK    1  A    between atoms: C_5  and  C_6
REMARK    2  A    between atoms: C_11  and  C_13
REMARK    3  A    between atoms: C_17  and  O_18
REMARK    4  A    between atoms: O_18  and  C_19
REMARK    5  A    between atoms: C_19  and  C_20
REMARK    6  A    between atoms: C_20  and  C_21
REMARK                            x       y       z     vdW  Elec       q    Type
REMARK                         _______ _______ _______ _____ _____    ______ ____
ROOT
ATOM      1  C   UNL     1      38.434   5.843  17.228  0.00  0.00    +0.000 A 
ATOM      2  C   UNL     1      38.190   6.178  15.915  0.00  0.00    +0.000 A 
ATOM      3  S   UNL     1      37.419   4.772  15.329  0.00  0.00    +0.000 S 
ATOM      4  C   UNL     1      37.455   3.859  16.766  0.00  0.00    +0.000 A 
ATOM      5  N   UNL     1      36.986   2.534  17.086  0.00  0.00    +0.000 NA
ATOM      6  C   UNL     1      36.355   1.755  16.072  0.00  0.00    +0.000 C 
ATOM      7  O   UNL     1      36.241   2.271  14.941  0.00  0.00    +0.000 OA
ATOM      8  N   UNL     1      38.049   4.668  17.616  0.00  0.00    +0.000 NA
ENDROOT
BRANCH   1  13
ATOM      9  C   UNL     1      41.234   9.579  20.609  0.00  0.00    +0.000 C 
ATOM     10  C   UNL     1      40.504   8.605  19.728  0.00  0.00    +0.000 A 
ATOM     11  C   UNL     1      39.146   8.415  19.843  0.00  0.00    +0.000 A 
ATOM     12  C   UNL     1      38.438   7.533  19.055  0.00  0.00    +0.000 A 
ATOM     13  C   UNL     1      39.113   6.817  18.121  0.00  0.00    +0.000 A 
ATOM     14  C   UNL     1      40.471   6.999  17.997  0.00  0.00    +0.000 A 
ATOM     15  C   UNL     1      41.184   6.276  17.046  0.00  0.00    +0.000 A 
ATOM     16  C   UNL     1      42.543   6.435  16.897  0.00  0.00    +0.000 A 
ATOM     17  C   UNL     1      43.258   7.316  17.683  0.00  0.00    +0.000 A 
ATOM     18  C   UNL     1      42.569   8.037  18.626  0.00  0.00    +0.000 A 
ATOM     19  C   UNL     1      41.189   7.878  18.779  0.00  0.00    +0.000 A 
ENDBRANCH   1  13
BRANCH   6  20
ATOM     20  C   UNL     1      35.856   0.415  16.313  0.00  0.00    +0.000 A 
ATOM     21  C   UNL     1      35.169   0.088  17.461  0.00  0.00    +0.000 A 
ATOM     22  C   UNL     1      34.702  -1.198  17.670  0.00  0.00    +0.000 A 
ATOM     23  C   UNL     1      34.913  -2.173  16.740  0.00  0.00    +0.000 A 
ATOM     24  C   UNL     1      35.593  -1.888  15.583  0.00  0.00    +0.000 A 
ATOM     25  C   UNL     1      36.059  -0.584  15.387  0.00  0.00    +0.000 A 
BRANCH  24  26
ATOM     26  O   UNL     1      35.799  -2.875  14.657  0.00  0.00    +0.000 OA
BRANCH  26  27
ATOM     27  C   UNL     1      37.091  -3.152  14.190  0.00  0.00    +0.000 C 
BRANCH  27  28
ATOM     28  C   UNL     1      38.098  -3.290  15.292  0.00  0.00    +0.000 C 
BRANCH  28  29
ATOM     29  C   UNL     1      39.436  -2.718  14.861  0.00  0.00    +0.000 C 
ATOM     30  C   UNL     1      39.551  -1.352  15.525  0.00  0.00    +0.000 C 
ATOM     31  C   UNL     1      39.458  -2.512  13.370  0.00  0.00    +0.000 C 
ENDBRANCH  28  29
ENDBRANCH  27  28
ENDBRANCH  26  27
ENDBRANCH  24  26
ENDBRANCH   6  20
TORSDOF 6
ENDMDL
MODEL 9
REMARK VINA RESULT:      -7.6      7.291     11.267
REMARK  Name = 
REMARK  6 active torsions:
REMARK  status: ('A' for Active; 'I' for Inactive)
REMARK    1  A    between atoms: C_5  and  C_6
REMARK    2  A    between atoms: C_11  and  C_13
REMARK    3  A    between atoms: C_17  and  O_18
REMARK    4  A    between atoms: O_18  and  C_19
REMARK    5  A    between atoms: C_19  and  C_20
REMARK    6  A    between atoms: C_20  and  C_21
REMARK                            x       y       z     vdW  Elec       q    Type
REMARK                         _______ _______ _______ _____ _____    ______ ____
ROOT
ATOM      1  C   UNL     1      43.614   7.237  20.459  0.00  0.00    +0.000 A 
ATOM      2  C   UNL     1      44.014   8.493  20.857  0.00  0.00    +0.000 A 
ATOM      3  S   UNL     1      44.270   8.268  22.530  0.00  0.00    +0.000 S 
ATOM      4  C   UNL     1      43.860   6.618  22.618  0.00  0.00    +0.000 A 
ATOM      5  N   UNL     1      43.825   5.683  23.716  0.00  0.00    +0.000 NA
ATOM      6  C   UNL     1      44.186   6.129  25.022  0.00  0.00    +0.000 C 
ATOM      7  O   UNL     1      44.519   7.326  25.146  0.00  0.00    +0.000 OA
ATOM      8  N   UNL     1      43.550   6.322  21.375  0.00  0.00    +0.000 NA
ENDROOT
BRANCH   1  13
ATOM      9  C   UNL     1      42.143   6.238  14.975  0.00  0.00    +0.000 C 
ATOM     10  C   UNL     1      42.526   6.499  16.405  0.00  0.00    +0.000 A 
ATOM     11  C   UNL     1      43.809   6.861  16.746  0.00  0.00    +0.000 A 
ATOM     12  C   UNL     1      44.203   7.110  18.044  0.00  0.00    +0.000 A 
ATOM     13  C   UNL     1      43.281   6.990  19.032  0.00  0.00    +0.000 A 
ATOM     14  C   UNL     1      41.996   6.628  18.702  0.00  0.00    +0.000 A 
ATOM     15  C   UNL     1      41.034   6.500  19.699  0.00  0.00    +0.000 A 
ATOM     16  C   UNL     1      39.739   6.139  19.402  0.00  0.00    +0.000 A 
ATOM     17  C   UNL     1      39.338   5.889  18.105  0.00  0.00    +0.000 A 
ATOM     18  C   UNL     1      40.275   6.011  17.110  0.00  0.00    +0.000 A 
ATOM     19  C   UNL     1      41.591   6.377  17.409  0.00  0.00    +0.000 A 
ENDBRANCH   1  13
BRANCH   6  20
ATOM     20  C   UNL     1      44.177   5.252  26.177  0.00  0.00    +0.000 A 
ATOM     21  C   UNL     1      45.316   4.618  26.620  0.00  0.00    +0.000 A 
ATOM     22  C   UNL     1      45.283   3.786  27.725  0.00  0.00    +0.000 A 
ATOM     23  C   UNL     1      44.118   3.575  28.402  0.00  0.00    +0.000 A 
ATOM     24  C   UNL     1      42.961   4.188  27.992  0.00  0.00    +0.000 A 
ATOM     25  C   UNL     1      43.010   5.026  26.873  0.00  0.00    +0.000 A 
BRANCH  24  26
ATOM     26  O   UNL     1      41.798   3.969  28.679  0.00  0.00    +0.000 OA
BRANCH  26  27
ATOM     27  C   UNL     1      41.763   4.097  30.074  0.00  0.00    +0.000 C 
BRANCH  27  28
ATOM     28  C   UNL     1      40.876   5.213  30.540  0.00  0.00    +0.000 C 
BRANCH  28  29
ATOM     29  C   UNL     1      40.005   5.709  29.401  0.00  0.00    +0.000 C 
ATOM     30  C   UNL     1      40.591   7.047  28.967  0.00  0.00    +0.000 C 
ATOM     31  C   UNL     1      38.601   5.953  29.887  0.00  0.00    +0.000 C 
ENDBRANCH  28  29
ENDBRANCH  27  28
ENDBRANCH  26  27
ENDBRANCH  24  26
ENDBRANCH   6  20
TORSDOF 6
ENDMDL
MODEL 10
REMARK VINA RESULT:      -7.5      5.685      8.308
REMARK  Name = 
REMARK  6 active torsions:
REMARK  status: ('A' for Active; 'I' for Inactive)
REMARK    1  A    between atoms: C_5  and  C_6
REMARK    2  A    between atoms: C_11  and  C_13
REMARK    3  A    between atoms: C_17  and  O_18
REMARK    4  A    between atoms: O_18  and  C_19
REMARK    5  A    between atoms: C_19  and  C_20
REMARK    6  A    between atoms: C_20  and  C_21
REMARK                            x       y       z     vdW  Elec       q    Type
REMARK                         _______ _______ _______ _____ _____    ______ ____
ROOT
ATOM      1  C   UNL     1      38.722   5.385  16.867  0.00  0.00    +0.000 A 
ATOM      2  C   UNL     1      38.243   4.097  16.963  0.00  0.00    +0.000 A 
ATOM      3  S   UNL     1      37.179   4.016  15.630  0.00  0.00    +0.000 S 
ATOM      4  C   UNL     1      37.405   5.598  15.043  0.00  0.00    +0.000 A 
ATOM      5  N   UNL     1      36.842   6.305  13.920  0.00  0.00    +0.000 NA
ATOM      6  C   UNL     1      35.904   5.640  13.076  0.00  0.00    +0.000 C 
ATOM      7  O   UNL     1      35.616   4.459  13.360  0.00  0.00    +0.000 OA
ATOM      8  N   UNL     1      38.275   6.107  15.887  0.00  0.00    +0.000 NA
ENDROOT
BRANCH   1  13
ATOM      9  C   UNL     1      42.664   7.322  20.600  0.00  0.00    +0.000 C 
ATOM     10  C   UNL     1      41.636   6.817  19.627  0.00  0.00    +0.000 A 
ATOM     11  C   UNL     1      40.368   6.477  20.039  0.00  0.00    +0.000 A 
ATOM     12  C   UNL     1      39.396   6.010  19.179  0.00  0.00    +0.000 A 
ATOM     13  C   UNL     1      39.704   5.880  17.865  0.00  0.00    +0.000 A 
ATOM     14  C   UNL     1      40.969   6.217  17.443  0.00  0.00    +0.000 A 
ATOM     15  C   UNL     1      41.308   6.092  16.099  0.00  0.00    +0.000 A 
ATOM     16  C   UNL     1      42.565   6.421  15.645  0.00  0.00    +0.000 A 
ATOM     17  C   UNL     1      43.543   6.889  16.499  0.00  0.00    +0.000 A 
ATOM     18  C   UNL     1      43.225   7.018  17.828  0.00  0.00    +0.000 A 
ATOM     19  C   UNL     1      41.949   6.684  18.292  0.00  0.00    +0.000 A 
ENDBRANCH   1  13
BRANCH   6  20
ATOM     20  C   UNL     1      35.293   6.281  11.928  0.00  0.00    +0.000 A 
ATOM     21  C   UNL     1      34.215   7.129  12.054  0.00  0.00    +0.000 A 
ATOM     22  C   UNL     1      33.648   7.730  10.944  0.00  0.00    +0.000 A 
ATOM     23  C   UNL     1      34.148   7.497   9.697  0.00  0.00    +0.000 A 
ATOM     24  C   UNL     1      35.221   6.659   9.529  0.00  0.00    +0.000 A 
ATOM     25  C   UNL     1      35.782   6.058  10.660  0.00  0.00    +0.000 A 
BRANCH  24  26
ATOM     26  O   UNL     1      35.713   6.432   8.271  0.00  0.00    +0.000 OA
BRANCH  26  27
ATOM     27  C   UNL     1      34.841   6.189   7.202  0.00  0.00    +0.000 C 
BRANCH  27  28
ATOM     28  C   UNL     1      35.005   7.165   6.075  0.00  0.00    +0.000 C 
BRANCH  28  29
ATOM     29  C   UNL     1      33.670   7.791   5.719  0.00  0.00    +0.000 C 
ATOM     30  C   UNL     1      33.672   9.183   6.339  0.00  0.00    +0.000 C 
ATOM     31  C   UNL     1      32.545   7.008   6.341  0.00  0.00    +0.000 C 
ENDBRANCH  28  29
ENDBRANCH  27  28
ENDBRANCH  26  27
ENDBRANCH  24  26
ENDBRANCH   6  20
TORSDOF 6
ENDMDL
