MODEL 1
REMARK VINA RESULT:      -7.5      0.000      0.000
REMARK  Name = 
REMARK  8 active torsions:
REMARK  status: ('A' for Active; 'I' for Inactive)
REMARK    1  A    between atoms: C_2  and  C_5
REMARK    2  A    between atoms: C_8  and  C_9
REMARK    3  A    between atoms: C_9  and  N_10
REMARK    4  A    between atoms: N_13  and  C_14
REMARK    5  A    between atoms: C_14  and  C_15
REMARK    6  A    between atoms: C_15  and  C_17
REMARK    7  A    between atoms: C_17  and  O_18
REMARK    8  A    between atoms: O_18  and  C_19
REMARK                            x       y       z     vdW  Elec       q    Type
REMARK                         _______ _______ _______ _____ _____    ______ ____
ROOT
ATOM      1  N   UNL     1      37.456   3.251  15.066  0.00  0.00    +0.000 N 
ATOM      2  C   UNL     1      38.367   2.642  14.267  0.00  0.00    +0.000 A 
ATOM      3  N   UNL     1      39.354   3.334  13.458  0.00  0.00    +0.000 NA
ATOM      4  N   UNL     1      38.183   1.330  14.360  0.00  0.00    +0.000 N 
ATOM      5  C   UNL     1      37.158   1.112  15.209  0.00  0.00    +0.000 A 
ATOM      6  C   UNL     1      36.536  -0.049  15.675  0.00  0.00    +0.000 A 
ATOM      7  C   UNL     1      35.494  -0.027  16.553  0.00  0.00    +0.000 A 
ATOM      8  C   UNL     1      35.035   1.180  16.989  0.00  0.00    +0.000 A 
ATOM      9  C   UNL     1      35.617   2.352  16.557  0.00  0.00    +0.000 A 
ATOM     10  C   UNL     1      36.698   2.300  15.659  0.00  0.00    +0.000 A 
ENDROOT
BRANCH   1  11
ATOM     11  C   UNL     1      37.353   4.680  15.223  0.00  0.00    +0.000 C 
BRANCH  11  15
ATOM     12  C   UNL     1      40.282   6.240  17.973  0.00  0.00    +0.000 A 
ATOM     13  C   UNL     1      39.266   5.427  18.414  0.00  0.00    +0.000 A 
ATOM     14  C   UNL     1      38.323   4.901  17.551  0.00  0.00    +0.000 A 
ATOM     15  C   UNL     1      38.348   5.164  16.205  0.00  0.00    +0.000 A 
ATOM     16  C   UNL     1      39.387   5.992  15.747  0.00  0.00    +0.000 A 
ATOM     17  C   UNL     1      40.298   6.497  16.621  0.00  0.00    +0.000 A 
BRANCH  12  19
ATOM     18  C   UNL     1      40.934   8.285  19.116  0.00  0.00    +0.000 C 
ATOM     19  C   UNL     1      41.308   6.828  18.902  0.00  0.00    +0.000 C 
ATOM     20  C   UNL     1      41.206   6.091  20.254  0.00  0.00    +0.000 C 
ATOM     21  C   UNL     1      42.654   6.608  18.269  0.00  0.00    +0.000 C 
ENDBRANCH  12  19
ENDBRANCH  11  15
ENDBRANCH   1  11
BRANCH   4  22
ATOM     22  C   UNL     1      38.949   0.294  13.768  0.00  0.00    +0.000 C 
BRANCH  22  23
ATOM     23  C   UNL     1      40.269  -0.027  14.671  0.00  0.00    +0.000 C 
ATOM     24  O   UNL     1      41.317   0.464  13.671  0.00  0.00    +0.000 OA
BRANCH  23  25
ATOM     25  C   UNL     1      40.387  -1.604  14.088  0.00  0.00    +0.000 C 
BRANCH  25  26
ATOM     26  O   UNL     1      40.293  -2.342  15.244  0.00  0.00    +0.000 OA
BRANCH  26  27
ATOM     27  C   UNL     1      39.125  -2.762  15.800  0.00  0.00    +0.000 A 
ATOM     28  C   UNL     1      38.796  -2.725  17.133  0.00  0.00    +0.000 A 
ATOM     29  C   UNL     1      37.564  -3.182  17.605  0.00  0.00    +0.000 A 
ATOM     30  C   UNL     1      36.652  -3.687  16.727  0.00  0.00    +0.000 A 
ATOM     31  C   UNL     1      36.935  -3.750  15.369  0.00  0.00    +0.000 A 
ATOM     32  C   UNL     1      38.171  -3.284  14.940  0.00  0.00    +0.000 A 
ENDBRANCH  26  27
ENDBRANCH  25  26
ENDBRANCH  23  25
ENDBRANCH  22  23
ENDBRANCH   4  22
TORSDOF 8
ENDMDL
MODEL 2
REMARK VINA RESULT:      -7.5      1.845      3.141
REMARK  Name = 
REMARK  8 active torsions:
REMARK  status: ('A' for Active; 'I' for Inactive)
REMARK    1  A    between atoms: C_2  and  C_5
REMARK    2  A    between atoms: C_8  and  C_9
REMARK    3  A    between atoms: C_9  and  N_10
REMARK    4  A    between atoms: N_13  and  C_14
REMARK    5  A    between atoms: C_14  and  C_15
REMARK    6  A    between atoms: C_15  and  C_17
REMARK    7  A    between atoms: C_17  and  O_18
REMARK    8  A    between atoms: O_18  and  C_19
REMARK                            x       y       z     vdW  Elec       q    Type
REMARK                         _______ _______ _______ _____ _____    ______ ____
ROOT
ATOM      1  N   UNL     1      37.899   2.946  14.935  0.00  0.00    +0.000 N 
ATOM      2  C   UNL     1      36.674   2.544  15.356  0.00  0.00    +0.000 A 
ATOM      3  N   UNL     1      35.561   3.434  15.634  0.00  0.00    +0.000 NA
ATOM      4  N   UNL     1      36.691   1.221  15.467  0.00  0.00    +0.000 N 
ATOM      5  C   UNL     1      37.922   0.790  15.124  0.00  0.00    +0.000 A 
ATOM      6  C   UNL     1      38.503  -0.479  15.057  0.00  0.00    +0.000 A 
ATOM      7  C   UNL     1      39.795  -0.680  14.671  0.00  0.00    +0.000 A 
ATOM      8  C   UNL     1      40.553   0.404  14.346  0.00  0.00    +0.000 A 
ATOM      9  C   UNL     1      40.023   1.675  14.397  0.00  0.00    +0.000 A 
ATOM     10  C   UNL     1      38.683   1.853  14.788  0.00  0.00    +0.000 A 
ENDROOT
BRANCH   1  11
ATOM     11  C   UNL     1      38.257   4.321  14.700  0.00  0.00    +0.000 C 
BRANCH  11  15
ATOM     12  C   UNL     1      39.884   6.251  18.194  0.00  0.00    +0.000 A 
ATOM     13  C   UNL     1      38.961   5.240  18.314  0.00  0.00    +0.000 A 
ATOM     14  C   UNL     1      38.435   4.595  17.211  0.00  0.00    +0.000 A 
ATOM     15  C   UNL     1      38.805   4.929  15.933  0.00  0.00    +0.000 A 
ATOM     16  C   UNL     1      39.751   5.960  15.804  0.00  0.00    +0.000 A 
ATOM     17  C   UNL     1      40.248   6.578  16.908  0.00  0.00    +0.000 A 
BRANCH  12  19
ATOM     18  C   UNL     1      41.153   8.214  18.863  0.00  0.00    +0.000 C 
ATOM     19  C   UNL     1      40.456   6.969  19.385  0.00  0.00    +0.000 C 
ATOM     20  C   UNL     1      39.283   7.406  20.287  0.00  0.00    +0.000 C 
ATOM     21  C   UNL     1      41.352   5.995  20.099  0.00  0.00    +0.000 C 
ENDBRANCH  12  19
ENDBRANCH  11  15
ENDBRANCH   1  11
BRANCH   4  22
ATOM     22  C   UNL     1      35.617   0.356  15.798  0.00  0.00    +0.000 C 
BRANCH  22  23
ATOM     23  C   UNL     1      35.168   0.572  17.352  0.00  0.00    +0.000 C 
ATOM     24  O   UNL     1      36.572   0.603  17.960  0.00  0.00    +0.000 OA
BRANCH  23  25
ATOM     25  C   UNL     1      35.037  -1.085  17.631  0.00  0.00    +0.000 C 
BRANCH  25  26
ATOM     26  O   UNL     1      36.355  -1.460  17.743  0.00  0.00    +0.000 OA
BRANCH  26  27
ATOM     27  C   UNL     1      36.828  -2.708  17.480  0.00  0.00    +0.000 A 
ATOM     28  C   UNL     1      38.011  -3.243  17.930  0.00  0.00    +0.000 A 
ATOM     29  C   UNL     1      38.408  -4.541  17.603  0.00  0.00    +0.000 A 
ATOM     30  C   UNL     1      37.609  -5.309  16.809  0.00  0.00    +0.000 A 
ATOM     31  C   UNL     1      36.406  -4.816  16.324  0.00  0.00    +0.000 A 
ATOM     32  C   UNL     1      36.047  -3.520  16.674  0.00  0.00    +0.000 A 
ENDBRANCH  26  27
ENDBRANCH  25  26
ENDBRANCH  23  25
ENDBRANCH  22  23
ENDBRANCH   4  22
TORSDOF 8
ENDMDL
MODEL 3
REMARK VINA RESULT:      -7.1      2.951      8.275
REMARK  Name = 
REMARK  8 active torsions:
REMARK  status: ('A' for Active; 'I' for Inactive)
REMARK    1  A    between atoms: C_2  and  C_5
REMARK    2  A    between atoms: C_8  and  C_9
REMARK    3  A    between atoms: C_9  and  N_10
REMARK    4  A    between atoms: N_13  and  C_14
REMARK    5  A    between atoms: C_14  and  C_15
REMARK    6  A    between atoms: C_15  and  C_17
REMARK    7  A    between atoms: C_17  and  O_18
REMARK    8  A    between atoms: O_18  and  C_19
REMARK                            x       y       z     vdW  Elec       q    Type
REMARK                         _______ _______ _______ _____ _____    ______ ____
ROOT
ATOM      1  N   UNL     1      38.742  -1.433  15.275  0.00  0.00    +0.000 N 
ATOM      2  C   UNL     1      38.280  -0.160  15.207  0.00  0.00    +0.000 A 
ATOM      3  N   UNL     1      39.101   1.005  14.927  0.00  0.00    +0.000 NA
ATOM      4  N   UNL     1      36.975  -0.184  15.445  0.00  0.00    +0.000 N 
ATOM      5  C   UNL     1      36.614  -1.464  15.667  0.00  0.00    +0.000 A 
ATOM      6  C   UNL     1      35.392  -2.072  15.963  0.00  0.00    +0.000 A 
ATOM      7  C   UNL     1      35.262  -3.417  16.150  0.00  0.00    +0.000 A 
ATOM      8  C   UNL     1      36.375  -4.198  16.051  0.00  0.00    +0.000 A 
ATOM      9  C   UNL     1      37.601  -3.641  15.760  0.00  0.00    +0.000 A 
ATOM     10  C   UNL     1      37.705  -2.253  15.562  0.00  0.00    +0.000 A 
ENDROOT
BRANCH   1  11
ATOM     11  C   UNL     1      40.120  -1.800  15.070  0.00  0.00    +0.000 C 
BRANCH  11  15
ATOM     12  C   UNL     1      41.097  -2.387  10.913  0.00  0.00    +0.000 A 
ATOM     13  C   UNL     1      39.840  -2.674  11.388  0.00  0.00    +0.000 A 
ATOM     14  C   UNL     1      39.497  -2.482  12.712  0.00  0.00    +0.000 A 
ATOM     15  C   UNL     1      40.393  -1.992  13.628  0.00  0.00    +0.000 A 
ATOM     16  C   UNL     1      41.679  -1.693  13.148  0.00  0.00    +0.000 A 
ATOM     17  C   UNL     1      41.988  -1.897  11.840  0.00  0.00    +0.000 A 
BRANCH  12  19
ATOM     18  C   UNL     1      40.669  -1.633   8.640  0.00  0.00    +0.000 C 
ATOM     19  C   UNL     1      41.488  -2.602   9.477  0.00  0.00    +0.000 C 
ATOM     20  C   UNL     1      42.980  -2.236   9.329  0.00  0.00    +0.000 C 
ATOM     21  C   UNL     1      41.256  -4.055   9.169  0.00  0.00    +0.000 C 
ENDBRANCH  12  19
ENDBRANCH  11  15
ENDBRANCH   1  11
BRANCH   4  22
ATOM     22  C   UNL     1      36.057   0.897  15.400  0.00  0.00    +0.000 C 
BRANCH  22  23
ATOM     23  C   UNL     1      35.858   1.538  16.888  0.00  0.00    +0.000 C 
ATOM     24  O   UNL     1      34.413   2.008  16.709  0.00  0.00    +0.000 OA
BRANCH  23  25
ATOM     25  C   UNL     1      36.452   3.041  16.409  0.00  0.00    +0.000 C 
BRANCH  25  26
ATOM     26  O   UNL     1      37.309   3.350  17.440  0.00  0.00    +0.000 OA
BRANCH  26  27
ATOM     27  C   UNL     1      38.312   4.265  17.362  0.00  0.00    +0.000 A 
ATOM     28  C   UNL     1      38.889   4.933  18.415  0.00  0.00    +0.000 A 
ATOM     29  C   UNL     1      39.919   5.858  18.230  0.00  0.00    +0.000 A 
ATOM     30  C   UNL     1      40.370   6.119  16.970  0.00  0.00    +0.000 A 
ATOM     31  C   UNL     1      39.819   5.474  15.871  0.00  0.00    +0.000 A 
ATOM     32  C   UNL     1      38.798   4.560  16.099  0.00  0.00    +0.000 A 
ENDBRANCH  26  27
ENDBRANCH  25  26
ENDBRANCH  23  25
ENDBRANCH  22  23
ENDBRANCH   4  22
TORSDOF 8
ENDMDL
MODEL 4
REMARK VINA RESULT:      -7.0      1.660      3.184
REMARK  Name = 
REMARK  8 active torsions:
REMARK  status: ('A' for Active; 'I' for Inactive)
REMARK    1  A    between atoms: C_2  and  C_5
REMARK    2  A    between atoms: C_8  and  C_9
REMARK    3  A    between atoms: C_9  and  N_10
REMARK    4  A    between atoms: N_13  and  C_14
REMARK    5  A    between atoms: C_14  and  C_15
REMARK    6  A    between atoms: C_15  and  C_17
REMARK    7  A    between atoms: C_17  and  O_18
REMARK    8  A    between atoms: O_18  and  C_19
REMARK                            x       y       z     vdW  Elec       q    Type
REMARK                         _______ _______ _______ _____ _____    ______ ____
ROOT
ATOM      1  N   UNL     1      38.260   2.983  14.752  0.00  0.00    +0.000 N 
ATOM      2  C   UNL     1      37.856   1.707  14.968  0.00  0.00    +0.000 A 
ATOM      3  N   UNL     1      36.639   1.330  15.665  0.00  0.00    +0.000 NA
ATOM      4  N   UNL     1      38.763   0.893  14.442  0.00  0.00    +0.000 N 
ATOM      5  C   UNL     1      39.738   1.650  13.901  0.00  0.00    +0.000 A 
ATOM      6  C   UNL     1      40.923   1.342  13.227  0.00  0.00    +0.000 A 
ATOM      7  C   UNL     1      41.775   2.296  12.755  0.00  0.00    +0.000 A 
ATOM      8  C   UNL     1      41.461   3.606  12.958  0.00  0.00    +0.000 A 
ATOM      9  C   UNL     1      40.303   3.959  13.618  0.00  0.00    +0.000 A 
ATOM     10  C   UNL     1      39.437   2.954  14.084  0.00  0.00    +0.000 A 
ENDROOT
BRANCH   1  11
ATOM     11  C   UNL     1      37.524   4.143  15.183  0.00  0.00    +0.000 C 
BRANCH  11  15
ATOM     12  C   UNL     1      39.547   6.285  18.329  0.00  0.00    +0.000 A 
ATOM     13  C   UNL     1      39.003   5.044  18.560  0.00  0.00    +0.000 A 
ATOM     14  C   UNL     1      38.362   4.330  17.565  0.00  0.00    +0.000 A 
ATOM     15  C   UNL     1      38.233   4.821  16.290  0.00  0.00    +0.000 A 
ATOM     16  C   UNL     1      38.791   6.088  16.047  0.00  0.00    +0.000 A 
ATOM     17  C   UNL     1      39.412   6.768  17.048  0.00  0.00    +0.000 A 
BRANCH  12  19
ATOM     18  C   UNL     1      40.884   8.277  18.730  0.00  0.00    +0.000 C 
ATOM     19  C   UNL     1      40.238   7.077  19.404  0.00  0.00    +0.000 C 
ATOM     20  C   UNL     1      39.161   7.588  20.386  0.00  0.00    +0.000 C 
ATOM     21  C   UNL     1      41.197   6.147  20.093  0.00  0.00    +0.000 C 
ENDBRANCH  12  19
ENDBRANCH  11  15
ENDBRANCH   1  11
BRANCH   4  22
ATOM     22  C   UNL     1      38.726  -0.522  14.356  0.00  0.00    +0.000 C 
BRANCH  22  23
ATOM     23  C   UNL     1      39.588  -1.190  15.570  0.00  0.00    +0.000 C 
ATOM     24  O   UNL     1      40.643  -1.883  14.705  0.00  0.00    +0.000 OA
BRANCH  23  25
ATOM     25  C   UNL     1      38.633  -2.579  15.594  0.00  0.00    +0.000 C 
BRANCH  25  26
ATOM     26  O   UNL     1      38.208  -2.609  16.902  0.00  0.00    +0.000 OA
BRANCH  26  27
ATOM     27  C   UNL     1      37.102  -1.972  17.369  0.00  0.00    +0.000 A 
ATOM     28  C   UNL     1      37.023  -1.199  18.503  0.00  0.00    +0.000 A 
ATOM     29  C   UNL     1      35.834  -0.583  18.898  0.00  0.00    +0.000 A 
ATOM     30  C   UNL     1      34.708  -0.751  18.149  0.00  0.00    +0.000 A 
ATOM     31  C   UNL     1      34.731  -1.525  16.997  0.00  0.00    +0.000 A 
ATOM     32  C   UNL     1      35.934  -2.118  16.637  0.00  0.00    +0.000 A 
ENDBRANCH  26  27
ENDBRANCH  25  26
ENDBRANCH  23  25
ENDBRANCH  22  23
ENDBRANCH   4  22
TORSDOF 8
ENDMDL
MODEL 5
REMARK VINA RESULT:      -7.0      1.683      3.194
REMARK  Name = 
REMARK  8 active torsions:
REMARK  status: ('A' for Active; 'I' for Inactive)
REMARK    1  A    between atoms: C_2  and  C_5
REMARK    2  A    between atoms: C_8  and  C_9
REMARK    3  A    between atoms: C_9  and  N_10
REMARK    4  A    between atoms: N_13  and  C_14
REMARK    5  A    between atoms: C_14  and  C_15
REMARK    6  A    between atoms: C_15  and  C_17
REMARK    7  A    between atoms: C_17  and  O_18
REMARK    8  A    between atoms: O_18  and  C_19
REMARK                            x       y       z     vdW  Elec       q    Type
REMARK                         _______ _______ _______ _____ _____    ______ ____
ROOT
ATOM      1  N   UNL     1      37.564   2.766  15.144  0.00  0.00    +0.000 N 
ATOM      2  C   UNL     1      38.517   1.973  14.596  0.00  0.00    +0.000 A 
ATOM      3  N   UNL     1      39.656   2.454  13.833  0.00  0.00    +0.000 NA
ATOM      4  N   UNL     1      38.215   0.712  14.878  0.00  0.00    +0.000 N 
ATOM      5  C   UNL     1      37.074   0.707  15.596  0.00  0.00    +0.000 A 
ATOM      6  C   UNL     1      36.303  -0.316  16.153  0.00  0.00    +0.000 A 
ATOM      7  C   UNL     1      35.159  -0.079  16.857  0.00  0.00    +0.000 A 
ATOM      8  C   UNL     1      34.748   1.211  17.016  0.00  0.00    +0.000 A 
ATOM      9  C   UNL     1      35.477   2.252  16.484  0.00  0.00    +0.000 A 
ATOM     10  C   UNL     1      36.658   1.980  15.771  0.00  0.00    +0.000 A 
ENDROOT
BRANCH   1  11
ATOM     11  C   UNL     1      37.559   4.203  15.045  0.00  0.00    +0.000 C 
BRANCH  11  15
ATOM     12  C   UNL     1      40.243   6.057  17.863  0.00  0.00    +0.000 A 
ATOM     13  C   UNL     1      39.186   5.293  18.296  0.00  0.00    +0.000 A 
ATOM     14  C   UNL     1      38.320   4.675  17.414  0.00  0.00    +0.000 A 
ATOM     15  C   UNL     1      38.466   4.792  16.054  0.00  0.00    +0.000 A 
ATOM     16  C   UNL     1      39.547   5.570  15.605  0.00  0.00    +0.000 A 
ATOM     17  C   UNL     1      40.380   6.168  16.498  0.00  0.00    +0.000 A 
BRANCH  12  19
ATOM     18  C   UNL     1      42.588   6.573  18.248  0.00  0.00    +0.000 C 
ATOM     19  C   UNL     1      41.187   6.743  18.811  0.00  0.00    +0.000 C 
ATOM     20  C   UNL     1      40.842   8.248  18.821  0.00  0.00    +0.000 C 
ATOM     21  C   UNL     1      40.971   6.133  20.168  0.00  0.00    +0.000 C 
ENDBRANCH  12  19
ENDBRANCH  11  15
ENDBRANCH   1  11
BRANCH   4  22
ATOM     22  C   UNL     1      38.964  -0.456  14.581  0.00  0.00    +0.000 C 
BRANCH  22  23
ATOM     23  C   UNL     1      38.474  -1.103  13.166  0.00  0.00    +0.000 C 
ATOM     24  O   UNL     1      38.568  -2.573  13.578  0.00  0.00    +0.000 OA
BRANCH  23  25
ATOM     25  C   UNL     1      40.040  -1.133  12.542  0.00  0.00    +0.000 C 
BRANCH  25  26
ATOM     26  O   UNL     1      40.658  -2.040  13.370  0.00  0.00    +0.000 OA
BRANCH  26  27
ATOM     27  C   UNL     1      42.005  -2.201  13.471  0.00  0.00    +0.000 A 
ATOM     28  C   UNL     1      42.788  -3.025  12.700  0.00  0.00    +0.000 A 
ATOM     29  C   UNL     1      44.169  -3.119  12.883  0.00  0.00    +0.000 A 
ATOM     30  C   UNL     1      44.770  -2.379  13.857  0.00  0.00    +0.000 A 
ATOM     31  C   UNL     1      44.025  -1.534  14.668  0.00  0.00    +0.000 A 
ATOM     32  C   UNL     1      42.654  -1.468  14.452  0.00  0.00    +0.000 A 
ENDBRANCH  26  27
ENDBRANCH  25  26
ENDBRANCH  23  25
ENDBRANCH  22  23
ENDBRANCH   4  22
TORSDOF 8
ENDMDL
MODEL 6
REMARK VINA RESULT:      -6.8      1.963      3.931
REMARK  Name = 
REMARK  8 active torsions:
REMARK  status: ('A' for Active; 'I' for Inactive)
REMARK    1  A    between atoms: C_2  and  C_5
REMARK    2  A    between atoms: C_8  and  C_9
REMARK    3  A    between atoms: C_9  and  N_10
REMARK    4  A    between atoms: N_13  and  C_14
REMARK    5  A    between atoms: C_14  and  C_15
REMARK    6  A    between atoms: C_15  and  C_17
REMARK    7  A    between atoms: C_17  and  O_18
REMARK    8  A    between atoms: O_18  and  C_19
REMARK                            x       y       z     vdW  Elec       q    Type
REMARK                         _______ _______ _______ _____ _____    ______ ____
ROOT
ATOM      1  N   UNL     1      37.990   2.792  15.011  0.00  0.00    +0.000 N 
ATOM      2  C   UNL     1      37.404   1.667  15.492  0.00  0.00    +0.000 A 
ATOM      3  N   UNL     1      36.168   1.638  16.253  0.00  0.00    +0.000 NA
ATOM      4  N   UNL     1      38.159   0.631  15.148  0.00  0.00    +0.000 N 
ATOM      5  C   UNL     1      39.219   1.099  14.458  0.00  0.00    +0.000 A 
ATOM      6  C   UNL     1      40.319   0.477  13.863  0.00  0.00    +0.000 A 
ATOM      7  C   UNL     1      41.290   1.168  13.200  0.00  0.00    +0.000 A 
ATOM      8  C   UNL     1      41.186   2.524  13.123  0.00  0.00    +0.000 A 
ATOM      9  C   UNL     1      40.118   3.181  13.695  0.00  0.00    +0.000 A 
ATOM     10  C   UNL     1      39.125   2.443  14.363  0.00  0.00    +0.000 A 
ENDROOT
BRANCH   1  11
ATOM     11  C   UNL     1      37.453   4.117  15.190  0.00  0.00    +0.000 C 
BRANCH  11  15
ATOM     12  C   UNL     1      39.499   6.330  18.271  0.00  0.00    +0.000 A 
ATOM     13  C   UNL     1      38.912   5.119  18.546  0.00  0.00    +0.000 A 
ATOM     14  C   UNL     1      38.262   4.382  17.574  0.00  0.00    +0.000 A 
ATOM     15  C   UNL     1      38.168   4.820  16.277  0.00  0.00    +0.000 A 
ATOM     16  C   UNL     1      38.769   6.057  15.988  0.00  0.00    +0.000 A 
ATOM     17  C   UNL     1      39.398   6.760  16.967  0.00  0.00    +0.000 A 
BRANCH  12  19
ATOM     18  C   UNL     1      39.146   7.574  20.331  0.00  0.00    +0.000 C 
ATOM     19  C   UNL     1      40.199   7.147  19.321  0.00  0.00    +0.000 C 
ATOM     20  C   UNL     1      41.220   6.235  20.034  0.00  0.00    +0.000 C 
ATOM     21  C   UNL     1      40.890   8.279  18.612  0.00  0.00    +0.000 C 
ENDBRANCH  12  19
ENDBRANCH  11  15
ENDBRANCH   1  11
BRANCH   4  22
ATOM     22  C   UNL     1      37.905  -0.748  15.361  0.00  0.00    +0.000 C 
BRANCH  22  23
ATOM     23  C   UNL     1      37.167  -1.399  14.059  0.00  0.00    +0.000 C 
ATOM     24  O   UNL     1      36.058  -2.138  14.811  0.00  0.00    +0.000 OA
BRANCH  23  25
ATOM     25  C   UNL     1      38.153  -2.766  14.082  0.00  0.00    +0.000 C 
BRANCH  25  26
ATOM     26  O   UNL     1      38.511  -2.881  12.759  0.00  0.00    +0.000 OA
BRANCH  26  27
ATOM     27  C   UNL     1      39.769  -2.689  12.280  0.00  0.00    +0.000 A 
ATOM     28  C   UNL     1      40.105  -2.174  11.052  0.00  0.00    +0.000 A 
ATOM     29  C   UNL     1      41.434  -2.016  10.653  0.00  0.00    +0.000 A 
ATOM     30  C   UNL     1      42.438  -2.387  11.497  0.00  0.00    +0.000 A 
ATOM     31  C   UNL     1      42.154  -2.918  12.747  0.00  0.00    +0.000 A 
ATOM     32  C   UNL     1      40.819  -3.056  13.107  0.00  0.00    +0.000 A 
ENDBRANCH  26  27
ENDBRANCH  25  26
ENDBRANCH  23  25
ENDBRANCH  22  23
ENDBRANCH   4  22
TORSDOF 8
ENDMDL
MODEL 7
REMARK VINA RESULT:      -6.8      2.258      3.532
REMARK  Name = 
REMARK  8 active torsions:
REMARK  status: ('A' for Active; 'I' for Inactive)
REMARK    1  A    between atoms: C_2  and  C_5
REMARK    2  A    between atoms: C_8  and  C_9
REMARK    3  A    between atoms: C_9  and  N_10
REMARK    4  A    between atoms: N_13  and  C_14
REMARK    5  A    between atoms: C_14  and  C_15
REMARK    6  A    between atoms: C_15  and  C_17
REMARK    7  A    between atoms: C_17  and  O_18
REMARK    8  A    between atoms: O_18  and  C_19
REMARK                            x       y       z     vdW  Elec       q    Type
REMARK                         _______ _______ _______ _____ _____    ______ ____
ROOT
ATOM      1  N   UNL     1      37.719   2.539  14.954  0.00  0.00    +0.000 N 
ATOM      2  C   UNL     1      38.638   1.633  14.539  0.00  0.00    +0.000 A 
ATOM      3  N   UNL     1      39.833   1.953  13.778  0.00  0.00    +0.000 NA
ATOM      4  N   UNL     1      38.243   0.432  14.944  0.00  0.00    +0.000 N 
ATOM      5  C   UNL     1      37.079   0.578  15.607  0.00  0.00    +0.000 A 
ATOM      6  C   UNL     1      36.222  -0.326  16.240  0.00  0.00    +0.000 A 
ATOM      7  C   UNL     1      35.071   0.058  16.863  0.00  0.00    +0.000 A 
ATOM      8  C   UNL     1      34.741   1.380  16.861  0.00  0.00    +0.000 A 
ATOM      9  C   UNL     1      35.556   2.308  16.250  0.00  0.00    +0.000 A 
ATOM     10  C   UNL     1      36.742   1.886  15.624  0.00  0.00    +0.000 A 
ENDROOT
BRANCH   1  11
ATOM     11  C   UNL     1      37.813   3.954  14.698  0.00  0.00    +0.000 C 
BRANCH  11  15
ATOM     12  C   UNL     1      40.225   6.005  17.623  0.00  0.00    +0.000 A 
ATOM     13  C   UNL     1      39.099   5.312  17.999  0.00  0.00    +0.000 A 
ATOM     14  C   UNL     1      38.317   4.634  17.084  0.00  0.00    +0.000 A 
ATOM     15  C   UNL     1      38.621   4.615  15.746  0.00  0.00    +0.000 A 
ATOM     16  C   UNL     1      39.772   5.319  15.355  0.00  0.00    +0.000 A 
ATOM     17  C   UNL     1      40.520   5.980  16.279  0.00  0.00    +0.000 A 
BRANCH  12  19
ATOM     18  C   UNL     1      40.586   8.194  18.619  0.00  0.00    +0.000 C 
ATOM     19  C   UNL     1      41.079   6.756  18.606  0.00  0.00    +0.000 C 
ATOM     20  C   UNL     1      40.846   6.146  20.004  0.00  0.00    +0.000 C 
ATOM     21  C   UNL     1      42.508   6.582  18.173  0.00  0.00    +0.000 C 
ENDBRANCH  12  19
ENDBRANCH  11  15
ENDBRANCH   1  11
BRANCH   4  22
ATOM     22  C   UNL     1      38.924  -0.805  14.811  0.00  0.00    +0.000 C 
BRANCH  22  23
ATOM     23  C   UNL     1      38.640  -1.457  13.342  0.00  0.00    +0.000 C 
ATOM     24  O   UNL     1      38.001  -2.760  13.824  0.00  0.00    +0.000 OA
BRANCH  23  25
ATOM     25  C   UNL     1      40.162  -2.177  13.275  0.00  0.00    +0.000 C 
BRANCH  25  26
ATOM     26  O   UNL     1      40.801  -1.406  12.332  0.00  0.00    +0.000 OA
BRANCH  26  27
ATOM     27  C   UNL     1      40.724  -1.607  10.989  0.00  0.00    +0.000 A 
ATOM     28  C   UNL     1      40.497  -0.647  10.032  0.00  0.00    +0.000 A 
ATOM     29  C   UNL     1      40.437  -0.958   8.672  0.00  0.00    +0.000 A 
ATOM     30  C   UNL     1      40.600  -2.250   8.269  0.00  0.00    +0.000 A 
ATOM     31  C   UNL     1      40.827  -3.258   9.195  0.00  0.00    +0.000 A 
ATOM     32  C   UNL     1      40.882  -2.908  10.538  0.00  0.00    +0.000 A 
ENDBRANCH  26  27
ENDBRANCH  25  26
ENDBRANCH  23  25
ENDBRANCH  22  23
ENDBRANCH   4  22
TORSDOF 8
ENDMDL
MODEL 8
REMARK VINA RESULT:      -6.8      3.605      8.308
REMARK  Name = 
REMARK  8 active torsions:
REMARK  status: ('A' for Active; 'I' for Inactive)
REMARK    1  A    between atoms: C_2  and  C_5
REMARK    2  A    between atoms: C_8  and  C_9
REMARK    3  A    between atoms: C_9  and  N_10
REMARK    4  A    between atoms: N_13  and  C_14
REMARK    5  A    between atoms: C_14  and  C_15
REMARK    6  A    between atoms: C_15  and  C_17
REMARK    7  A    between atoms: C_17  and  O_18
REMARK    8  A    between atoms: O_18  and  C_19
REMARK                            x       y       z     vdW  Elec       q    Type
REMARK                         _______ _______ _______ _____ _____    ______ ____
ROOT
ATOM      1  N   UNL     1      36.510   5.561  14.008  0.00  0.00    +0.000 N 
ATOM      2  C   UNL     1      35.969   6.784  14.232  0.00  0.00    +0.000 A 
ATOM      3  N   UNL     1      34.589   7.143  13.955  0.00  0.00    +0.000 NA
ATOM      4  N   UNL     1      36.917   7.568  14.732  0.00  0.00    +0.000 N 
ATOM      5  C   UNL     1      38.052   6.846  14.819  0.00  0.00    +0.000 A 
ATOM      6  C   UNL     1      39.342   7.147  15.262  0.00  0.00    +0.000 A 
ATOM      7  C   UNL     1      40.356   6.235  15.259  0.00  0.00    +0.000 A 
ATOM      8  C   UNL     1      40.100   4.979  14.797  0.00  0.00    +0.000 A 
ATOM      9  C   UNL     1      38.842   4.636  14.350  0.00  0.00    +0.000 A 
ATOM     10  C   UNL     1      37.812   5.593  14.374  0.00  0.00    +0.000 A 
ENDROOT
BRANCH   1  11
ATOM     11  C   UNL     1      35.777   4.445  13.467  0.00  0.00    +0.000 C 
BRANCH  11  15
ATOM     12  C   UNL     1      35.819   1.139  16.233  0.00  0.00    +0.000 A 
ATOM     13  C   UNL     1      35.219   2.330  16.567  0.00  0.00    +0.000 A 
ATOM     14  C   UNL     1      35.179   3.400  15.694  0.00  0.00    +0.000 A 
ATOM     15  C   UNL     1      35.737   3.333  14.442  0.00  0.00    +0.000 A 
ATOM     16  C   UNL     1      36.349   2.118  14.093  0.00  0.00    +0.000 A 
ATOM     17  C   UNL     1      36.376   1.084  14.975  0.00  0.00    +0.000 A 
BRANCH  12  19
ATOM     18  C   UNL     1      34.564  -0.778  17.047  0.00  0.00    +0.000 C 
ATOM     19  C   UNL     1      35.880  -0.029  17.177  0.00  0.00    +0.000 C 
ATOM     20  C   UNL     1      37.021  -0.959  16.712  0.00  0.00    +0.000 C 
ATOM     21  C   UNL     1      36.160   0.524  18.547  0.00  0.00    +0.000 C 
ENDBRANCH  12  19
ENDBRANCH  11  15
ENDBRANCH   1  11
BRANCH   4  22
ATOM     22  C   UNL     1      36.796   8.904  15.193  0.00  0.00    +0.000 C 
BRANCH  22  23
ATOM     23  C   UNL     1      35.926   8.954  16.573  0.00  0.00    +0.000 C 
ATOM     24  O   UNL     1      35.449  10.403  16.452  0.00  0.00    +0.000 OA
BRANCH  23  25
ATOM     25  C   UNL     1      37.259   9.424  17.492  0.00  0.00    +0.000 C 
BRANCH  25  26
ATOM     26  O   UNL     1      37.201   8.543  18.547  0.00  0.00    +0.000 OA
BRANCH  26  27
ATOM     27  C   UNL     1      38.245   7.785  18.977  0.00  0.00    +0.000 A 
ATOM     28  C   UNL     1      39.180   8.142  19.918  0.00  0.00    +0.000 A 
ATOM     29  C   UNL     1      40.218   7.287  20.293  0.00  0.00    +0.000 A 
ATOM     30  C   UNL     1      40.321   6.059  19.711  0.00  0.00    +0.000 A 
ATOM     31  C   UNL     1      39.405   5.649  18.752  0.00  0.00    +0.000 A 
ATOM     32  C   UNL     1      38.386   6.529  18.408  0.00  0.00    +0.000 A 
ENDBRANCH  26  27
ENDBRANCH  25  26
ENDBRANCH  23  25
ENDBRANCH  22  23
ENDBRANCH   4  22
TORSDOF 8
ENDMDL
MODEL 9
REMARK VINA RESULT:      -6.7      2.242      7.488
REMARK  Name = 
REMARK  8 active torsions:
REMARK  status: ('A' for Active; 'I' for Inactive)
REMARK    1  A    between atoms: C_2  and  C_5
REMARK    2  A    between atoms: C_8  and  C_9
REMARK    3  A    between atoms: C_9  and  N_10
REMARK    4  A    between atoms: N_13  and  C_14
REMARK    5  A    between atoms: C_14  and  C_15
REMARK    6  A    between atoms: C_15  and  C_17
REMARK    7  A    between atoms: C_17  and  O_18
REMARK    8  A    between atoms: O_18  and  C_19
REMARK                            x       y       z     vdW  Elec       q    Type
REMARK                         _______ _______ _______ _____ _____    ______ ____
ROOT
ATOM      1  N   UNL     1      37.257  -1.568  15.227  0.00  0.00    +0.000 N 
ATOM      2  C   UNL     1      36.944  -0.468  14.499  0.00  0.00    +0.000 A 
ATOM      3  N   UNL     1      37.108  -0.352  13.060  0.00  0.00    +0.000 NA
ATOM      4  N   UNL     1      36.479   0.456  15.330  0.00  0.00    +0.000 N 
ATOM      5  C   UNL     1      36.502  -0.055  16.577  0.00  0.00    +0.000 A 
ATOM      6  C   UNL     1      36.138   0.458  17.825  0.00  0.00    +0.000 A 
ATOM      7  C   UNL     1      36.250  -0.259  18.980  0.00  0.00    +0.000 A 
ATOM      8  C   UNL     1      36.746  -1.527  18.913  0.00  0.00    +0.000 A 
ATOM      9  C   UNL     1      37.118  -2.074  17.704  0.00  0.00    +0.000 A 
ATOM     10  C   UNL     1      36.982  -1.316  16.527  0.00  0.00    +0.000 A 
ENDROOT
BRANCH   1  11
ATOM     11  C   UNL     1      37.792  -2.781  14.662  0.00  0.00    +0.000 C 
BRANCH  11  15
ATOM     12  C   UNL     1      41.927  -2.200  13.593  0.00  0.00    +0.000 A 
ATOM     13  C   UNL     1      41.033  -2.718  12.688  0.00  0.00    +0.000 A 
ATOM     14  C   UNL     1      39.699  -2.901  13.000  0.00  0.00    +0.000 A 
ATOM     15  C   UNL     1      39.193  -2.575  14.233  0.00  0.00    +0.000 A 
ATOM     16  C   UNL     1      40.102  -2.040  15.162  0.00  0.00    +0.000 A 
ATOM     17  C   UNL     1      41.409  -1.876  14.826  0.00  0.00    +0.000 A 
BRANCH  12  19
ATOM     18  C   UNL     1      43.490  -0.746  12.427  0.00  0.00    +0.000 C 
ATOM     19  C   UNL     1      43.383  -2.006  13.271  0.00  0.00    +0.000 C 
ATOM     20  C   UNL     1      44.138  -1.773  14.597  0.00  0.00    +0.000 C 
ATOM     21  C   UNL     1      43.857  -3.262  12.595  0.00  0.00    +0.000 C 
ENDBRANCH  12  19
ENDBRANCH  11  15
ENDBRANCH   1  11
BRANCH   4  22
ATOM     22  C   UNL     1      35.955   1.736  15.013  0.00  0.00    +0.000 C 
BRANCH  22  23
ATOM     23  C   UNL     1      37.148   2.735  14.522  0.00  0.00    +0.000 C 
ATOM     24  O   UNL     1      38.295   2.056  15.273  0.00  0.00    +0.000 OA
BRANCH  23  25
ATOM     25  C   UNL     1      36.889   3.806  15.797  0.00  0.00    +0.000 C 
BRANCH  25  26
ATOM     26  O   UNL     1      37.992   3.580  16.587  0.00  0.00    +0.000 OA
BRANCH  26  27
ATOM     27  C   UNL     1      38.756   4.558  17.143  0.00  0.00    +0.000 A 
ATOM     28  C   UNL     1      38.819   4.885  18.476  0.00  0.00    +0.000 A 
ATOM     29  C   UNL     1      39.640   5.911  18.949  0.00  0.00    +0.000 A 
ATOM     30  C   UNL     1      40.404   6.620  18.071  0.00  0.00    +0.000 A 
ATOM     31  C   UNL     1      40.375   6.334  16.713  0.00  0.00    +0.000 A 
ATOM     32  C   UNL     1      39.547   5.305  16.283  0.00  0.00    +0.000 A 
ENDBRANCH  26  27
ENDBRANCH  25  26
ENDBRANCH  23  25
ENDBRANCH  22  23
ENDBRANCH   4  22
TORSDOF 8
ENDMDL
MODEL 10
REMARK VINA RESULT:      -6.7      1.960      5.829
REMARK  Name = 
REMARK  8 active torsions:
REMARK  status: ('A' for Active; 'I' for Inactive)
REMARK    1  A    between atoms: C_2  and  C_5
REMARK    2  A    between atoms: C_8  and  C_9
REMARK    3  A    between atoms: C_9  and  N_10
REMARK    4  A    between atoms: N_13  and  C_14
REMARK    5  A    between atoms: C_14  and  C_15
REMARK    6  A    between atoms: C_15  and  C_17
REMARK    7  A    between atoms: C_17  and  O_18
REMARK    8  A    between atoms: O_18  and  C_19
REMARK                            x       y       z     vdW  Elec       q    Type
REMARK                         _______ _______ _______ _____ _____    ______ ____
ROOT
ATOM      1  N   UNL     1      37.244   3.773  13.972  0.00  0.00    +0.000 N 
ATOM      2  C   UNL     1      37.993   3.471  12.883  0.00  0.00    +0.000 A 
ATOM      3  N   UNL     1      37.515   2.735  11.726  0.00  0.00    +0.000 NA
ATOM      4  N   UNL     1      39.213   3.958  13.076  0.00  0.00    +0.000 N 
ATOM      5  C   UNL     1      39.236   4.560  14.282  0.00  0.00    +0.000 A 
ATOM      6  C   UNL     1      40.233   5.230  14.995  0.00  0.00    +0.000 A 
ATOM      7  C   UNL     1      40.023   5.773  16.228  0.00  0.00    +0.000 A 
ATOM      8  C   UNL     1      38.788   5.648  16.791  0.00  0.00    +0.000 A 
ATOM      9  C   UNL     1      37.773   4.996  16.125  0.00  0.00    +0.000 A 
ATOM     10  C   UNL     1      38.015   4.455  14.850  0.00  0.00    +0.000 A 
ENDROOT
BRANCH   1  11
ATOM     11  C   UNL     1      35.859   3.405  14.121  0.00  0.00    +0.000 C 
BRANCH  11  15
ATOM     12  C   UNL     1      35.339  -0.019  16.686  0.00  0.00    +0.000 A 
ATOM     13  C   UNL     1      35.995  -0.133  15.485  0.00  0.00    +0.000 A 
ATOM     14  C   UNL     1      36.188   0.951  14.650  0.00  0.00    +0.000 A 
ATOM     15  C   UNL     1      35.734   2.204  14.976  0.00  0.00    +0.000 A 
ATOM     16  C   UNL     1      35.065   2.329  16.206  0.00  0.00    +0.000 A 
ATOM     17  C   UNL     1      34.888   1.242  17.003  0.00  0.00    +0.000 A 
BRANCH  12  19
ATOM     18  C   UNL     1      36.086  -2.281  17.178  0.00  0.00    +0.000 C 
ATOM     19  C   UNL     1      35.112  -1.193  17.599  0.00  0.00    +0.000 C 
ATOM     20  C   UNL     1      35.460  -0.753  19.037  0.00  0.00    +0.000 C 
ATOM     21  C   UNL     1      33.660  -1.565  17.486  0.00  0.00    +0.000 C 
ENDBRANCH  12  19
ENDBRANCH  11  15
ENDBRANCH   1  11
BRANCH   4  22
ATOM     22  C   UNL     1      40.310   3.954  12.177  0.00  0.00    +0.000 C 
BRANCH  22  23
ATOM     23  C   UNL     1      41.577   3.156  12.826  0.00  0.00    +0.000 C 
ATOM     24  O   UNL     1      42.530   3.299  11.638  0.00  0.00    +0.000 OA
BRANCH  23  25
ATOM     25  C   UNL     1      41.031   1.664  12.264  0.00  0.00    +0.000 C 
BRANCH  25  26
ATOM     26  O   UNL     1      41.683   0.789  13.101  0.00  0.00    +0.000 OA
BRANCH  26  27
ATOM     27  C   UNL     1      41.068  -0.154  13.864  0.00  0.00    +0.000 A 
ATOM     28  C   UNL     1      39.901   0.004  14.573  0.00  0.00    +0.000 A 
ATOM     29  C   UNL     1      39.348  -1.032  15.329  0.00  0.00    +0.000 A 
ATOM     30  C   UNL     1      39.978  -2.240  15.377  0.00  0.00    +0.000 A 
ATOM     31  C   UNL     1      41.161  -2.452  14.683  0.00  0.00    +0.000 A 
ATOM     32  C   UNL     1      41.677  -1.397  13.941  0.00  0.00    +0.000 A 
ENDBRANCH  26  27
ENDBRANCH  25  26
ENDBRANCH  23  25
ENDBRANCH  22  23
ENDBRANCH   4  22
TORSDOF 8
ENDMDL
