MODEL 1
REMARK VINA RESULT:      -8.2      0.000      0.000
REMARK  Name = 
REMARK  5 active torsions:
REMARK  status: ('A' for Active; 'I' for Inactive)
REMARK    1  A    between atoms: C_8  and  C_9
REMARK    2  A    between atoms: C_11  and  C_12
REMARK    3  A    between atoms: N_20  and  C_22
REMARK    4  A    between atoms: C_22  and  C_23
REMARK    5  A    between atoms: C_23  and  C_24
REMARK                            x       y       z     vdW  Elec       q    Type
REMARK                         _______ _______ _______ _____ _____    ______ ____
ROOT
ATOM      1  C   UNL     1      36.154   5.132  13.750  0.00  0.00    +0.000 A 
ATOM      2  C   UNL     1      35.766   3.870  14.138  0.00  0.00    +0.000 A 
ATOM      3  C   UNL     1      36.334   3.227  15.221  0.00  0.00    +0.000 A 
ATOM      4  C   UNL     1      37.315   3.918  15.897  0.00  0.00    +0.000 A 
ATOM      5  C   UNL     1      37.719   5.184  15.524  0.00  0.00    +0.000 A 
ATOM      6  N   UNL     1      38.744   5.834  16.266  0.00  0.00    +0.000 N 
ATOM      7  C   UNL     1      39.153   7.163  15.864  0.00  0.00    +0.000 C 
ATOM      8  N   UNL     1      37.118   5.722  14.472  0.00  0.00    +0.000 NA
ENDROOT
BRANCH   1  16
ATOM      9  C   UNL     1      33.872   6.755  14.122  0.00  0.00    +0.000 C 
ATOM     10  C   UNL     1      34.438   6.617  12.755  0.00  0.00    +0.000 A 
ATOM     11  C   UNL     1      33.867   7.264  11.674  0.00  0.00    +0.000 A 
ATOM     12  C   UNL     1      34.382   7.145  10.398  0.00  0.00    +0.000 A 
ATOM     13  O   UNL     1      33.805   7.800   9.307  0.00  0.00    +0.000 OA
ATOM     14  C   UNL     1      35.495   6.347  10.250  0.00  0.00    +0.000 A 
ATOM     15  C   UNL     1      36.061   5.704  11.333  0.00  0.00    +0.000 A 
ATOM     16  C   UNL     1      35.552   5.818  12.608  0.00  0.00    +0.000 A 
ENDBRANCH   1  16
BRANCH   3  17
ATOM     17  C   UNL     1      35.956   1.907  15.661  0.00  0.00    +0.000 A 
ATOM     18  C   UNL     1      35.041   1.703  16.666  0.00  0.00    +0.000 A 
ATOM     19  C   UNL     1      34.719   0.418  17.051  0.00  0.00    +0.000 A 
ATOM     20  C   UNL     1      35.274  -0.704  16.470  0.00  0.00    +0.000 A 
ATOM     21  C   UNL     1      36.193  -0.467  15.458  0.00  0.00    +0.000 A 
ATOM     22  C   UNL     1      36.518   0.808  15.072  0.00  0.00    +0.000 A 
ENDBRANCH   3  17
BRANCH   6  23
ATOM     23  C   UNL     1      39.392   5.230  17.394  0.00  0.00    +0.000 C 
BRANCH  23  24
ATOM     24  C   UNL     1      38.930   5.627  18.736  0.00  0.00    +0.000 C 
BRANCH  24  25
ATOM     25  C   UNL     1      39.943   6.296  19.548  0.00  0.00    +0.000 C 
ATOM     26  C   UNL     1      39.439   7.418  20.345  0.00  0.00    +0.000 C 
ATOM     27  C   UNL     1      41.293   6.449  19.008  0.00  0.00    +0.000 C 
ENDBRANCH  24  25
ENDBRANCH  23  24
ENDBRANCH   6  23
TORSDOF 5
ENDMDL
MODEL 2
REMARK VINA RESULT:      -7.8      2.750      6.875
REMARK  Name = 
REMARK  5 active torsions:
REMARK  status: ('A' for Active; 'I' for Inactive)
REMARK    1  A    between atoms: C_8  and  C_9
REMARK    2  A    between atoms: C_11  and  C_12
REMARK    3  A    between atoms: N_20  and  C_22
REMARK    4  A    between atoms: C_22  and  C_23
REMARK    5  A    between atoms: C_23  and  C_24
REMARK                            x       y       z     vdW  Elec       q    Type
REMARK                         _______ _______ _______ _____ _____    ______ ____
ROOT
ATOM      1  C   UNL     1      36.965   3.354  15.974  0.00  0.00    +0.000 A 
ATOM      2  C   UNL     1      37.949   3.829  16.811  0.00  0.00    +0.000 A 
ATOM      3  C   UNL     1      38.437   5.118  16.716  0.00  0.00    +0.000 A 
ATOM      4  C   UNL     1      37.886   5.910  15.732  0.00  0.00    +0.000 A 
ATOM      5  C   UNL     1      36.899   5.453  14.882  0.00  0.00    +0.000 A 
ATOM      6  N   UNL     1      36.382   6.325  13.884  0.00  0.00    +0.000 N 
ATOM      7  C   UNL     1      35.344   5.833  13.003  0.00  0.00    +0.000 C 
ATOM      8  N   UNL     1      36.492   4.203  15.048  0.00  0.00    +0.000 NA
ENDROOT
BRANCH   1  16
ATOM      9  C   UNL     1      38.224   1.251  14.570  0.00  0.00    +0.000 C 
ATOM     10  C   UNL     1      37.032   0.945  15.403  0.00  0.00    +0.000 A 
ATOM     11  C   UNL     1      36.534  -0.342  15.497  0.00  0.00    +0.000 A 
ATOM     12  C   UNL     1      35.427  -0.642  16.265  0.00  0.00    +0.000 A 
ATOM     13  O   UNL     1      34.926  -1.943  16.360  0.00  0.00    +0.000 OA
ATOM     14  C   UNL     1      34.836   0.406  16.938  0.00  0.00    +0.000 A 
ATOM     15  C   UNL     1      35.338   1.688  16.841  0.00  0.00    +0.000 A 
ATOM     16  C   UNL     1      36.442   1.994  16.076  0.00  0.00    +0.000 A 
ENDBRANCH   1  16
BRANCH   3  17
ATOM     17  C   UNL     1      39.465   5.654  17.573  0.00  0.00    +0.000 A 
ATOM     18  C   UNL     1      40.692   6.046  17.091  0.00  0.00    +0.000 A 
ATOM     19  C   UNL     1      41.641   6.548  17.957  0.00  0.00    +0.000 A 
ATOM     20  C   UNL     1      41.426   6.686  19.313  0.00  0.00    +0.000 A 
ATOM     21  C   UNL     1      40.180   6.283  19.770  0.00  0.00    +0.000 A 
ATOM     22  C   UNL     1      39.232   5.783  18.914  0.00  0.00    +0.000 A 
ENDBRANCH   3  17
BRANCH   6  23
ATOM     23  C   UNL     1      36.844   7.672  13.711  0.00  0.00    +0.000 C 
BRANCH  23  24
ATOM     24  C   UNL     1      35.825   8.727  13.570  0.00  0.00    +0.000 C 
BRANCH  24  25
ATOM     25  C   UNL     1      35.173   9.106  14.821  0.00  0.00    +0.000 C 
ATOM     26  C   UNL     1      36.073   9.192  15.974  0.00  0.00    +0.000 C 
ATOM     27  C   UNL     1      33.827   8.606  15.095  0.00  0.00    +0.000 C 
ENDBRANCH  24  25
ENDBRANCH  23  24
ENDBRANCH   6  23
TORSDOF 5
ENDMDL
MODEL 3
REMARK VINA RESULT:      -7.4      3.284      6.890
REMARK  Name = 
REMARK  5 active torsions:
REMARK  status: ('A' for Active; 'I' for Inactive)
REMARK    1  A    between atoms: C_8  and  C_9
REMARK    2  A    between atoms: C_11  and  C_12
REMARK    3  A    between atoms: N_20  and  C_22
REMARK    4  A    between atoms: C_22  and  C_23
REMARK    5  A    between atoms: C_23  and  C_24
REMARK                            x       y       z     vdW  Elec       q    Type
REMARK                         _______ _______ _______ _____ _____    ______ ____
ROOT
ATOM      1  C   UNL     1      39.088   5.835  17.018  0.00  0.00    +0.000 A 
ATOM      2  C   UNL     1      38.506   4.593  16.908  0.00  0.00    +0.000 A 
ATOM      3  C   UNL     1      37.547   4.312  15.954  0.00  0.00    +0.000 A 
ATOM      4  C   UNL     1      37.200   5.346  15.113  0.00  0.00    +0.000 A 
ATOM      5  C   UNL     1      37.772   6.599  15.207  0.00  0.00    +0.000 A 
ATOM      6  N   UNL     1      37.359   7.621  14.307  0.00  0.00    +0.000 N 
ATOM      7  C   UNL     1      37.970   8.929  14.416  0.00  0.00    +0.000 C 
ATOM      8  N   UNL     1      38.683   6.776  16.152  0.00  0.00    +0.000 NA
ENDROOT
BRANCH   1  16
ATOM      9  C   UNL     1      41.757   6.309  16.222  0.00  0.00    +0.000 C 
ATOM     10  C   UNL     1      41.418   6.371  17.668  0.00  0.00    +0.000 A 
ATOM     11  C   UNL     1      42.383   6.652  18.618  0.00  0.00    +0.000 A 
ATOM     12  C   UNL     1      42.084   6.711  19.965  0.00  0.00    +0.000 A 
ATOM     13  O   UNL     1      43.059   6.996  20.924  0.00  0.00    +0.000 OA
ATOM     14  C   UNL     1      40.773   6.475  20.321  0.00  0.00    +0.000 A 
ATOM     15  C   UNL     1      39.815   6.196  19.367  0.00  0.00    +0.000 A 
ATOM     16  C   UNL     1      40.107   6.135  18.022  0.00  0.00    +0.000 A 
ENDBRANCH   1  16
BRANCH   3  17
ATOM     17  C   UNL     1      36.914   3.025  15.805  0.00  0.00    +0.000 A 
ATOM     18  C   UNL     1      37.394   2.067  14.944  0.00  0.00    +0.000 A 
ATOM     19  C   UNL     1      36.747   0.853  14.838  0.00  0.00    +0.000 A 
ATOM     20  C   UNL     1      35.617   0.536  15.563  0.00  0.00    +0.000 A 
ATOM     21  C   UNL     1      35.155   1.522  16.423  0.00  0.00    +0.000 A 
ATOM     22  C   UNL     1      35.795   2.731  16.533  0.00  0.00    +0.000 A 
ENDBRANCH   3  17
BRANCH   6  23
ATOM     23  C   UNL     1      36.361   7.414  13.298  0.00  0.00    +0.000 C 
BRANCH  23  24
ATOM     24  C   UNL     1      35.245   8.375  13.239  0.00  0.00    +0.000 C 
BRANCH  24  25
ATOM     25  C   UNL     1      34.072   7.984  14.018  0.00  0.00    +0.000 C 
ATOM     26  C   UNL     1      33.825   8.814  15.201  0.00  0.00    +0.000 C 
ATOM     27  C   UNL     1      33.757   6.564  14.155  0.00  0.00    +0.000 C 
ENDBRANCH  24  25
ENDBRANCH  23  24
ENDBRANCH   6  23
TORSDOF 5
ENDMDL
MODEL 4
REMARK VINA RESULT:      -7.4      5.002      8.384
REMARK  Name = 
REMARK  5 active torsions:
REMARK  status: ('A' for Active; 'I' for Inactive)
REMARK    1  A    between atoms: C_8  and  C_9
REMARK    2  A    between atoms: C_11  and  C_12
REMARK    3  A    between atoms: N_20  and  C_22
REMARK    4  A    between atoms: C_22  and  C_23
REMARK    5  A    between atoms: C_23  and  C_24
REMARK                            x       y       z     vdW  Elec       q    Type
REMARK                         _______ _______ _______ _____ _____    ______ ____
ROOT
ATOM      1  C   UNL     1      37.093  -2.033  15.348  0.00  0.00    +0.000 A 
ATOM      2  C   UNL     1      38.406  -1.941  14.947  0.00  0.00    +0.000 A 
ATOM      3  C   UNL     1      39.067  -0.730  14.864  0.00  0.00    +0.000 A 
ATOM      4  C   UNL     1      38.339   0.389  15.204  0.00  0.00    +0.000 A 
ATOM      5  C   UNL     1      37.020   0.318  15.608  0.00  0.00    +0.000 A 
ATOM      6  N   UNL     1      36.329   1.517  15.937  0.00  0.00    +0.000 N 
ATOM      7  C   UNL     1      34.949   1.427  16.363  0.00  0.00    +0.000 C 
ATOM      8  N   UNL     1      36.469  -0.885  15.658  0.00  0.00    +0.000 NA
ENDROOT
BRANCH   1  16
ATOM      9  C   UNL     1      37.991  -4.002  17.163  0.00  0.00    +0.000 C 
ATOM     10  C   UNL     1      36.803  -4.294  16.317  0.00  0.00    +0.000 A 
ATOM     11  C   UNL     1      36.141  -5.505  16.405  0.00  0.00    +0.000 A 
ATOM     12  C   UNL     1      35.039  -5.791  15.625  0.00  0.00    +0.000 A 
ATOM     13  O   UNL     1      34.370  -7.015  15.715  0.00  0.00    +0.000 OA
ATOM     14  C   UNL     1      34.626  -4.810  14.750  0.00  0.00    +0.000 A 
ATOM     15  C   UNL     1      35.290  -3.603  14.668  0.00  0.00    +0.000 A 
ATOM     16  C   UNL     1      36.392  -3.311  15.442  0.00  0.00    +0.000 A 
ENDBRANCH   1  16
BRANCH   3  17
ATOM     17  C   UNL     1      40.441  -0.591  14.451  0.00  0.00    +0.000 A 
ATOM     18  C   UNL     1      40.926   0.568  13.892  0.00  0.00    +0.000 A 
ATOM     19  C   UNL     1      42.249   0.645  13.511  0.00  0.00    +0.000 A 
ATOM     20  C   UNL     1      43.139  -0.399  13.661  0.00  0.00    +0.000 A 
ATOM     21  C   UNL     1      42.622  -1.555  14.228  0.00  0.00    +0.000 A 
ATOM     22  C   UNL     1      41.307  -1.638  14.609  0.00  0.00    +0.000 A 
ENDBRANCH   3  17
BRANCH   6  23
ATOM     23  C   UNL     1      36.940   2.813  15.864  0.00  0.00    +0.000 C 
BRANCH  23  24
ATOM     24  C   UNL     1      37.246   3.493  17.136  0.00  0.00    +0.000 C 
BRANCH  24  25
ATOM     25  C   UNL     1      38.278   4.521  17.036  0.00  0.00    +0.000 C 
ATOM     26  C   UNL     1      39.139   4.406  15.856  0.00  0.00    +0.000 C 
ATOM     27  C   UNL     1      38.927   4.990  18.259  0.00  0.00    +0.000 C 
ENDBRANCH  24  25
ENDBRANCH  23  24
ENDBRANCH   6  23
TORSDOF 5
ENDMDL
MODEL 5
REMARK VINA RESULT:      -7.3      5.720      9.784
REMARK  Name = 
REMARK  5 active torsions:
REMARK  status: ('A' for Active; 'I' for Inactive)
REMARK    1  A    between atoms: C_8  and  C_9
REMARK    2  A    between atoms: C_11  and  C_12
REMARK    3  A    between atoms: N_20  and  C_22
REMARK    4  A    between atoms: C_22  and  C_23
REMARK    5  A    between atoms: C_23  and  C_24
REMARK                            x       y       z     vdW  Elec       q    Type
REMARK                         _______ _______ _______ _____ _____    ______ ____
ROOT
ATOM      1  C   UNL     1      36.033  -3.820  15.439  0.00  0.00    +0.000 A 
ATOM      2  C   UNL     1      36.899  -3.541  14.407  0.00  0.00    +0.000 A 
ATOM      3  C   UNL     1      37.352  -2.261  14.152  0.00  0.00    +0.000 A 
ATOM      4  C   UNL     1      36.888  -1.270  14.989  0.00  0.00    +0.000 A 
ATOM      5  C   UNL     1      36.019  -1.528  16.030  0.00  0.00    +0.000 A 
ATOM      6  N   UNL     1      35.577  -0.453  16.850  0.00  0.00    +0.000 N 
ATOM      7  C   UNL     1      34.669  -0.740  17.940  0.00  0.00    +0.000 C 
ATOM      8  N   UNL     1      35.639  -2.786  16.199  0.00  0.00    +0.000 NA
ENDROOT
BRANCH   1  16
ATOM      9  C   UNL     1      33.706  -4.784  14.159  0.00  0.00    +0.000 C 
ATOM     10  C   UNL     1      34.424  -5.674  15.109  0.00  0.00    +0.000 A 
ATOM     11  C   UNL     1      33.970  -6.954  15.374  0.00  0.00    +0.000 A 
ATOM     12  C   UNL     1      34.625  -7.791  16.255  0.00  0.00    +0.000 A 
ATOM     13  O   UNL     1      34.166  -9.085  16.520  0.00  0.00    +0.000 OA
ATOM     14  C   UNL     1      35.756  -7.292  16.862  0.00  0.00    +0.000 A 
ATOM     15  C   UNL     1      36.204  -6.014  16.594  0.00  0.00    +0.000 A 
ATOM     16  C   UNL     1      35.555  -5.173  15.716  0.00  0.00    +0.000 A 
ENDBRANCH   1  16
BRANCH   3  17
ATOM     17  C   UNL     1      38.259  -1.928  13.082  0.00  0.00    +0.000 A 
ATOM     18  C   UNL     1      38.255  -0.694  12.474  0.00  0.00    +0.000 A 
ATOM     19  C   UNL     1      39.143  -0.430  11.452  0.00  0.00    +0.000 A 
ATOM     20  C   UNL     1      40.060  -1.353  10.992  0.00  0.00    +0.000 A 
ATOM     21  C   UNL     1      40.041  -2.588  11.625  0.00  0.00    +0.000 A 
ATOM     22  C   UNL     1      39.160  -2.857  12.641  0.00  0.00    +0.000 A 
ENDBRANCH   3  17
BRANCH   6  23
ATOM     23  C   UNL     1      35.990   0.905  16.643  0.00  0.00    +0.000 C 
BRANCH  23  24
ATOM     24  C   UNL     1      34.937   1.906  16.396  0.00  0.00    +0.000 C 
BRANCH  24  25
ATOM     25  C   UNL     1      34.973   2.502  15.062  0.00  0.00    +0.000 C 
ATOM     26  C   UNL     1      36.071   2.028  14.215  0.00  0.00    +0.000 C 
ATOM     27  C   UNL     1      34.605   3.908  14.908  0.00  0.00    +0.000 C 
ENDBRANCH  24  25
ENDBRANCH  23  24
ENDBRANCH   6  23
TORSDOF 5
ENDMDL
MODEL 6
REMARK VINA RESULT:      -7.2      5.647      8.986
REMARK  Name = 
REMARK  5 active torsions:
REMARK  status: ('A' for Active; 'I' for Inactive)
REMARK    1  A    between atoms: C_8  and  C_9
REMARK    2  A    between atoms: C_11  and  C_12
REMARK    3  A    between atoms: N_20  and  C_22
REMARK    4  A    between atoms: C_22  and  C_23
REMARK    5  A    between atoms: C_23  and  C_24
REMARK                            x       y       z     vdW  Elec       q    Type
REMARK                         _______ _______ _______ _____ _____    ______ ____
ROOT
ATOM      1  C   UNL     1      40.287  -1.519  14.679  0.00  0.00    +0.000 A 
ATOM      2  C   UNL     1      39.601  -0.364  14.383  0.00  0.00    +0.000 A 
ATOM      3  C   UNL     1      38.389  -0.057  14.971  0.00  0.00    +0.000 A 
ATOM      4  C   UNL     1      37.899  -0.973  15.876  0.00  0.00    +0.000 A 
ATOM      5  C   UNL     1      38.572  -2.138  16.187  0.00  0.00    +0.000 A 
ATOM      6  N   UNL     1      38.001  -3.041  17.127  0.00  0.00    +0.000 N 
ATOM      7  C   UNL     1      38.721  -4.256  17.445  0.00  0.00    +0.000 C 
ATOM      8  N   UNL     1      39.727  -2.348  15.573  0.00  0.00    +0.000 NA
ENDROOT
BRANCH   1  16
ATOM      9  C   UNL     1      40.364  -3.022  12.288  0.00  0.00    +0.000 C 
ATOM     10  C   UNL     1      41.645  -2.577  12.897  0.00  0.00    +0.000 A 
ATOM     11  C   UNL     1      42.861  -2.888  12.316  0.00  0.00    +0.000 A 
ATOM     12  C   UNL     1      44.059  -2.483  12.871  0.00  0.00    +0.000 A 
ATOM     13  O   UNL     1      45.286  -2.797  12.281  0.00  0.00    +0.000 OA
ATOM     14  C   UNL     1      43.987  -1.751  14.036  0.00  0.00    +0.000 A 
ATOM     15  C   UNL     1      42.770  -1.444  14.611  0.00  0.00    +0.000 A 
ATOM     16  C   UNL     1      41.572  -1.845  14.063  0.00  0.00    +0.000 A 
ENDBRANCH   1  16
BRANCH   3  17
ATOM     17  C   UNL     1      37.639   1.141  14.689  0.00  0.00    +0.000 A 
ATOM     18  C   UNL     1      38.248   2.322  14.335  0.00  0.00    +0.000 A 
ATOM     19  C   UNL     1      37.482   3.440  14.080  0.00  0.00    +0.000 A 
ATOM     20  C   UNL     1      36.104   3.445  14.161  0.00  0.00    +0.000 A 
ATOM     21  C   UNL     1      35.517   2.239  14.520  0.00  0.00    +0.000 A 
ATOM     22  C   UNL     1      36.274   1.124  14.775  0.00  0.00    +0.000 A 
ENDBRANCH   3  17
BRANCH   6  23
ATOM     23  C   UNL     1      36.742  -2.802  17.771  0.00  0.00    +0.000 C 
BRANCH  23  24
ATOM     24  C   UNL     1      36.710  -1.795  18.846  0.00  0.00    +0.000 C 
BRANCH  24  25
ATOM     25  C   UNL     1      35.696  -0.758  18.669  0.00  0.00    +0.000 C 
ATOM     26  C   UNL     1      34.650  -1.090  17.699  0.00  0.00    +0.000 C 
ATOM     27  C   UNL     1      36.106   0.645  18.715  0.00  0.00    +0.000 C 
ENDBRANCH  24  25
ENDBRANCH  23  24
ENDBRANCH   6  23
TORSDOF 5
ENDMDL
MODEL 7
REMARK VINA RESULT:      -7.2     24.714     27.201
REMARK  Name = 
REMARK  5 active torsions:
REMARK  status: ('A' for Active; 'I' for Inactive)
REMARK    1  A    between atoms: C_8  and  C_9
REMARK    2  A    between atoms: C_11  and  C_12
REMARK    3  A    between atoms: N_20  and  C_22
REMARK    4  A    between atoms: C_22  and  C_23
REMARK    5  A    between atoms: C_23  and  C_24
REMARK                            x       y       z     vdW  Elec       q    Type
REMARK                         _______ _______ _______ _____ _____    ______ ____
ROOT
ATOM      1  C   UNL     1      12.466   0.616  27.263  0.00  0.00    +0.000 A 
ATOM      2  C   UNL     1      13.671   0.413  26.632  0.00  0.00    +0.000 A 
ATOM      3  C   UNL     1      14.836   0.164  27.333  0.00  0.00    +0.000 A 
ATOM      4  C   UNL     1      14.728   0.130  28.705  0.00  0.00    +0.000 A 
ATOM      5  C   UNL     1      13.529   0.332  29.358  0.00  0.00    +0.000 A 
ATOM      6  N   UNL     1      13.495   0.289  30.780  0.00  0.00    +0.000 N 
ATOM      7  C   UNL     1      12.229   0.498  31.449  0.00  0.00    +0.000 C 
ATOM      8  N   UNL     1      12.464   0.563  28.604  0.00  0.00    +0.000 NA
ENDROOT
BRANCH   1  16
ATOM      9  C   UNL     1      11.676   3.273  26.722  0.00  0.00    +0.000 C 
ATOM     10  C   UNL     1      10.816   2.158  26.245  0.00  0.00    +0.000 A 
ATOM     11  C   UNL     1       9.645   2.403  25.550  0.00  0.00    +0.000 A 
ATOM     12  C   UNL     1       8.836   1.377  25.103  0.00  0.00    +0.000 A 
ATOM     13  O   UNL     1       7.654   1.626  24.400  0.00  0.00    +0.000 OA
ATOM     14  C   UNL     1       9.249   0.093  25.383  0.00  0.00    +0.000 A 
ATOM     15  C   UNL     1      10.419  -0.144  26.077  0.00  0.00    +0.000 A 
ATOM     16  C   UNL     1      11.231   0.874  26.526  0.00  0.00    +0.000 A 
ENDBRANCH   1  16
BRANCH   3  17
ATOM     17  C   UNL     1      16.118  -0.055  26.710  0.00  0.00    +0.000 A 
ATOM     18  C   UNL     1      16.393  -1.183  25.974  0.00  0.00    +0.000 A 
ATOM     19  C   UNL     1      17.638  -1.344  25.403  0.00  0.00    +0.000 A 
ATOM     20  C   UNL     1      18.651  -0.415  25.529  0.00  0.00    +0.000 A 
ATOM     21  C   UNL     1      18.344   0.713  26.276  0.00  0.00    +0.000 A 
ATOM     22  C   UNL     1      17.108   0.878  26.847  0.00  0.00    +0.000 A 
ENDBRANCH   3  17
BRANCH   6  23
ATOM     23  C   UNL     1      14.661   0.049  31.580  0.00  0.00    +0.000 C 
BRANCH  23  24
ATOM     24  C   UNL     1      14.673   0.601  32.946  0.00  0.00    +0.000 C 
BRANCH  24  25
ATOM     25  C   UNL     1      15.345  -0.243  33.931  0.00  0.00    +0.000 C 
ATOM     26  C   UNL     1      15.602  -1.614  33.483  0.00  0.00    +0.000 C 
ATOM     27  C   UNL     1      15.007  -0.084  35.345  0.00  0.00    +0.000 C 
ENDBRANCH  24  25
ENDBRANCH  23  24
ENDBRANCH   6  23
TORSDOF 5
ENDMDL
MODEL 8
REMARK VINA RESULT:      -7.1      5.019      8.428
REMARK  Name = 
REMARK  5 active torsions:
REMARK  status: ('A' for Active; 'I' for Inactive)
REMARK    1  A    between atoms: C_8  and  C_9
REMARK    2  A    between atoms: C_11  and  C_12
REMARK    3  A    between atoms: N_20  and  C_22
REMARK    4  A    between atoms: C_22  and  C_23
REMARK    5  A    between atoms: C_23  and  C_24
REMARK                            x       y       z     vdW  Elec       q    Type
REMARK                         _______ _______ _______ _____ _____    ______ ____
ROOT
ATOM      1  C   UNL     1      38.976  -0.942  13.643  0.00  0.00    +0.000 A 
ATOM      2  C   UNL     1      39.251   0.392  13.840  0.00  0.00    +0.000 A 
ATOM      3  C   UNL     1      38.461   1.195  14.641  0.00  0.00    +0.000 A 
ATOM      4  C   UNL     1      37.377   0.589  15.236  0.00  0.00    +0.000 A 
ATOM      5  C   UNL     1      37.084  -0.748  15.050  0.00  0.00    +0.000 A 
ATOM      6  N   UNL     1      35.942  -1.305  15.692  0.00  0.00    +0.000 N 
ATOM      7  C   UNL     1      35.650  -2.708  15.491  0.00  0.00    +0.000 C 
ATOM      8  N   UNL     1      37.897  -1.440  14.266  0.00  0.00    +0.000 NA
ENDROOT
BRANCH   1  16
ATOM      9  C   UNL     1      40.968  -2.564  14.818  0.00  0.00    +0.000 C 
ATOM     10  C   UNL     1      40.792  -2.600  13.342  0.00  0.00    +0.000 A 
ATOM     11  C   UNL     1      41.585  -3.406  12.546  0.00  0.00    +0.000 A 
ATOM     12  C   UNL     1      41.434  -3.448  11.174  0.00  0.00    +0.000 A 
ATOM     13  O   UNL     1      42.235  -4.265  10.370  0.00  0.00    +0.000 OA
ATOM     14  C   UNL     1      40.454  -2.646  10.632  0.00  0.00    +0.000 A 
ATOM     15  C   UNL     1      39.666  -1.843  11.432  0.00  0.00    +0.000 A 
ATOM     16  C   UNL     1      39.811  -1.796  12.802  0.00  0.00    +0.000 A 
ENDBRANCH   1  16
BRANCH   3  17
ATOM     17  C   UNL     1      38.715   2.595  14.874  0.00  0.00    +0.000 A 
ATOM     18  C   UNL     1      39.704   3.282  14.211  0.00  0.00    +0.000 A 
ATOM     19  C   UNL     1      39.907   4.620  14.477  0.00  0.00    +0.000 A 
ATOM     20  C   UNL     1      39.155   5.330  15.390  0.00  0.00    +0.000 A 
ATOM     21  C   UNL     1      38.163   4.611  16.043  0.00  0.00    +0.000 A 
ATOM     22  C   UNL     1      37.958   3.280  15.784  0.00  0.00    +0.000 A 
ENDBRANCH   3  17
BRANCH   6  23
ATOM     23  C   UNL     1      35.066  -0.536  16.528  0.00  0.00    +0.000 C 
BRANCH  23  24
ATOM     24  C   UNL     1      34.826  -1.029  17.895  0.00  0.00    +0.000 C 
BRANCH  24  25
ATOM     25  C   UNL     1      35.850  -0.641  18.864  0.00  0.00    +0.000 C 
ATOM     26  C   UNL     1      36.220   0.776  18.821  0.00  0.00    +0.000 C 
ATOM     27  C   UNL     1      36.932  -1.578  19.159  0.00  0.00    +0.000 C 
ENDBRANCH  24  25
ENDBRANCH  23  24
ENDBRANCH   6  23
TORSDOF 5
ENDMDL
MODEL 9
REMARK VINA RESULT:      -7.1      5.802      9.367
REMARK  Name = 
REMARK  5 active torsions:
REMARK  status: ('A' for Active; 'I' for Inactive)
REMARK    1  A    between atoms: C_8  and  C_9
REMARK    2  A    between atoms: C_11  and  C_12
REMARK    3  A    between atoms: N_20  and  C_22
REMARK    4  A    between atoms: C_22  and  C_23
REMARK    5  A    between atoms: C_23  and  C_24
REMARK                            x       y       z     vdW  Elec       q    Type
REMARK                         _______ _______ _______ _____ _____    ______ ____
ROOT
ATOM      1  C   UNL     1      37.037  -2.861  14.930  0.00  0.00    +0.000 A 
ATOM      2  C   UNL     1      36.386  -1.703  15.290  0.00  0.00    +0.000 A 
ATOM      3  C   UNL     1      36.627  -0.498  14.659  0.00  0.00    +0.000 A 
ATOM      4  C   UNL     1      37.558  -0.513  13.644  0.00  0.00    +0.000 A 
ATOM      5  C   UNL     1      38.222  -1.664  13.268  0.00  0.00    +0.000 A 
ATOM      6  N   UNL     1      39.177  -1.603  12.215  0.00  0.00    +0.000 N 
ATOM      7  C   UNL     1      39.862  -2.818  11.829  0.00  0.00    +0.000 C 
ATOM      8  N   UNL     1      37.927  -2.773  13.929  0.00  0.00    +0.000 NA
ENDROOT
BRANCH   1  16
ATOM      9  C   UNL     1      38.904  -3.888  16.784  0.00  0.00    +0.000 C 
ATOM     10  C   UNL     1      37.672  -4.669  16.500  0.00  0.00    +0.000 A 
ATOM     11  C   UNL     1      37.431  -5.881  17.122  0.00  0.00    +0.000 A 
ATOM     12  C   UNL     1      36.293  -6.618  16.867  0.00  0.00    +0.000 A 
ATOM     13  O   UNL     1      36.050  -7.841  17.498  0.00  0.00    +0.000 OA
ATOM     14  C   UNL     1      35.401  -6.090  15.958  0.00  0.00    +0.000 A 
ATOM     15  C   UNL     1      35.647  -4.880  15.340  0.00  0.00    +0.000 A 
ATOM     16  C   UNL     1      36.781  -4.139  15.590  0.00  0.00    +0.000 A 
ENDBRANCH   1  16
BRANCH   3  17
ATOM     17  C   UNL     1      35.967   0.736  15.005  0.00  0.00    +0.000 A 
ATOM     18  C   UNL     1      35.932   1.814  14.152  0.00  0.00    +0.000 A 
ATOM     19  C   UNL     1      35.290   2.973  14.536  0.00  0.00    +0.000 A 
ATOM     20  C   UNL     1      34.662   3.118  15.756  0.00  0.00    +0.000 A 
ATOM     21  C   UNL     1      34.712   2.014  16.595  0.00  0.00    +0.000 A 
ATOM     22  C   UNL     1      35.350   0.860  16.219  0.00  0.00    +0.000 A 
ENDBRANCH   3  17
BRANCH   6  23
ATOM     23  C   UNL     1      39.493  -0.389  11.519  0.00  0.00    +0.000 C 
BRANCH  23  24
ATOM     24  C   UNL     1      40.859   0.143  11.668  0.00  0.00    +0.000 C 
BRANCH  24  25
ATOM     25  C   UNL     1      41.087   0.882  12.908  0.00  0.00    +0.000 C 
ATOM     26  C   UNL     1      41.652   0.081  13.998  0.00  0.00    +0.000 C 
ATOM     27  C   UNL     1      40.128   1.913  13.301  0.00  0.00    +0.000 C 
ENDBRANCH  24  25
ENDBRANCH  23  24
ENDBRANCH   6  23
TORSDOF 5
ENDMDL
MODEL 10
REMARK VINA RESULT:      -7.1      2.804      6.748
REMARK  Name = 
REMARK  5 active torsions:
REMARK  status: ('A' for Active; 'I' for Inactive)
REMARK    1  A    between atoms: C_8  and  C_9
REMARK    2  A    between atoms: C_11  and  C_12
REMARK    3  A    between atoms: N_20  and  C_22
REMARK    4  A    between atoms: C_22  and  C_23
REMARK    5  A    between atoms: C_23  and  C_24
REMARK                            x       y       z     vdW  Elec       q    Type
REMARK                         _______ _______ _______ _____ _____    ______ ____
ROOT
ATOM      1  C   UNL     1      37.067   3.466  16.040  0.00  0.00    +0.000 A 
ATOM      2  C   UNL     1      38.031   3.918  16.912  0.00  0.00    +0.000 A 
ATOM      3  C   UNL     1      38.566   5.189  16.822  0.00  0.00    +0.000 A 
ATOM      4  C   UNL     1      38.082   5.986  15.808  0.00  0.00    +0.000 A 
ATOM      5  C   UNL     1      37.116   5.551  14.923  0.00  0.00    +0.000 A 
ATOM      6  N   UNL     1      36.669   6.429  13.896  0.00  0.00    +0.000 N 
ATOM      7  C   UNL     1      35.653   5.960  12.978  0.00  0.00    +0.000 C 
ATOM      8  N   UNL     1      36.661   4.318  15.086  0.00  0.00    +0.000 NA
ENDROOT
BRANCH   1  16
ATOM      9  C   UNL     1      38.240   1.329  14.613  0.00  0.00    +0.000 C 
ATOM     10  C   UNL     1      37.042   1.060  15.451  0.00  0.00    +0.000 A 
ATOM     11  C   UNL     1      36.498  -0.209  15.538  0.00  0.00    +0.000 A 
ATOM     12  C   UNL     1      35.385  -0.473  16.310  0.00  0.00    +0.000 A 
ATOM     13  O   UNL     1      34.838  -1.756  16.398  0.00  0.00    +0.000 OA
ATOM     14  C   UNL     1      34.837   0.590  16.994  0.00  0.00    +0.000 A 
ATOM     15  C   UNL     1      35.385   1.854  16.904  0.00  0.00    +0.000 A 
ATOM     16  C   UNL     1      36.495   2.125  16.134  0.00  0.00    +0.000 A 
ENDBRANCH   1  16
BRANCH   3  17
ATOM     17  C   UNL     1      39.575   5.701  17.715  0.00  0.00    +0.000 A 
ATOM     18  C   UNL     1      39.365   5.822  19.068  0.00  0.00    +0.000 A 
ATOM     19  C   UNL     1      40.364   6.323  19.876  0.00  0.00    +0.000 A 
ATOM     20  C   UNL     1      41.596   6.718  19.395  0.00  0.00    +0.000 A 
ATOM     21  C   UNL     1      41.780   6.584  18.026  0.00  0.00    +0.000 A 
ATOM     22  C   UNL     1      40.789   6.088  17.218  0.00  0.00    +0.000 A 
ENDBRANCH   3  17
BRANCH   6  23
ATOM     23  C   UNL     1      37.183   7.757  13.727  0.00  0.00    +0.000 C 
BRANCH  23  24
ATOM     24  C   UNL     1      38.206   7.963  12.687  0.00  0.00    +0.000 C 
BRANCH  24  25
ATOM     25  C   UNL     1      39.570   8.083  13.199  0.00  0.00    +0.000 C 
ATOM     26  C   UNL     1      40.199   9.383  12.950  0.00  0.00    +0.000 C 
ATOM     27  C   UNL     1      40.453   6.921  13.133  0.00  0.00    +0.000 C 
ENDBRANCH  24  25
ENDBRANCH  23  24
ENDBRANCH   6  23
TORSDOF 5
ENDMDL
