MODEL 1
REMARK VINA RESULT:      -7.1      0.000      0.000
REMARK  Name = 
REMARK  2 active torsions:
REMARK  status: ('A' for Active; 'I' for Inactive)
REMARK    1  A    between atoms: C_6  and  C_7
REMARK    2  A    between atoms: C_11  and  C_12
REMARK                            x       y       z     vdW  Elec       q    Type
REMARK                         _______ _______ _______ _____ _____    ______ ____
ROOT
ATOM      1  C   UNL     1      25.541  23.027  25.126  0.00  0.00    +0.000 C 
ATOM      2  C   UNL     1      26.673  23.271  24.183  0.00  0.00    +0.000 C 
ATOM      3  C   UNL     1      26.434  23.724  23.049  0.00  0.00    +0.000 C 
ATOM      4  C   UNL     1      27.554  24.026  21.958  0.00  0.00    +0.000 C 
ATOM      5  C   UNL     1      27.015  25.515  21.589  0.00  0.00    +0.000 C 
ATOM      6  C   UNL     1      28.637  24.561  23.054  0.00  0.00    +0.000 C 
ATOM      7  C   UNL     1      28.037  25.456  23.898  0.00  0.00    +0.000 C 
ATOM      8  O   UNL     1      27.522  25.269  25.118  0.00  0.00    +0.000 OA
ATOM      9  C   UNL     1      28.512  24.288  25.634  0.00  0.00    +0.000 C 
ATOM     10  C   UNL     1      28.023  22.888  24.839  0.00  0.00    +0.000 C 
ATOM     11  C   UNL     1      28.992  23.065  23.484  0.00  0.00    +0.000 C 
ATOM     12  C   UNL     1      30.379  23.410  24.238  0.00  0.00    +0.000 C 
ENDROOT
BRANCH   9  13
ATOM     13  C   UNL     1      27.788  23.984  26.981  0.00  0.00    +0.000 A 
ATOM     14  C   UNL     1      28.059  22.777  27.581  0.00  0.00    +0.000 A 
ATOM     15  C   UNL     1      27.437  22.440  28.803  0.00  0.00    +0.000 A 
ATOM     16  C   UNL     1      26.558  23.311  29.401  0.00  0.00    +0.000 A 
ATOM     17  O   UNL     1      25.911  23.055  30.592  0.00  0.00    +0.000 OA
ATOM     18  C   UNL     1      26.296  24.512  28.794  0.00  0.00    +0.000 A 
ATOM     19  C   UNL     1      26.926  24.798  27.603  0.00  0.00    +0.000 A 
ENDBRANCH   9  13
BRANCH   6  20
ATOM     20  C   UNL     1      29.754  25.018  22.169  0.00  0.00    +0.000 C 
ATOM     21  O   UNL     1      29.795  24.387  20.955  0.00  0.00    +0.000 OA
ENDBRANCH   6  20
TORSDOF 2
ENDMDL
MODEL 2
REMARK VINA RESULT:      -6.7      1.340      6.136
REMARK  Name = 
REMARK  2 active torsions:
REMARK  status: ('A' for Active; 'I' for Inactive)
REMARK    1  A    between atoms: C_6  and  C_7
REMARK    2  A    between atoms: C_11  and  C_12
REMARK                            x       y       z     vdW  Elec       q    Type
REMARK                         _______ _______ _______ _____ _____    ______ ____
ROOT
ATOM      1  C   UNL     1      29.749  22.382  25.753  0.00  0.00    +0.000 C 
ATOM      2  C   UNL     1      28.748  22.689  26.818  0.00  0.00    +0.000 C 
ATOM      3  C   UNL     1      29.081  22.588  28.013  0.00  0.00    +0.000 C 
ATOM      4  C   UNL     1      28.105  22.887  29.236  0.00  0.00    +0.000 C 
ATOM      5  C   UNL     1      29.155  23.828  30.045  0.00  0.00    +0.000 C 
ATOM      6  C   UNL     1      27.373  24.140  28.492  0.00  0.00    +0.000 C 
ATOM      7  C   UNL     1      28.317  24.976  27.958  0.00  0.00    +0.000 C 
ATOM      8  O   UNL     1      28.787  25.049  26.707  0.00  0.00    +0.000 OA
ATOM      9  C   UNL     1      27.525  24.765  25.975  0.00  0.00    +0.000 C 
ATOM     10  C   UNL     1      27.393  23.102  26.192  0.00  0.00    +0.000 C 
ATOM     11  C   UNL     1      26.494  23.144  27.605  0.00  0.00    +0.000 C 
ATOM     12  C   UNL     1      25.391  24.230  27.142  0.00  0.00    +0.000 C 
ENDROOT
BRANCH   9  13
ATOM     13  C   UNL     1      28.148  24.704  24.547  0.00  0.00    +0.000 A 
ATOM     14  C   UNL     1      27.517  23.909  23.620  0.00  0.00    +0.000 A 
ATOM     15  C   UNL     1      28.030  23.809  22.308  0.00  0.00    +0.000 A 
ATOM     16  C   UNL     1      29.160  24.503  21.948  0.00  0.00    +0.000 A 
ATOM     17  O   UNL     1      29.722  24.459  20.689  0.00  0.00    +0.000 OA
ATOM     18  C   UNL     1      29.781  25.294  22.880  0.00  0.00    +0.000 A 
ATOM     19  C   UNL     1      29.244  25.360  24.147  0.00  0.00    +0.000 A 
ENDBRANCH   9  13
BRANCH   6  20
ATOM     20  C   UNL     1      26.473  24.643  29.575  0.00  0.00    +0.000 C 
ATOM     21  O   UNL     1      25.863  23.652  30.296  0.00  0.00    +0.000 OA
ENDBRANCH   6  20
TORSDOF 2
ENDMDL
MODEL 3
REMARK VINA RESULT:      -6.6      2.681      3.283
REMARK  Name = 
REMARK  2 active torsions:
REMARK  status: ('A' for Active; 'I' for Inactive)
REMARK    1  A    between atoms: C_6  and  C_7
REMARK    2  A    between atoms: C_11  and  C_12
REMARK                            x       y       z     vdW  Elec       q    Type
REMARK                         _______ _______ _______ _____ _____    ______ ____
ROOT
ATOM      1  C   UNL     1      28.185  21.933  27.636  0.00  0.00    +0.000 C 
ATOM      2  C   UNL     1      28.612  22.428  26.293  0.00  0.00    +0.000 C 
ATOM      3  C   UNL     1      27.758  22.889  25.515  0.00  0.00    +0.000 C 
ATOM      4  C   UNL     1      28.089  23.445  24.060  0.00  0.00    +0.000 C 
ATOM      5  C   UNL     1      27.252  24.829  24.229  0.00  0.00    +0.000 C 
ATOM      6  C   UNL     1      29.508  24.109  24.514  0.00  0.00    +0.000 C 
ATOM      7  C   UNL     1      29.333  24.836  25.661  0.00  0.00    +0.000 C 
ATOM      8  O   UNL     1      29.563  24.494  26.934  0.00  0.00    +0.000 OA
ATOM      9  C   UNL     1      30.792  23.683  26.731  0.00  0.00    +0.000 C 
ATOM     10  C   UNL     1      30.141  22.261  26.110  0.00  0.00    +0.000 C 
ATOM     11  C   UNL     1      30.222  22.681  24.490  0.00  0.00    +0.000 C 
ATOM     12  C   UNL     1      31.741  23.232  24.473  0.00  0.00    +0.000 C 
ENDROOT
BRANCH   9  13
ATOM     13  C   UNL     1      30.929  23.183  28.201  0.00  0.00    +0.000 A 
ATOM     14  C   UNL     1      31.720  22.079  28.417  0.00  0.00    +0.000 A 
ATOM     15  C   UNL     1      31.887  21.574  29.726  0.00  0.00    +0.000 A 
ATOM     16  C   UNL     1      31.263  22.179  30.790  0.00  0.00    +0.000 A 
ATOM     17  O   UNL     1      31.375  21.747  32.095  0.00  0.00    +0.000 OA
ATOM     18  C   UNL     1      30.477  23.279  30.563  0.00  0.00    +0.000 A 
ATOM     19  C   UNL     1      30.344  23.736  29.270  0.00  0.00    +0.000 A 
ENDBRANCH   9  13
BRANCH   6  20
ATOM     20  C   UNL     1      29.924  24.807  23.257  0.00  0.00    +0.000 C 
ATOM     21  O   UNL     1      29.712  24.077  22.120  0.00  0.00    +0.000 OA
ENDBRANCH   6  20
TORSDOF 2
ENDMDL
MODEL 4
REMARK VINA RESULT:      -6.3      1.885      2.523
REMARK  Name = 
REMARK  2 active torsions:
REMARK  status: ('A' for Active; 'I' for Inactive)
REMARK    1  A    between atoms: C_6  and  C_7
REMARK    2  A    between atoms: C_11  and  C_12
REMARK                            x       y       z     vdW  Elec       q    Type
REMARK                         _______ _______ _______ _____ _____    ______ ____
ROOT
ATOM      1  C   UNL     1      26.311  23.463  26.205  0.00  0.00    +0.000 C 
ATOM      2  C   UNL     1      27.684  23.104  25.739  0.00  0.00    +0.000 C 
ATOM      3  C   UNL     1      27.963  23.207  24.531  0.00  0.00    +0.000 C 
ATOM      4  C   UNL     1      29.388  22.854  23.915  0.00  0.00    +0.000 C 
ATOM      5  C   UNL     1      29.530  24.226  23.054  0.00  0.00    +0.000 C 
ATOM      6  C   UNL     1      30.212  23.434  25.198  0.00  0.00    +0.000 C 
ATOM      7  C   UNL     1      29.736  24.673  25.531  0.00  0.00    +0.000 C 
ATOM      8  O   UNL     1      28.849  25.024  26.470  0.00  0.00    +0.000 OA
ATOM      9  C   UNL     1      29.241  24.054  27.526  0.00  0.00    +0.000 C 
ATOM     10  C   UNL     1      28.559  22.636  26.929  0.00  0.00    +0.000 C 
ATOM     11  C   UNL     1      29.885  22.120  26.044  0.00  0.00    +0.000 C 
ATOM     12  C   UNL     1      31.016  22.342  27.178  0.00  0.00    +0.000 C 
ENDROOT
BRANCH   9  13
ATOM     13  C   UNL     1      28.092  24.391  28.524  0.00  0.00    +0.000 A 
ATOM     14  C   UNL     1      27.685  23.390  29.374  0.00  0.00    +0.000 A 
ATOM     15  C   UNL     1      26.649  23.630  30.304  0.00  0.00    +0.000 A 
ATOM     16  C   UNL     1      26.041  24.860  30.365  0.00  0.00    +0.000 A 
ATOM     17  O   UNL     1      25.023  25.173  31.243  0.00  0.00    +0.000 OA
ATOM     18  C   UNL     1      26.454  25.851  29.514  0.00  0.00    +0.000 A 
ATOM     19  C   UNL     1      27.469  25.571  28.624  0.00  0.00    +0.000 A 
ENDBRANCH   9  13
BRANCH   6  20
ATOM     20  C   UNL     1      31.627  23.291  24.731  0.00  0.00    +0.000 C 
ATOM     21  O   UNL     1      32.375  24.429  24.868  0.00  0.00    +0.000 OA
ENDBRANCH   6  20
TORSDOF 2
ENDMDL
MODEL 5
REMARK VINA RESULT:      -6.3      2.915      5.162
REMARK  Name = 
REMARK  2 active torsions:
REMARK  status: ('A' for Active; 'I' for Inactive)
REMARK    1  A    between atoms: C_6  and  C_7
REMARK    2  A    between atoms: C_11  and  C_12
REMARK                            x       y       z     vdW  Elec       q    Type
REMARK                         _______ _______ _______ _____ _____    ______ ____
ROOT
ATOM      1  C   UNL     1      30.796  22.633  26.780  0.00  0.00    +0.000 C 
ATOM      2  C   UNL     1      29.654  22.735  25.823  0.00  0.00    +0.000 C 
ATOM      3  C   UNL     1      28.497  22.528  26.231  0.00  0.00    +0.000 C 
ATOM      4  C   UNL     1      27.202  22.606  25.309  0.00  0.00    +0.000 C 
ATOM      5  C   UNL     1      26.341  23.534  26.329  0.00  0.00    +0.000 C 
ATOM      6  C   UNL     1      27.758  23.870  24.441  0.00  0.00    +0.000 C 
ATOM      7  C   UNL     1      28.236  24.836  25.285  0.00  0.00    +0.000 C 
ATOM      8  O   UNL     1      29.492  25.087  25.674  0.00  0.00    +0.000 OA
ATOM      9  C   UNL     1      30.189  24.784  24.397  0.00  0.00    +0.000 C 
ATOM     10  C   UNL     1      30.161  23.102  24.406  0.00  0.00    +0.000 C 
ATOM     11  C   UNL     1      28.710  22.911  23.591  0.00  0.00    +0.000 C 
ATOM     12  C   UNL     1      28.988  23.947  22.382  0.00  0.00    +0.000 C 
ENDROOT
BRANCH   9  13
ATOM     13  C   UNL     1      31.643  24.935  24.939  0.00  0.00    +0.000 A 
ATOM     14  C   UNL     1      31.845  25.852  25.944  0.00  0.00    +0.000 A 
ATOM     15  C   UNL     1      33.139  26.038  26.480  0.00  0.00    +0.000 A 
ATOM     16  C   UNL     1      34.201  25.310  26.004  0.00  0.00    +0.000 A 
ATOM     17  O   UNL     1      35.492  25.434  26.473  0.00  0.00    +0.000 OA
ATOM     18  C   UNL     1      33.988  24.399  25.002  0.00  0.00    +0.000 A 
ATOM     19  C   UNL     1      32.710  24.251  24.510  0.00  0.00    +0.000 A 
ENDBRANCH   9  13
BRANCH   6  20
ATOM     20  C   UNL     1      26.580  24.173  23.569  0.00  0.00    +0.000 C 
ATOM     21  O   UNL     1      25.964  23.061  23.061  0.00  0.00    +0.000 OA
ENDBRANCH   6  20
TORSDOF 2
ENDMDL
MODEL 6
REMARK VINA RESULT:      -6.2      1.238      6.037
REMARK  Name = 
REMARK  2 active torsions:
REMARK  status: ('A' for Active; 'I' for Inactive)
REMARK    1  A    between atoms: C_6  and  C_7
REMARK    2  A    between atoms: C_11  and  C_12
REMARK                            x       y       z     vdW  Elec       q    Type
REMARK                         _______ _______ _______ _____ _____    ______ ____
ROOT
ATOM      1  C   UNL     1      27.903  26.532  25.654  0.00  0.00    +0.000 C 
ATOM      2  C   UNL     1      27.607  25.781  26.911  0.00  0.00    +0.000 C 
ATOM      3  C   UNL     1      26.743  26.218  27.693  0.00  0.00    +0.000 C 
ATOM      4  C   UNL     1      26.342  25.509  29.061  0.00  0.00    +0.000 C 
ATOM      5  C   UNL     1      24.737  25.582  28.808  0.00  0.00    +0.000 C 
ATOM      6  C   UNL     1      26.489  24.002  28.454  0.00  0.00    +0.000 C 
ATOM      7  C   UNL     1      25.835  23.922  27.254  0.00  0.00    +0.000 C 
ATOM      8  O   UNL     1      26.317  24.020  26.009  0.00  0.00    +0.000 OA
ATOM      9  C   UNL     1      27.615  23.325  26.213  0.00  0.00    +0.000 C 
ATOM     10  C   UNL     1      28.495  24.515  27.013  0.00  0.00    +0.000 C 
ATOM     11  C   UNL     1      28.079  24.072  28.574  0.00  0.00    +0.000 C 
ATOM     12  C   UNL     1      28.347  22.484  28.440  0.00  0.00    +0.000 C 
ENDROOT
BRANCH   9  13
ATOM     13  C   UNL     1      28.198  23.602  24.794  0.00  0.00    +0.000 A 
ATOM     14  C   UNL     1      27.311  23.626  23.745  0.00  0.00    +0.000 A 
ATOM     15  C   UNL     1      27.773  23.872  22.433  0.00  0.00    +0.000 A 
ATOM     16  C   UNL     1      29.109  24.087  22.195  0.00  0.00    +0.000 A 
ATOM     17  O   UNL     1      29.639  24.332  20.945  0.00  0.00    +0.000 OA
ATOM     18  C   UNL     1      29.986  24.060  23.249  0.00  0.00    +0.000 A 
ATOM     19  C   UNL     1      29.488  23.818  24.511  0.00  0.00    +0.000 A 
ENDBRANCH   9  13
BRANCH   6  20
ATOM     20  C   UNL     1      26.017  23.171  29.605  0.00  0.00    +0.000 C 
ATOM     21  O   UNL     1      26.139  23.787  30.822  0.00  0.00    +0.000 OA
ENDBRANCH   6  20
TORSDOF 2
ENDMDL
MODEL 7
REMARK VINA RESULT:      -6.2      1.829      3.401
REMARK  Name = 
REMARK  2 active torsions:
REMARK  status: ('A' for Active; 'I' for Inactive)
REMARK    1  A    between atoms: C_6  and  C_7
REMARK    2  A    between atoms: C_11  and  C_12
REMARK                            x       y       z     vdW  Elec       q    Type
REMARK                         _______ _______ _______ _____ _____    ______ ____
ROOT
ATOM      1  C   UNL     1      28.916  25.098  27.696  0.00  0.00    +0.000 C 
ATOM      2  C   UNL     1      28.346  25.052  26.317  0.00  0.00    +0.000 C 
ATOM      3  C   UNL     1      29.040  24.608  25.385  0.00  0.00    +0.000 C 
ATOM      4  C   UNL     1      28.544  24.508  23.875  0.00  0.00    +0.000 C 
ATOM      5  C   UNL     1      29.023  22.970  23.655  0.00  0.00    +0.000 C 
ATOM      6  C   UNL     1      27.019  24.100  24.285  0.00  0.00    +0.000 C 
ATOM      7  C   UNL     1      27.043  23.099  25.218  0.00  0.00    +0.000 C 
ATOM      8  O   UNL     1      26.937  23.169  26.550  0.00  0.00    +0.000 OA
ATOM      9  C   UNL     1      25.938  24.265  26.641  0.00  0.00    +0.000 C 
ATOM     10  C   UNL     1      26.898  25.606  26.305  0.00  0.00    +0.000 C 
ATOM     11  C   UNL     1      26.674  25.616  24.645  0.00  0.00    +0.000 C 
ATOM     12  C   UNL     1      25.066  25.451  24.631  0.00  0.00    +0.000 C 
ENDROOT
BRANCH   9  13
ATOM     13  C   UNL     1      25.967  24.415  28.192  0.00  0.00    +0.000 A 
ATOM     14  C   UNL     1      25.580  25.628  28.712  0.00  0.00    +0.000 A 
ATOM     15  C   UNL     1      25.583  25.830  30.110  0.00  0.00    +0.000 A 
ATOM     16  C   UNL     1      25.971  24.822  30.959  0.00  0.00    +0.000 A 
ATOM     17  O   UNL     1      26.001  24.941  32.333  0.00  0.00    +0.000 OA
ATOM     18  C   UNL     1      26.354  23.617  30.429  0.00  0.00    +0.000 A 
ATOM     19  C   UNL     1      26.335  23.466  29.060  0.00  0.00    +0.000 A 
ENDBRANCH   9  13
BRANCH   6  20
ATOM     20  C   UNL     1      26.411  23.839  22.942  0.00  0.00    +0.000 C 
ATOM     21  O   UNL     1      25.620  22.723  22.898  0.00  0.00    +0.000 OA
ENDBRANCH   6  20
TORSDOF 2
ENDMDL
MODEL 8
REMARK VINA RESULT:      -6.0     29.711     31.604
REMARK  Name = 
REMARK  2 active torsions:
REMARK  status: ('A' for Active; 'I' for Inactive)
REMARK    1  A    between atoms: C_6  and  C_7
REMARK    2  A    between atoms: C_11  and  C_12
REMARK                            x       y       z     vdW  Elec       q    Type
REMARK                         _______ _______ _______ _____ _____    ______ ____
ROOT
ATOM      1  C   UNL     1      35.490  -6.383  33.395  0.00  0.00    +0.000 C 
ATOM      2  C   UNL     1      35.204  -6.832  32.000  0.00  0.00    +0.000 C 
ATOM      3  C   UNL     1      35.446  -8.009  31.677  0.00  0.00    +0.000 C 
ATOM      4  C   UNL     1      35.185  -8.604  30.223  0.00  0.00    +0.000 C 
ATOM      5  C   UNL     1      34.415  -9.941  30.738  0.00  0.00    +0.000 C 
ATOM      6  C   UNL     1      33.810  -7.756  29.999  0.00  0.00    +0.000 C 
ATOM      7  C   UNL     1      33.008  -7.876  31.102  0.00  0.00    +0.000 C 
ATOM      8  O   UNL     1      32.855  -7.049  32.143  0.00  0.00    +0.000 OA
ATOM      9  C   UNL     1      32.963  -5.754  31.421  0.00  0.00    +0.000 C 
ATOM     10  C   UNL     1      34.622  -5.668  31.159  0.00  0.00    +0.000 C 
ATOM     11  C   UNL     1      34.641  -6.433  29.669  0.00  0.00    +0.000 C 
ATOM     12  C   UNL     1      33.428  -5.617  28.979  0.00  0.00    +0.000 C 
ENDROOT
BRANCH   9  13
ATOM     13  C   UNL     1      32.938  -4.837  32.682  0.00  0.00    +0.000 A 
ATOM     14  C   UNL     1      32.205  -5.272  33.761  0.00  0.00    +0.000 A 
ATOM     15  C   UNL     1      32.141  -4.489  34.934  0.00  0.00    +0.000 A 
ATOM     16  C   UNL     1      32.807  -3.290  35.008  0.00  0.00    +0.000 A 
ATOM     17  O   UNL     1      32.794  -2.468  36.116  0.00  0.00    +0.000 OA
ATOM     18  C   UNL     1      33.535  -2.865  33.926  0.00  0.00    +0.000 A 
ATOM     19  C   UNL     1      33.568  -3.663  32.803  0.00  0.00    +0.000 A 
ENDBRANCH   9  13
BRANCH   6  20
ATOM     20  C   UNL     1      33.340  -8.294  28.685  0.00  0.00    +0.000 C 
ATOM     21  O   UNL     1      32.018  -8.648  28.671  0.00  0.00    +0.000 OA
ENDBRANCH   6  20
TORSDOF 2
ENDMDL
MODEL 9
REMARK VINA RESULT:      -5.9     21.369     22.820
REMARK  Name = 
REMARK  2 active torsions:
REMARK  status: ('A' for Active; 'I' for Inactive)
REMARK    1  A    between atoms: C_6  and  C_7
REMARK    2  A    between atoms: C_11  and  C_12
REMARK                            x       y       z     vdW  Elec       q    Type
REMARK                         _______ _______ _______ _____ _____    ______ ____
ROOT
ATOM      1  C   UNL     1      25.344   4.175  18.999  0.00  0.00    +0.000 C 
ATOM      2  C   UNL     1      24.753   3.009  18.275  0.00  0.00    +0.000 C 
ATOM      3  C   UNL     1      23.597   2.642  18.553  0.00  0.00    +0.000 C 
ATOM      4  C   UNL     1      22.861   1.416  17.853  0.00  0.00    +0.000 C 
ATOM      5  C   UNL     1      21.478   2.217  17.552  0.00  0.00    +0.000 C 
ATOM      6  C   UNL     1      23.498   1.727  16.384  0.00  0.00    +0.000 C 
ATOM      7  C   UNL     1      23.359   3.056  16.091  0.00  0.00    +0.000 C 
ATOM      8  O   UNL     1      24.237   4.058  16.222  0.00  0.00    +0.000 OA
ATOM      9  C   UNL     1      25.474   3.325  15.847  0.00  0.00    +0.000 C 
ATOM     10  C   UNL     1      25.760   2.437  17.247  0.00  0.00    +0.000 C 
ATOM     11  C   UNL     1      24.890   1.073  16.813  0.00  0.00    +0.000 C 
ATOM     12  C   UNL     1      25.480   0.891  15.319  0.00  0.00    +0.000 C 
ENDROOT
BRANCH   9  13
ATOM     13  C   UNL     1      26.475   4.477  16.164  0.00  0.00    +0.000 A 
ATOM     14  C   UNL     1      27.774   4.120  16.443  0.00  0.00    +0.000 A 
ATOM     15  C   UNL     1      28.732   5.114  16.739  0.00  0.00    +0.000 A 
ATOM     16  C   UNL     1      28.377   6.442  16.751  0.00  0.00    +0.000 A 
ATOM     17  O   UNL     1      29.252   7.471  17.030  0.00  0.00    +0.000 OA
ATOM     18  C   UNL     1      27.080   6.786  16.471  0.00  0.00    +0.000 A 
ATOM     19  C   UNL     1      26.180   5.782  16.187  0.00  0.00    +0.000 A 
ENDBRANCH   9  13
BRANCH   6  20
ATOM     20  C   UNL     1      22.800   0.710  15.537  0.00  0.00    +0.000 C 
ATOM     21  O   UNL     1      22.240   1.224  14.399  0.00  0.00    +0.000 OA
ENDBRANCH   6  20
TORSDOF 2
ENDMDL
MODEL 10
REMARK VINA RESULT:      -5.9     20.355     21.657
REMARK  Name = 
REMARK  2 active torsions:
REMARK  status: ('A' for Active; 'I' for Inactive)
REMARK    1  A    between atoms: C_6  and  C_7
REMARK    2  A    between atoms: C_11  and  C_12
REMARK                            x       y       z     vdW  Elec       q    Type
REMARK                         _______ _______ _______ _____ _____    ______ ____
ROOT
ATOM      1  C   UNL     1      26.787   2.167  16.577  0.00  0.00    +0.000 C 
ATOM      2  C   UNL     1      27.497   3.481  16.593  0.00  0.00    +0.000 C 
ATOM      3  C   UNL     1      28.515   3.632  15.893  0.00  0.00    +0.000 C 
ATOM      4  C   UNL     1      29.356   4.983  15.827  0.00  0.00    +0.000 C 
ATOM      5  C   UNL     1      29.431   5.039  14.204  0.00  0.00    +0.000 C 
ATOM      6  C   UNL     1      28.038   5.940  15.917  0.00  0.00    +0.000 C 
ATOM      7  C   UNL     1      27.091   5.507  15.029  0.00  0.00    +0.000 C 
ATOM      8  O   UNL     1      26.022   4.726  15.230  0.00  0.00    +0.000 OA
ATOM      9  C   UNL     1      25.630   5.222  16.575  0.00  0.00    +0.000 C 
ATOM     10  C   UNL     1      26.785   4.475  17.544  0.00  0.00    +0.000 C 
ATOM     11  C   UNL     1      27.928   5.698  17.491  0.00  0.00    +0.000 C 
ATOM     12  C   UNL     1      26.946   6.943  17.804  0.00  0.00    +0.000 C 
ENDROOT
BRANCH   9  13
ATOM     13  C   UNL     1      24.493   4.187  16.830  0.00  0.00    +0.000 A 
ATOM     14  C   UNL     1      24.188   3.900  18.140  0.00  0.00    +0.000 A 
ATOM     15  C   UNL     1      23.167   2.971  18.441  0.00  0.00    +0.000 A 
ATOM     16  C   UNL     1      22.474   2.347  17.432  0.00  0.00    +0.000 A 
ATOM     17  O   UNL     1      21.467   1.429  17.644  0.00  0.00    +0.000 OA
ATOM     18  C   UNL     1      22.787   2.640  16.130  0.00  0.00    +0.000 A 
ATOM     19  C   UNL     1      23.789   3.554  15.885  0.00  0.00    +0.000 A 
ENDBRANCH   9  13
BRANCH   6  20
ATOM     20  C   UNL     1      28.644   7.297  15.742  0.00  0.00    +0.000 C 
ATOM     21  O   UNL     1      28.045   8.052  14.771  0.00  0.00    +0.000 OA
ENDBRANCH   6  20
TORSDOF 2
ENDMDL
