MODEL 1
REMARK VINA RESULT:      -8.4      0.000      0.000
REMARK  Name = 
REMARK  2 active torsions:
REMARK  status: ('A' for Active; 'I' for Inactive)
REMARK    1  A    between atoms: C_6  and  C_7
REMARK    2  A    between atoms: C_7  and  C_8
REMARK                            x       y       z     vdW  Elec       q    Type
REMARK                         _______ _______ _______ _____ _____    ______ ____
ROOT
ATOM      1  C   UNL     1      17.060  10.034  36.507  0.00  0.00    +0.000 C 
ATOM      2  C   UNL     1      17.155  11.648  36.956  0.00  0.00    +0.000 C 
ATOM      3  C   UNL     1      15.716  12.120  36.937  0.00  0.00    +0.000 C 
ATOM      4  C   UNL     1      15.357  12.311  35.496  0.00  0.00    +0.000 A 
ATOM      5  N   UNL     1      14.579  13.168  34.865  0.00  0.00    +0.000 NA
ATOM      6  C   UNL     1      14.629  12.873  33.533  0.00  0.00    +0.000 A 
ATOM      7  C   UNL     1      14.031  13.423  32.422  0.00  0.00    +0.000 A 
ATOM      8  F   UNL     1      13.208  14.476  32.607  0.00  0.00    +0.000 F 
ATOM      9  C   UNL     1      14.231  12.950  31.143  0.00  0.00    +0.000 A 
ATOM     10  C   UNL     1      15.068  11.878  30.960  0.00  0.00    +0.000 A 
ATOM     11  C   UNL     1      15.675  11.318  32.067  0.00  0.00    +0.000 A 
ATOM     12  C   UNL     1      15.474  11.791  33.348  0.00  0.00    +0.000 A 
ATOM     13  C   UNL     1      15.936  11.437  34.601  0.00  0.00    +0.000 A 
ATOM     14  C   UNL     1      16.833  10.381  34.963  0.00  0.00    +0.000 C 
ATOM     15  O   UNL     1      17.435   9.732  34.115  0.00  0.00    +0.000 OA
ENDROOT
BRANCH   1  16
ATOM     16  C   UNL     1      18.689   9.909  36.375  0.00  0.00    +0.000 C 
BRANCH  16  22
ATOM     17  C   UNL     1      21.435  10.767  37.614  0.00  0.00    +0.000 C 
ATOM     18  C   UNL     1      20.424   9.907  38.281  0.00  0.00    +0.000 A 
ATOM     19  N   UNL     1      20.442   9.323  39.483  0.00  0.00    +0.000 NA
ATOM     20  C   UNL     1      19.319   8.639  39.672  0.00  0.00    +0.000 A 
ATOM     21  N   UNL     1      18.580   8.790  38.574  0.00  0.00    +0.000 NA
ATOM     22  C   UNL     1      19.223   9.563  37.691  0.00  0.00    +0.000 A 
ENDBRANCH  16  22
ENDBRANCH   1  16
TORSDOF 2
ENDMDL
MODEL 2
REMARK VINA RESULT:      -7.6      2.321      3.272
REMARK  Name = 
REMARK  2 active torsions:
REMARK  status: ('A' for Active; 'I' for Inactive)
REMARK    1  A    between atoms: C_6  and  C_7
REMARK    2  A    between atoms: C_7  and  C_8
REMARK                            x       y       z     vdW  Elec       q    Type
REMARK                         _______ _______ _______ _____ _____    ______ ____
ROOT
ATOM      1  C   UNL     1      17.824  10.638  37.663  0.00  0.00    +0.000 C 
ATOM      2  C   UNL     1      17.811   9.178  36.835  0.00  0.00    +0.000 C 
ATOM      3  C   UNL     1      18.546   9.481  35.545  0.00  0.00    +0.000 C 
ATOM      4  C   UNL     1      17.583  10.234  34.682  0.00  0.00    +0.000 A 
ATOM      5  N   UNL     1      17.375  10.271  33.380  0.00  0.00    +0.000 NA
ATOM      6  C   UNL     1      16.353  11.145  33.148  0.00  0.00    +0.000 A 
ATOM      7  C   UNL     1      15.720  11.573  32.002  0.00  0.00    +0.000 A 
ATOM      8  F   UNL     1      16.143  11.069  30.825  0.00  0.00    +0.000 F 
ATOM      9  C   UNL     1      14.686  12.484  32.004  0.00  0.00    +0.000 A 
ATOM     10  C   UNL     1      14.259  12.994  33.205  0.00  0.00    +0.000 A 
ATOM     11  C   UNL     1      14.885  12.573  34.361  0.00  0.00    +0.000 A 
ATOM     12  C   UNL     1      15.921  11.660  34.359  0.00  0.00    +0.000 A 
ATOM     13  C   UNL     1      16.708  11.077  35.334  0.00  0.00    +0.000 A 
ATOM     14  C   UNL     1      16.672  11.270  36.752  0.00  0.00    +0.000 C 
ATOM     15  O   UNL     1      15.777  11.914  37.289  0.00  0.00    +0.000 OA
ENDROOT
BRANCH   1  16
ATOM     16  C   UNL     1      16.793  10.073  38.804  0.00  0.00    +0.000 C 
BRANCH  16  22
ATOM     17  C   UNL     1      15.800   8.624  41.398  0.00  0.00    +0.000 C 
ATOM     18  C   UNL     1      17.190   9.089  41.153  0.00  0.00    +0.000 A 
ATOM     19  N   UNL     1      18.276   9.015  41.928  0.00  0.00    +0.000 NA
ATOM     20  C   UNL     1      19.315   9.562  41.306  0.00  0.00    +0.000 A 
ATOM     21  N   UNL     1      18.881   9.989  40.121  0.00  0.00    +0.000 NA
ATOM     22  C   UNL     1      17.577   9.718  39.986  0.00  0.00    +0.000 A 
ENDBRANCH  16  22
ENDBRANCH   1  16
TORSDOF 2
ENDMDL
MODEL 3
REMARK VINA RESULT:      -7.1     18.712     19.703
REMARK  Name = 
REMARK  2 active torsions:
REMARK  status: ('A' for Active; 'I' for Inactive)
REMARK    1  A    between atoms: C_6  and  C_7
REMARK    2  A    between atoms: C_7  and  C_8
REMARK                            x       y       z     vdW  Elec       q    Type
REMARK                         _______ _______ _______ _____ _____    ______ ____
ROOT
ATOM      1  C   UNL     1      30.587  22.020  27.430  0.00  0.00    +0.000 C 
ATOM      2  C   UNL     1      29.355  22.880  28.178  0.00  0.00    +0.000 C 
ATOM      3  C   UNL     1      28.093  22.150  27.762  0.00  0.00    +0.000 C 
ATOM      4  C   UNL     1      27.822  22.558  26.347  0.00  0.00    +0.000 A 
ATOM      5  N   UNL     1      26.713  22.758  25.662  0.00  0.00    +0.000 NA
ATOM      6  C   UNL     1      27.067  23.123  24.396  0.00  0.00    +0.000 A 
ATOM      7  C   UNL     1      26.343  23.450  23.271  0.00  0.00    +0.000 A 
ATOM      8  F   UNL     1      24.998  23.426  23.361  0.00  0.00    +0.000 F 
ATOM      9  C   UNL     1      26.926  23.795  22.070  0.00  0.00    +0.000 A 
ATOM     10  C   UNL     1      28.295  23.817  21.985  0.00  0.00    +0.000 A 
ATOM     11  C   UNL     1      29.033  23.492  23.106  0.00  0.00    +0.000 A 
ATOM     12  C   UNL     1      28.449  23.146  24.308  0.00  0.00    +0.000 A 
ATOM     13  C   UNL     1      28.926  22.785  25.554  0.00  0.00    +0.000 A 
ATOM     14  C   UNL     1      30.282  22.653  25.994  0.00  0.00    +0.000 C 
ATOM     15  O   UNL     1      31.222  23.014  25.294  0.00  0.00    +0.000 OA
ENDROOT
BRANCH   1  16
ATOM     16  C   UNL     1      31.705  23.148  27.836  0.00  0.00    +0.000 C 
BRANCH  16  22
ATOM     17  C   UNL     1      34.647  23.965  28.535  0.00  0.00    +0.000 C 
ATOM     18  C   UNL     1      33.872  22.891  29.207  0.00  0.00    +0.000 A 
ATOM     19  N   UNL     1      34.219  22.065  30.199  0.00  0.00    +0.000 NA
ATOM     20  C   UNL     1      33.207  21.255  30.490  0.00  0.00    +0.000 A 
ATOM     21  N   UNL     1      32.204  21.573  29.671  0.00  0.00    +0.000 NA
ATOM     22  C   UNL     1      32.572  22.575  28.864  0.00  0.00    +0.000 A 
ENDBRANCH  16  22
ENDBRANCH   1  16
TORSDOF 2
ENDMDL
MODEL 4
REMARK VINA RESULT:      -6.8     18.586     20.642
REMARK  Name = 
REMARK  2 active torsions:
REMARK  status: ('A' for Active; 'I' for Inactive)
REMARK    1  A    between atoms: C_6  and  C_7
REMARK    2  A    between atoms: C_7  and  C_8
REMARK                            x       y       z     vdW  Elec       q    Type
REMARK                         _______ _______ _______ _____ _____    ______ ____
ROOT
ATOM      1  C   UNL     1      29.088  23.742  25.906  0.00  0.00    +0.000 C 
ATOM      2  C   UNL     1      27.911  22.825  26.675  0.00  0.00    +0.000 C 
ATOM      3  C   UNL     1      27.812  23.439  28.057  0.00  0.00    +0.000 C 
ATOM      4  C   UNL     1      29.006  22.951  28.818  0.00  0.00    +0.000 A 
ATOM      5  N   UNL     1      29.203  22.638  30.083  0.00  0.00    +0.000 NA
ATOM      6  C   UNL     1      30.504  22.245  30.216  0.00  0.00    +0.000 A 
ATOM      7  C   UNL     1      31.255  21.816  31.287  0.00  0.00    +0.000 A 
ATOM      8  F   UNL     1      30.650  21.742  32.490  0.00  0.00    +0.000 F 
ATOM      9  C   UNL     1      32.584  21.464  31.186  0.00  0.00    +0.000 A 
ATOM     10  C   UNL     1      33.195  21.541  29.960  0.00  0.00    +0.000 A 
ATOM     11  C   UNL     1      32.452  21.970  28.877  0.00  0.00    +0.000 A 
ATOM     12  C   UNL     1      31.122  22.323  28.978  0.00  0.00    +0.000 A 
ATOM     13  C   UNL     1      30.163  22.773  28.091  0.00  0.00    +0.000 A 
ATOM     14  C   UNL     1      30.286  23.026  26.687  0.00  0.00    +0.000 C 
ATOM     15  O   UNL     1      31.293  22.707  26.063  0.00  0.00    +0.000 OA
ENDROOT
BRANCH   1  16
ATOM     16  C   UNL     1      29.137  22.721  24.626  0.00  0.00    +0.000 C 
BRANCH  16  22
ATOM     17  C   UNL     1      26.320  23.388  23.429  0.00  0.00    +0.000 C 
ATOM     18  C   UNL     1      27.621  23.809  22.848  0.00  0.00    +0.000 A 
ATOM     19  N   UNL     1      27.888  24.518  21.747  0.00  0.00    +0.000 NA
ATOM     20  C   UNL     1      29.202  24.660  21.606  0.00  0.00    +0.000 A 
ATOM     21  N   UNL     1      29.775  24.031  22.632  0.00  0.00    +0.000 NA
ATOM     22  C   UNL     1      28.838  23.493  23.421  0.00  0.00    +0.000 A 
ENDBRANCH  16  22
ENDBRANCH   1  16
TORSDOF 2
ENDMDL
MODEL 5
REMARK VINA RESULT:      -6.8      2.888      4.335
REMARK  Name = 
REMARK  2 active torsions:
REMARK  status: ('A' for Active; 'I' for Inactive)
REMARK    1  A    between atoms: C_6  and  C_7
REMARK    2  A    between atoms: C_7  and  C_8
REMARK                            x       y       z     vdW  Elec       q    Type
REMARK                         _______ _______ _______ _____ _____    ______ ____
ROOT
ATOM      1  C   UNL     1      18.647   9.643  39.407  0.00  0.00    +0.000 C 
ATOM      2  C   UNL     1      18.889   9.189  37.809  0.00  0.00    +0.000 C 
ATOM      3  C   UNL     1      18.911  10.503  37.054  0.00  0.00    +0.000 C 
ATOM      4  C   UNL     1      17.485  10.948  36.946  0.00  0.00    +0.000 A 
ATOM      5  N   UNL     1      16.810  11.596  36.018  0.00  0.00    +0.000 NA
ATOM      6  C   UNL     1      15.524  11.727  36.456  0.00  0.00    +0.000 A 
ATOM      7  C   UNL     1      14.397  12.304  35.914  0.00  0.00    +0.000 A 
ATOM      8  F   UNL     1      14.509  12.881  34.700  0.00  0.00    +0.000 F 
ATOM      9  C   UNL     1      13.174  12.319  36.550  0.00  0.00    +0.000 A 
ATOM     10  C   UNL     1      13.066  11.731  37.785  0.00  0.00    +0.000 A 
ATOM     11  C   UNL     1      14.189  11.148  38.339  0.00  0.00    +0.000 A 
ATOM     12  C   UNL     1      15.413  11.133  37.702  0.00  0.00    +0.000 A 
ATOM     13  C   UNL     1      16.666  10.637  38.010  0.00  0.00    +0.000 A 
ATOM     14  C   UNL     1      17.092   9.937  39.185  0.00  0.00    +0.000 C 
ATOM     15  O   UNL     1      16.289   9.556  40.030  0.00  0.00    +0.000 OA
ENDROOT
BRANCH   1  16
ATOM     16  C   UNL     1      18.420   8.090  39.879  0.00  0.00    +0.000 C 
BRANCH  16  22
ATOM     17  C   UNL     1      19.309   5.105  40.214  0.00  0.00    +0.000 C 
ATOM     18  C   UNL     1      20.126   6.290  40.581  0.00  0.00    +0.000 A 
ATOM     19  N   UNL     1      21.350   6.366  41.113  0.00  0.00    +0.000 NA
ATOM     20  C   UNL     1      21.695   7.638  41.276  0.00  0.00    +0.000 A 
ATOM     21  N   UNL     1      20.676   8.379  40.842  0.00  0.00    +0.000 NA
ATOM     22  C   UNL     1      19.689   7.588  40.406  0.00  0.00    +0.000 A 
ENDBRANCH  16  22
ENDBRANCH   1  16
TORSDOF 2
ENDMDL
MODEL 6
REMARK VINA RESULT:      -6.7      3.728      7.920
REMARK  Name = 
REMARK  2 active torsions:
REMARK  status: ('A' for Active; 'I' for Inactive)
REMARK    1  A    between atoms: C_6  and  C_7
REMARK    2  A    between atoms: C_7  and  C_8
REMARK                            x       y       z     vdW  Elec       q    Type
REMARK                         _______ _______ _______ _____ _____    ______ ____
ROOT
ATOM      1  C   UNL     1      17.562  10.290  36.654  0.00  0.00    +0.000 C 
ATOM      2  C   UNL     1      19.068  10.819  37.173  0.00  0.00    +0.000 C 
ATOM      3  C   UNL     1      19.712   9.579  37.758  0.00  0.00    +0.000 C 
ATOM      4  C   UNL     1      19.077   9.370  39.097  0.00  0.00    +0.000 A 
ATOM      5  N   UNL     1      19.525   8.906  40.247  0.00  0.00    +0.000 NA
ATOM      6  C   UNL     1      18.494   8.942  41.140  0.00  0.00    +0.000 A 
ATOM      7  C   UNL     1      18.382   8.589  42.466  0.00  0.00    +0.000 A 
ATOM      8  F   UNL     1      19.477   8.094  43.080  0.00  0.00    +0.000 F 
ATOM      9  C   UNL     1      17.214   8.715  43.187  0.00  0.00    +0.000 A 
ATOM     10  C   UNL     1      16.103   9.218  42.558  0.00  0.00    +0.000 A 
ATOM     11  C   UNL     1      16.202   9.577  41.228  0.00  0.00    +0.000 A 
ATOM     12  C   UNL     1      17.372   9.451  40.507  0.00  0.00    +0.000 A 
ATOM     13  C   UNL     1      17.749   9.722  39.205  0.00  0.00    +0.000 A 
ATOM     14  C   UNL     1      16.962  10.257  38.135  0.00  0.00    +0.000 C 
ATOM     15  O   UNL     1      15.831  10.693  38.326  0.00  0.00    +0.000 OA
ENDROOT
BRANCH   1  16
ATOM     16  C   UNL     1      17.062  11.819  36.343  0.00  0.00    +0.000 C 
BRANCH  16  22
ATOM     17  C   UNL     1      14.143  12.717  35.649  0.00  0.00    +0.000 C 
ATOM     18  C   UNL     1      15.137  12.202  34.673  0.00  0.00    +0.000 A 
ATOM     19  N   UNL     1      15.033  12.002  33.355  0.00  0.00    +0.000 NA
ATOM     20  C   UNL     1      16.177  11.524  32.877  0.00  0.00    +0.000 A 
ATOM     21  N   UNL     1      17.017  11.418  33.906  0.00  0.00    +0.000 NA
ATOM     22  C   UNL     1      16.417  11.825  35.031  0.00  0.00    +0.000 A 
ENDBRANCH  16  22
ENDBRANCH   1  16
TORSDOF 2
ENDMDL
MODEL 7
REMARK VINA RESULT:      -6.7     19.020     20.125
REMARK  Name = 
REMARK  2 active torsions:
REMARK  status: ('A' for Active; 'I' for Inactive)
REMARK    1  A    between atoms: C_6  and  C_7
REMARK    2  A    between atoms: C_7  and  C_8
REMARK                            x       y       z     vdW  Elec       q    Type
REMARK                         _______ _______ _______ _____ _____    ______ ____
ROOT
ATOM      1  C   UNL     1      27.810  23.877  27.060  0.00  0.00    +0.000 C 
ATOM      2  C   UNL     1      27.916  22.508  26.095  0.00  0.00    +0.000 C 
ATOM      3  C   UNL     1      29.223  22.685  25.348  0.00  0.00    +0.000 C 
ATOM      4  C   UNL     1      28.957  23.694  24.274  0.00  0.00    +0.000 A 
ATOM      5  N   UNL     1      29.411  23.845  23.046  0.00  0.00    +0.000 NA
ATOM      6  C   UNL     1      28.814  24.953  22.516  0.00  0.00    +0.000 A 
ATOM      7  C   UNL     1      28.905  25.579  21.294  0.00  0.00    +0.000 A 
ATOM      8  F   UNL     1      29.735  25.046  20.374  0.00  0.00    +0.000 F 
ATOM      9  C   UNL     1      28.192  26.714  20.970  0.00  0.00    +0.000 A 
ATOM     10  C   UNL     1      27.349  27.253  21.910  0.00  0.00    +0.000 A 
ATOM     11  C   UNL     1      27.249  26.634  23.140  0.00  0.00    +0.000 A 
ATOM     12  C   UNL     1      27.962  25.497  23.463  0.00  0.00    +0.000 A 
ATOM     13  C   UNL     1      28.056  24.691  24.582  0.00  0.00    +0.000 A 
ATOM     14  C   UNL     1      27.382  24.816  25.839  0.00  0.00    +0.000 C 
ATOM     15  O   UNL     1      26.481  25.631  26.006  0.00  0.00    +0.000 OA
ENDROOT
BRANCH   1  16
ATOM     16  C   UNL     1      26.271  23.524  27.500  0.00  0.00    +0.000 C 
BRANCH  16  22
ATOM     17  C   UNL     1      26.812  21.777  30.043  0.00  0.00    +0.000 C 
ATOM     18  C   UNL     1      26.318  23.178  30.053  0.00  0.00    +0.000 A 
ATOM     19  N   UNL     1      26.000  23.976  31.077  0.00  0.00    +0.000 NA
ATOM     20  C   UNL     1      25.599  25.159  30.624  0.00  0.00    +0.000 A 
ATOM     21  N   UNL     1      25.665  25.110  29.294  0.00  0.00    +0.000 NA
ATOM     22  C   UNL     1      26.102  23.908  28.900  0.00  0.00    +0.000 A 
ENDBRANCH  16  22
ENDBRANCH   1  16
TORSDOF 2
ENDMDL
MODEL 8
REMARK VINA RESULT:      -6.6     17.184     18.088
REMARK  Name = 
REMARK  2 active torsions:
REMARK  status: ('A' for Active; 'I' for Inactive)
REMARK    1  A    between atoms: C_6  and  C_7
REMARK    2  A    between atoms: C_7  and  C_8
REMARK                            x       y       z     vdW  Elec       q    Type
REMARK                         _______ _______ _______ _____ _____    ______ ____
ROOT
ATOM      1  C   UNL     1      28.513  22.424  29.692  0.00  0.00    +0.000 C 
ATOM      2  C   UNL     1      27.608  23.828  29.851  0.00  0.00    +0.000 C 
ATOM      3  C   UNL     1      26.267  23.472  29.243  0.00  0.00    +0.000 C 
ATOM      4  C   UNL     1      26.459  23.499  27.759  0.00  0.00    +0.000 A 
ATOM      5  N   UNL     1      25.678  23.840  26.753  0.00  0.00    +0.000 NA
ATOM      6  C   UNL     1      26.386  23.665  25.599  0.00  0.00    +0.000 A 
ATOM      7  C   UNL     1      26.084  23.858  24.270  0.00  0.00    +0.000 A 
ATOM      8  F   UNL     1      24.852  24.313  23.964  0.00  0.00    +0.000 F 
ATOM      9  C   UNL     1      26.976  23.610  23.248  0.00  0.00    +0.000 A 
ATOM     10  C   UNL     1      28.229  23.147  23.565  0.00  0.00    +0.000 A 
ATOM     11  C   UNL     1      28.543  22.949  24.895  0.00  0.00    +0.000 A 
ATOM     12  C   UNL     1      27.650  23.199  25.918  0.00  0.00    +0.000 A 
ATOM     13  C   UNL     1      27.692  23.094  27.295  0.00  0.00    +0.000 A 
ATOM     14  C   UNL     1      28.770  22.657  28.131  0.00  0.00    +0.000 C 
ATOM     15  O   UNL     1      29.891  22.453  27.678  0.00  0.00    +0.000 OA
ENDROOT
BRANCH   1  16
ATOM     16  C   UNL     1      29.888  23.180  30.165  0.00  0.00    +0.000 C 
BRANCH  16  22
ATOM     17  C   UNL     1      32.489  21.488  29.741  0.00  0.00    +0.000 C 
ATOM     18  C   UNL     1      31.703  21.552  30.999  0.00  0.00    +0.000 A 
ATOM     19  N   UNL     1      31.895  20.941  32.172  0.00  0.00    +0.000 NA
ATOM     20  C   UNL     1      30.941  21.290  33.028  0.00  0.00    +0.000 A 
ATOM     21  N   UNL     1      30.131  22.133  32.388  0.00  0.00    +0.000 NA
ATOM     22  C   UNL     1      30.564  22.322  31.136  0.00  0.00    +0.000 A 
ENDBRANCH  16  22
ENDBRANCH   1  16
TORSDOF 2
ENDMDL
MODEL 9
REMARK VINA RESULT:      -6.5      3.545      5.607
REMARK  Name = 
REMARK  2 active torsions:
REMARK  status: ('A' for Active; 'I' for Inactive)
REMARK    1  A    between atoms: C_6  and  C_7
REMARK    2  A    between atoms: C_7  and  C_8
REMARK                            x       y       z     vdW  Elec       q    Type
REMARK                         _______ _______ _______ _____ _____    ______ ____
ROOT
ATOM      1  C   UNL     1      17.872   8.740  41.099  0.00  0.00    +0.000 C 
ATOM      2  C   UNL     1      18.557   7.969  39.775  0.00  0.00    +0.000 C 
ATOM      3  C   UNL     1      19.288   9.076  39.043  0.00  0.00    +0.000 C 
ATOM      4  C   UNL     1      18.239   9.864  38.322  0.00  0.00    +0.000 A 
ATOM      5  N   UNL     1      18.222  10.500  37.167  0.00  0.00    +0.000 NA
ATOM      6  C   UNL     1      16.981  11.048  37.013  0.00  0.00    +0.000 A 
ATOM      7  C   UNL     1      16.402  11.806  36.021  0.00  0.00    +0.000 A 
ATOM      8  F   UNL     1      17.153  12.113  34.944  0.00  0.00    +0.000 F 
ATOM      9  C   UNL     1      15.102  12.262  36.078  0.00  0.00    +0.000 A 
ATOM     10  C   UNL     1      14.341  11.948  37.177  0.00  0.00    +0.000 A 
ATOM     11  C   UNL     1      14.911  11.188  38.179  0.00  0.00    +0.000 A 
ATOM     12  C   UNL     1      16.213  10.732  38.121  0.00  0.00    +0.000 A 
ATOM     13  C   UNL     1      17.019   9.977  38.952  0.00  0.00    +0.000 A 
ATOM     14  C   UNL     1      16.707   9.402  40.226  0.00  0.00    +0.000 C 
ATOM     15  O   UNL     1      15.564   9.405  40.669  0.00  0.00    +0.000 OA
ENDROOT
BRANCH   1  16
ATOM     16  C   UNL     1      16.998   7.413  41.499  0.00  0.00    +0.000 C 
BRANCH  16  22
ATOM     17  C   UNL     1      18.498   4.666  41.630  0.00  0.00    +0.000 C 
ATOM     18  C   UNL     1      18.292   5.586  42.777  0.00  0.00    +0.000 A 
ATOM     19  N   UNL     1      18.663   5.472  44.056  0.00  0.00    +0.000 NA
ATOM     20  C   UNL     1      18.267   6.539  44.741  0.00  0.00    +0.000 A 
ATOM     21  N   UNL     1      17.635   7.341  43.884  0.00  0.00    +0.000 NA
ATOM     22  C   UNL     1      17.628   6.792  42.664  0.00  0.00    +0.000 A 
ENDBRANCH  16  22
ENDBRANCH   1  16
TORSDOF 2
ENDMDL
MODEL 10
REMARK VINA RESULT:      -6.2     20.540     22.033
REMARK  Name = 
REMARK  2 active torsions:
REMARK  status: ('A' for Active; 'I' for Inactive)
REMARK    1  A    between atoms: C_6  and  C_7
REMARK    2  A    between atoms: C_7  and  C_8
REMARK                            x       y       z     vdW  Elec       q    Type
REMARK                         _______ _______ _______ _____ _____    ______ ____
ROOT
ATOM      1  C   UNL     1      26.041   4.536  16.957  0.00  0.00    +0.000 C 
ATOM      2  C   UNL     1      25.037   4.819  18.272  0.00  0.00    +0.000 C 
ATOM      3  C   UNL     1      24.633   3.432  18.730  0.00  0.00    +0.000 C 
ATOM      4  C   UNL     1      23.598   2.956  17.759  0.00  0.00    +0.000 A 
ATOM      5  N   UNL     1      22.524   2.201  17.883  0.00  0.00    +0.000 NA
ATOM      6  C   UNL     1      21.946   2.096  16.650  0.00  0.00    +0.000 A 
ATOM      7  C   UNL     1      20.825   1.446  16.187  0.00  0.00    +0.000 A 
ATOM      8  F   UNL     1      20.093   0.744  17.075  0.00  0.00    +0.000 F 
ATOM      9  C   UNL     1      20.422   1.479  14.869  0.00  0.00    +0.000 A 
ATOM     10  C   UNL     1      21.170   2.195  13.968  0.00  0.00    +0.000 A 
ATOM     11  C   UNL     1      22.297   2.852  14.421  0.00  0.00    +0.000 A 
ATOM     12  C   UNL     1      22.701   2.819  15.741  0.00  0.00    +0.000 A 
ATOM     13  C   UNL     1      23.752   3.365  16.453  0.00  0.00    +0.000 A 
ATOM     14  C   UNL     1      24.821   4.194  15.982  0.00  0.00    +0.000 C 
ATOM     15  O   UNL     1      24.826   4.650  14.844  0.00  0.00    +0.000 OA
ENDROOT
BRANCH   1  16
ATOM     16  C   UNL     1      26.080   6.127  16.565  0.00  0.00    +0.000 C 
BRANCH  16  22
ATOM     17  C   UNL     1      27.925   7.166  18.873  0.00  0.00    +0.000 C 
ATOM     18  C   UNL     1      28.334   7.005  17.454  0.00  0.00    +0.000 A 
ATOM     19  N   UNL     1      29.504   7.254  16.856  0.00  0.00    +0.000 NA
ATOM     20  C   UNL     1      29.423   6.964  15.563  0.00  0.00    +0.000 A 
ATOM     21  N   UNL     1      28.186   6.525  15.336  0.00  0.00    +0.000 NA
ATOM     22  C   UNL     1      27.481   6.535  16.474  0.00  0.00    +0.000 A 
ENDBRANCH  16  22
ENDBRANCH   1  16
TORSDOF 2
ENDMDL
