MODEL 1
REMARK VINA RESULT:      -6.0      0.000      0.000
REMARK  Name = 
REMARK  4 active torsions:
REMARK  status: ('A' for Active; 'I' for Inactive)
REMARK    1  A    between atoms: C_2  and  N_3
REMARK    2  A    between atoms: C_2  and  C_12
REMARK    3  A    between atoms: N_3  and  N_4
REMARK    4  A    between atoms: C_5  and  C_7
REMARK                            x       y       z     vdW  Elec       q    Type
REMARK                         _______ _______ _______ _____ _____    ______ ____
ROOT
ATOM      1  C   UNL     1      32.751   5.094  33.784  0.00  0.00    +0.000 C 
ATOM      2  C   UNL     1      33.710   4.234  34.179  0.00  0.00    +0.000 C 
ENDROOT
BRANCH   2   3
ATOM      3  C   UNL     1      34.600   4.629  35.260  0.00  0.00    +0.000 A 
ATOM      4  C   UNL     1      35.499   5.695  35.195  0.00  0.00    +0.000 A 
ATOM      5  C   UNL     1      36.160   5.759  36.401  0.00  0.00    +0.000 A 
ATOM      6  C   UNL     1      37.206   6.743  36.773  0.00  0.00    +0.000 C 
ATOM      7  O   UNL     1      35.714   4.807  37.166  0.00  0.00    +0.000 OA
ATOM      8  C   UNL     1      34.782   4.113  36.517  0.00  0.00    +0.000 A 
ATOM      9  C   UNL     1      34.030   2.941  37.056  0.00  0.00    +0.000 C 
ENDBRANCH   2   3
BRANCH   2  10
ATOM     10  N   UNL     1      33.746   3.019  33.484  0.00  0.00    +0.000 NA
BRANCH  10  11
ATOM     11  N   UNL     1      33.326   1.779  33.955  0.00  0.00    +0.000 NA
ATOM     12  C   UNL     1      33.773   0.590  33.352  0.00  0.00    +0.000 C 
ATOM     13  O   UNL     1      34.556   0.604  32.382  0.00  0.00    +0.000 OA
BRANCH  12  14
ATOM     14  C   UNL     1      33.332  -0.742  33.846  0.00  0.00    +0.000 A 
ATOM     15  C   UNL     1      33.679  -1.963  33.350  0.00  0.00    +0.000 A 
ATOM     16  C   UNL     1      33.157  -3.040  33.957  0.00  0.00    +0.000 A 
ATOM     17  C   UNL     1      32.329  -2.838  35.013  0.00  0.00    +0.000 A 
ATOM     18  S   UNL     1      32.295  -1.136  35.136  0.00  0.00    +0.000 S 
ENDBRANCH  12  14
ENDBRANCH  10  11
ENDBRANCH   2  10
TORSDOF 4
ENDMDL
MODEL 2
REMARK VINA RESULT:      -5.8     18.855     20.409
REMARK  Name = 
REMARK  4 active torsions:
REMARK  status: ('A' for Active; 'I' for Inactive)
REMARK    1  A    between atoms: C_2  and  N_3
REMARK    2  A    between atoms: C_2  and  C_12
REMARK    3  A    between atoms: N_3  and  N_4
REMARK    4  A    between atoms: C_5  and  C_7
REMARK                            x       y       z     vdW  Elec       q    Type
REMARK                         _______ _______ _______ _____ _____    ______ ____
ROOT
ATOM      1  C   UNL     1      17.429  12.556  36.700  0.00  0.00    +0.000 C 
ATOM      2  C   UNL     1      16.805  11.489  36.163  0.00  0.00    +0.000 C 
ENDROOT
BRANCH   2   3
ATOM      3  C   UNL     1      16.159  11.637  34.868  0.00  0.00    +0.000 A 
ATOM      4  C   UNL     1      16.671  11.141  33.667  0.00  0.00    +0.000 A 
ATOM      5  C   UNL     1      15.786  11.475  32.666  0.00  0.00    +0.000 A 
ATOM      6  C   UNL     1      15.931  11.146  31.227  0.00  0.00    +0.000 C 
ATOM      7  O   UNL     1      14.796  12.131  33.193  0.00  0.00    +0.000 OA
ATOM      8  C   UNL     1      14.985  12.246  34.506  0.00  0.00    +0.000 A 
ATOM      9  C   UNL     1      14.070  12.933  35.466  0.00  0.00    +0.000 C 
ENDBRANCH   2   3
BRANCH   2  10
ATOM     10  N   UNL     1      16.848  10.321  36.934  0.00  0.00    +0.000 NA
BRANCH  10  11
ATOM     11  N   UNL     1      16.662  10.226  38.310  0.00  0.00    +0.000 NA
ATOM     12  C   UNL     1      17.611   9.583  39.123  0.00  0.00    +0.000 C 
ATOM     13  O   UNL     1      18.646   9.078  38.644  0.00  0.00    +0.000 OA
BRANCH  12  14
ATOM     14  C   UNL     1      17.424   9.474  40.594  0.00  0.00    +0.000 A 
ATOM     15  C   UNL     1      16.252   9.556  41.286  0.00  0.00    +0.000 A 
ATOM     16  C   UNL     1      16.319   9.428  42.620  0.00  0.00    +0.000 A 
ATOM     17  C   UNL     1      17.538   9.226  43.180  0.00  0.00    +0.000 A 
ATOM     18  S   UNL     1      18.573   9.221  41.823  0.00  0.00    +0.000 S 
ENDBRANCH  12  14
ENDBRANCH  10  11
ENDBRANCH   2  10
TORSDOF 4
ENDMDL
MODEL 3
REMARK VINA RESULT:      -5.7     16.359     18.515
REMARK  Name = 
REMARK  4 active torsions:
REMARK  status: ('A' for Active; 'I' for Inactive)
REMARK    1  A    between atoms: C_2  and  N_3
REMARK    2  A    between atoms: C_2  and  C_12
REMARK    3  A    between atoms: N_3  and  N_4
REMARK    4  A    between atoms: C_5  and  C_7
REMARK                            x       y       z     vdW  Elec       q    Type
REMARK                         _______ _______ _______ _____ _____    ______ ____
ROOT
ATOM      1  C   UNL     1      17.410   9.941  39.043  0.00  0.00    +0.000 C 
ATOM      2  C   UNL     1      17.501   9.969  37.698  0.00  0.00    +0.000 C 
ENDROOT
BRANCH   2   3
ATOM      3  C   UNL     1      16.465  10.659  36.944  0.00  0.00    +0.000 A 
ATOM      4  C   UNL     1      15.368  11.305  37.515  0.00  0.00    +0.000 A 
ATOM      5  C   UNL     1      14.616  11.838  36.491  0.00  0.00    +0.000 A 
ATOM      6  C   UNL     1      13.359  12.611  36.641  0.00  0.00    +0.000 C 
ATOM      7  O   UNL     1      15.194  11.549  35.363  0.00  0.00    +0.000 OA
ATOM      8  C   UNL     1      16.300  10.846  35.596  0.00  0.00    +0.000 A 
ATOM      9  C   UNL     1      17.241  10.326  34.559  0.00  0.00    +0.000 C 
ENDBRANCH   2   3
BRANCH   2  10
ATOM     10  N   UNL     1      18.613   9.311  37.160  0.00  0.00    +0.000 NA
BRANCH  10  11
ATOM     11  N   UNL     1      19.831   9.887  36.811  0.00  0.00    +0.000 NA
ATOM     12  C   UNL     1      20.921   9.861  37.698  0.00  0.00    +0.000 C 
ATOM     13  O   UNL     1      20.837   9.325  38.821  0.00  0.00    +0.000 OA
BRANCH  12  14
ATOM     14  C   UNL     1      22.228  10.473  37.337  0.00  0.00    +0.000 A 
ATOM     15  C   UNL     1      23.008  10.180  36.258  0.00  0.00    +0.000 A 
ATOM     16  C   UNL     1      24.155  10.861  36.129  0.00  0.00    +0.000 A 
ATOM     17  C   UNL     1      24.455  11.789  37.074  0.00  0.00    +0.000 A 
ATOM     18  S   UNL     1      23.118  11.686  38.130  0.00  0.00    +0.000 S 
ENDBRANCH  12  14
ENDBRANCH  10  11
ENDBRANCH   2  10
TORSDOF 4
ENDMDL
MODEL 4
REMARK VINA RESULT:      -5.6      4.227      6.144
REMARK  Name = 
REMARK  4 active torsions:
REMARK  status: ('A' for Active; 'I' for Inactive)
REMARK    1  A    between atoms: C_2  and  N_3
REMARK    2  A    between atoms: C_2  and  C_12
REMARK    3  A    between atoms: N_3  and  N_4
REMARK    4  A    between atoms: C_5  and  C_7
REMARK                            x       y       z     vdW  Elec       q    Type
REMARK                         _______ _______ _______ _____ _____    ______ ____
ROOT
ATOM      1  C   UNL     1      34.995  -2.758  35.372  0.00  0.00    +0.000 C 
ATOM      2  C   UNL     1      34.042  -2.270  34.554  0.00  0.00    +0.000 C 
ENDROOT
BRANCH   2   3
ATOM      3  C   UNL     1      33.869  -0.828  34.467  0.00  0.00    +0.000 A 
ATOM      4  C   UNL     1      34.025  -0.080  33.299  0.00  0.00    +0.000 A 
ATOM      5  C   UNL     1      33.779   1.238  33.610  0.00  0.00    +0.000 A 
ATOM      6  C   UNL     1      33.832   2.383  32.667  0.00  0.00    +0.000 C 
ATOM      7  O   UNL     1      33.492   1.316  34.875  0.00  0.00    +0.000 OA
ATOM      8  C   UNL     1      33.535   0.102  35.418  0.00  0.00    +0.000 A 
ATOM      9  C   UNL     1      33.266  -0.227  36.850  0.00  0.00    +0.000 C 
ENDBRANCH   2   3
BRANCH   2  10
ATOM     10  N   UNL     1      33.303  -3.233  33.857  0.00  0.00    +0.000 NA
BRANCH  10  11
ATOM     11  N   UNL     1      33.593  -3.755  32.600  0.00  0.00    +0.000 NA
ATOM     12  C   UNL     1      33.286  -5.091  32.287  0.00  0.00    +0.000 C 
ATOM     13  O   UNL     1      32.746  -5.849  33.116  0.00  0.00    +0.000 OA
BRANCH  12  14
ATOM     14  C   UNL     1      33.592  -5.662  30.948  0.00  0.00    +0.000 A 
ATOM     15  C   UNL     1      32.937  -5.419  29.777  0.00  0.00    +0.000 A 
ATOM     16  C   UNL     1      33.389  -6.048  28.682  0.00  0.00    +0.000 A 
ATOM     17  C   UNL     1      34.459  -6.872  28.816  0.00  0.00    +0.000 A 
ATOM     18  S   UNL     1      34.811  -6.752  30.482  0.00  0.00    +0.000 S 
ENDBRANCH  12  14
ENDBRANCH  10  11
ENDBRANCH   2  10
TORSDOF 4
ENDMDL
MODEL 5
REMARK VINA RESULT:      -5.3     19.968     22.738
REMARK  Name = 
REMARK  4 active torsions:
REMARK  status: ('A' for Active; 'I' for Inactive)
REMARK    1  A    between atoms: C_2  and  N_3
REMARK    2  A    between atoms: C_2  and  C_12
REMARK    3  A    between atoms: N_3  and  N_4
REMARK    4  A    between atoms: C_5  and  C_7
REMARK                            x       y       z     vdW  Elec       q    Type
REMARK                         _______ _______ _______ _____ _____    ______ ____
ROOT
ATOM      1  C   UNL     1      17.433  -8.607  27.376  0.00  0.00    +0.000 C 
ATOM      2  C   UNL     1      17.568  -7.775  26.324  0.00  0.00    +0.000 C 
ENDROOT
BRANCH   2   3
ATOM      3  C   UNL     1      18.900  -7.305  25.974  0.00  0.00    +0.000 A 
ATOM      4  C   UNL     1      19.917  -8.114  25.466  0.00  0.00    +0.000 A 
ATOM      5  C   UNL     1      21.021  -7.318  25.258  0.00  0.00    +0.000 A 
ATOM      6  C   UNL     1      22.332  -7.764  24.725  0.00  0.00    +0.000 C 
ATOM      7  O   UNL     1      20.724  -6.102  25.607  0.00  0.00    +0.000 OA
ATOM      8  C   UNL     1      19.465  -6.057  26.040  0.00  0.00    +0.000 A 
ATOM      9  C   UNL     1      18.751  -4.841  26.530  0.00  0.00    +0.000 C 
ENDBRANCH   2   3
BRANCH   2  10
ATOM     10  N   UNL     1      16.377  -7.445  25.666  0.00  0.00    +0.000 NA
BRANCH  10  11
ATOM     11  N   UNL     1      15.090  -7.821  26.038  0.00  0.00    +0.000 NA
ATOM     12  C   UNL     1      14.302  -8.625  25.196  0.00  0.00    +0.000 C 
ATOM     13  O   UNL     1      14.724  -9.027  24.094  0.00  0.00    +0.000 OA
BRANCH  12  14
ATOM     14  C   UNL     1      12.924  -9.032  25.583  0.00  0.00    +0.000 A 
ATOM     15  C   UNL     1      12.277  -8.754  26.750  0.00  0.00    +0.000 A 
ATOM     16  C   UNL     1      11.029  -9.226  26.884  0.00  0.00    +0.000 A 
ATOM     17  C   UNL     1      10.503  -9.939  25.857  0.00  0.00    +0.000 A 
ATOM     18  S   UNL     1      11.774  -9.937  24.717  0.00  0.00    +0.000 S 
ENDBRANCH  12  14
ENDBRANCH  10  11
ENDBRANCH   2  10
TORSDOF 4
ENDMDL
MODEL 6
REMARK VINA RESULT:      -5.3     21.370     23.807
REMARK  Name = 
REMARK  4 active torsions:
REMARK  status: ('A' for Active; 'I' for Inactive)
REMARK    1  A    between atoms: C_2  and  N_3
REMARK    2  A    between atoms: C_2  and  C_12
REMARK    3  A    between atoms: N_3  and  N_4
REMARK    4  A    between atoms: C_5  and  C_7
REMARK                            x       y       z     vdW  Elec       q    Type
REMARK                         _______ _______ _______ _____ _____    ______ ____
ROOT
ATOM      1  C   UNL     1      22.065  22.274  38.548  0.00  0.00    +0.000 C 
ATOM      2  C   UNL     1      21.626  21.333  37.689  0.00  0.00    +0.000 C 
ENDROOT
BRANCH   2   3
ATOM      3  C   UNL     1      21.359  19.995  38.195  0.00  0.00    +0.000 A 
ATOM      4  C   UNL     1      20.114  19.552  38.643  0.00  0.00    +0.000 A 
ATOM      5  C   UNL     1      20.253  18.242  39.041  0.00  0.00    +0.000 A 
ATOM      6  C   UNL     1      19.180  17.375  39.586  0.00  0.00    +0.000 C 
ATOM      7  O   UNL     1      21.490  17.886  38.861  0.00  0.00    +0.000 OA
ATOM      8  C   UNL     1      22.179  18.908  38.357  0.00  0.00    +0.000 A 
ATOM      9  C   UNL     1      23.632  18.898  38.010  0.00  0.00    +0.000 C 
ENDBRANCH   2   3
BRANCH   2  10
ATOM     10  N   UNL     1      21.473  21.758  36.364  0.00  0.00    +0.000 NA
BRANCH  10  11
ATOM     11  N   UNL     1      20.435  21.426  35.499  0.00  0.00    +0.000 NA
ATOM     12  C   UNL     1      19.163  22.008  35.644  0.00  0.00    +0.000 C 
ATOM     13  O   UNL     1      18.922  22.835  36.544  0.00  0.00    +0.000 OA
BRANCH  12  14
ATOM     14  C   UNL     1      18.044  21.661  34.726  0.00  0.00    +0.000 A 
ATOM     15  C   UNL     1      18.047  20.722  33.738  0.00  0.00    +0.000 A 
ATOM     16  C   UNL     1      16.918  20.577  33.029  0.00  0.00    +0.000 A 
ATOM     17  C   UNL     1      15.861  21.368  33.344  0.00  0.00    +0.000 A 
ATOM     18  S   UNL     1      16.473  22.305  34.633  0.00  0.00    +0.000 S 
ENDBRANCH  12  14
ENDBRANCH  10  11
ENDBRANCH   2  10
TORSDOF 4
ENDMDL
MODEL 7
REMARK VINA RESULT:      -5.3     17.684     19.057
REMARK  Name = 
REMARK  4 active torsions:
REMARK  status: ('A' for Active; 'I' for Inactive)
REMARK    1  A    between atoms: C_2  and  N_3
REMARK    2  A    between atoms: C_2  and  C_12
REMARK    3  A    between atoms: N_3  and  N_4
REMARK    4  A    between atoms: C_5  and  C_7
REMARK                            x       y       z     vdW  Elec       q    Type
REMARK                         _______ _______ _______ _____ _____    ______ ____
ROOT
ATOM      1  C   UNL     1      23.116 -10.307  23.377  0.00  0.00    +0.000 C 
ATOM      2  C   UNL     1      23.635  -9.356  24.178  0.00  0.00    +0.000 C 
ENDROOT
BRANCH   2   3
ATOM      3  C   UNL     1      24.755  -8.567  23.689  0.00  0.00    +0.000 A 
ATOM      4  C   UNL     1      25.931  -9.103  23.163  0.00  0.00    +0.000 A 
ATOM      5  C   UNL     1      26.749  -8.053  22.809  0.00  0.00    +0.000 A 
ATOM      6  C   UNL     1      28.100  -8.162  22.208  0.00  0.00    +0.000 C 
ATOM      7  O   UNL     1      26.137  -6.942  23.091  0.00  0.00    +0.000 OA
ATOM      8  C   UNL     1      24.944  -7.211  23.618  0.00  0.00    +0.000 A 
ATOM      9  C   UNL     1      23.941  -6.202  24.074  0.00  0.00    +0.000 C 
ENDBRANCH   2   3
BRANCH   2  10
ATOM     10  N   UNL     1      23.021  -9.230  25.430  0.00  0.00    +0.000 NA
BRANCH  10  11
ATOM     11  N   UNL     1      22.103  -8.256  25.812  0.00  0.00    +0.000 NA
ATOM     12  C   UNL     1      20.726  -8.539  25.848  0.00  0.00    +0.000 C 
ATOM     13  O   UNL     1      20.282  -9.663  25.543  0.00  0.00    +0.000 OA
BRANCH  12  14
ATOM     14  C   UNL     1      19.735  -7.507  26.253  0.00  0.00    +0.000 A 
ATOM     15  C   UNL     1      19.776  -6.171  25.983  0.00  0.00    +0.000 A 
ATOM     16  C   UNL     1      18.767  -5.421  26.451  0.00  0.00    +0.000 A 
ATOM     17  C   UNL     1      17.784  -6.042  27.153  0.00  0.00    +0.000 A 
ATOM     18  S   UNL     1      18.296  -7.670  27.145  0.00  0.00    +0.000 S 
ENDBRANCH  12  14
ENDBRANCH  10  11
ENDBRANCH   2  10
TORSDOF 4
ENDMDL
MODEL 8
REMARK VINA RESULT:      -5.2     26.586     29.134
REMARK  Name = 
REMARK  4 active torsions:
REMARK  status: ('A' for Active; 'I' for Inactive)
REMARK    1  A    between atoms: C_2  and  N_3
REMARK    2  A    between atoms: C_2  and  C_12
REMARK    3  A    between atoms: N_3  and  N_4
REMARK    4  A    between atoms: C_5  and  C_7
REMARK                            x       y       z     vdW  Elec       q    Type
REMARK                         _______ _______ _______ _____ _____    ______ ____
ROOT
ATOM      1  C   UNL     1      29.183  27.238  21.941  0.00  0.00    +0.000 C 
ATOM      2  C   UNL     1      29.430  26.008  21.449  0.00  0.00    +0.000 C 
ENDROOT
BRANCH   2   3
ATOM      3  C   UNL     1      29.236  24.857  22.318  0.00  0.00    +0.000 A 
ATOM      4  C   UNL     1      30.175  24.396  23.242  0.00  0.00    +0.000 A 
ATOM      5  C   UNL     1      29.636  23.297  23.873  0.00  0.00    +0.000 A 
ATOM      6  C   UNL     1      30.290  22.490  24.932  0.00  0.00    +0.000 C 
ATOM      7  O   UNL     1      28.451  23.082  23.385  0.00  0.00    +0.000 OA
ATOM      8  C   UNL     1      28.180  23.994  22.454  0.00  0.00    +0.000 A 
ATOM      9  C   UNL     1      26.918  24.086  21.660  0.00  0.00    +0.000 C 
ENDBRANCH   2   3
BRANCH   2  10
ATOM     10  N   UNL     1      29.860  25.972  20.117  0.00  0.00    +0.000 NA
BRANCH  10  11
ATOM     11  N   UNL     1      29.417  26.785  19.079  0.00  0.00    +0.000 NA
ATOM     12  C   UNL     1      30.323  27.325  18.149  0.00  0.00    +0.000 C 
ATOM     13  O   UNL     1      31.546  27.097  18.221  0.00  0.00    +0.000 OA
BRANCH  12  14
ATOM     14  C   UNL     1      29.862  28.196  17.035  0.00  0.00    +0.000 A 
ATOM     15  C   UNL     1      30.018  27.980  15.698  0.00  0.00    +0.000 A 
ATOM     16  C   UNL     1      29.518  28.906  14.866  0.00  0.00    +0.000 A 
ATOM     17  C   UNL     1      28.896  29.983  15.411  0.00  0.00    +0.000 A 
ATOM     18  S   UNL     1      29.026  29.677  17.085  0.00  0.00    +0.000 S 
ENDBRANCH  12  14
ENDBRANCH  10  11
ENDBRANCH   2  10
TORSDOF 4
ENDMDL
MODEL 9
REMARK VINA RESULT:      -5.2     22.699     25.358
REMARK  Name = 
REMARK  4 active torsions:
REMARK  status: ('A' for Active; 'I' for Inactive)
REMARK    1  A    between atoms: C_2  and  N_3
REMARK    2  A    between atoms: C_2  and  C_12
REMARK    3  A    between atoms: N_3  and  N_4
REMARK    4  A    between atoms: C_5  and  C_7
REMARK                            x       y       z     vdW  Elec       q    Type
REMARK                         _______ _______ _______ _____ _____    ______ ____
ROOT
ATOM      1  C   UNL     1      18.544  20.739  36.865  0.00  0.00    +0.000 C 
ATOM      2  C   UNL     1      18.684  21.444  35.725  0.00  0.00    +0.000 C 
ENDROOT
BRANCH   2   3
ATOM      3  C   UNL     1      17.488  21.860  35.010  0.00  0.00    +0.000 A 
ATOM      4  C   UNL     1      16.534  22.747  35.511  0.00  0.00    +0.000 A 
ATOM      5  C   UNL     1      15.556  22.896  34.554  0.00  0.00    +0.000 A 
ATOM      6  C   UNL     1      14.347  23.749  34.664  0.00  0.00    +0.000 C 
ATOM      7  O   UNL     1      15.868  22.159  33.529  0.00  0.00    +0.000 OA
ATOM      8  C   UNL     1      17.015  21.527  33.767  0.00  0.00    +0.000 A 
ATOM      9  C   UNL     1      17.707  20.588  32.834  0.00  0.00    +0.000 C 
ENDBRANCH   2   3
BRANCH   2  10
ATOM     10  N   UNL     1      20.006  21.706  35.344  0.00  0.00    +0.000 NA
BRANCH  10  11
ATOM     11  N   UNL     1      21.147  21.518  36.118  0.00  0.00    +0.000 NA
ATOM     12  C   UNL     1      21.752  22.599  36.784  0.00  0.00    +0.000 C 
ATOM     13  O   UNL     1      21.291  23.755  36.706  0.00  0.00    +0.000 OA
BRANCH  12  14
ATOM     14  C   UNL     1      22.972  22.411  37.613  0.00  0.00    +0.000 A 
ATOM     15  C   UNL     1      23.892  23.357  37.955  0.00  0.00    +0.000 A 
ATOM     16  C   UNL     1      24.922  22.962  38.717  0.00  0.00    +0.000 A 
ATOM     17  C   UNL     1      24.974  21.658  39.093  0.00  0.00    +0.000 A 
ATOM     18  S   UNL     1      23.573  21.009  38.365  0.00  0.00    +0.000 S 
ENDBRANCH  12  14
ENDBRANCH  10  11
ENDBRANCH   2  10
TORSDOF 4
ENDMDL
MODEL 10
REMARK VINA RESULT:      -5.1     20.160     22.675
REMARK  Name = 
REMARK  4 active torsions:
REMARK  status: ('A' for Active; 'I' for Inactive)
REMARK    1  A    between atoms: C_2  and  N_3
REMARK    2  A    between atoms: C_2  and  C_12
REMARK    3  A    between atoms: N_3  and  N_4
REMARK    4  A    between atoms: C_5  and  C_7
REMARK                            x       y       z     vdW  Elec       q    Type
REMARK                         _______ _______ _______ _____ _____    ______ ____
ROOT
ATOM      1  C   UNL     1      31.871  23.527  27.182  0.00  0.00    +0.000 C 
ATOM      2  C   UNL     1      31.265  22.486  27.787  0.00  0.00    +0.000 C 
ENDROOT
BRANCH   2   3
ATOM      3  C   UNL     1      31.652  22.147  29.147  0.00  0.00    +0.000 A 
ATOM      4  C   UNL     1      32.861  21.545  29.499  0.00  0.00    +0.000 A 
ATOM      5  C   UNL     1      32.867  21.383  30.866  0.00  0.00    +0.000 A 
ATOM      6  C   UNL     1      33.959  20.784  31.671  0.00  0.00    +0.000 C 
ATOM      7  O   UNL     1      31.748  21.846  31.340  0.00  0.00    +0.000 OA
ATOM      8  C   UNL     1      30.999  22.309  30.342  0.00  0.00    +0.000 A 
ATOM      9  C   UNL     1      29.643  22.921  30.476  0.00  0.00    +0.000 C 
ENDBRANCH   2   3
BRANCH   2  10
ATOM     10  N   UNL     1      30.301  21.826  27.015  0.00  0.00    +0.000 NA
BRANCH  10  11
ATOM     11  N   UNL     1      29.876  22.178  25.737  0.00  0.00    +0.000 NA
ATOM     12  C   UNL     1      28.709  22.941  25.551  0.00  0.00    +0.000 C 
ATOM     13  O   UNL     1      28.020  23.326  26.515  0.00  0.00    +0.000 OA
BRANCH  12  14
ATOM     14  C   UNL     1      28.244  23.322  24.191  0.00  0.00    +0.000 A 
ATOM     15  C   UNL     1      29.014  23.587  23.097  0.00  0.00    +0.000 A 
ATOM     16  C   UNL     1      28.376  23.914  21.964  0.00  0.00    +0.000 A 
ATOM     17  C   UNL     1      27.020  23.957  21.986  0.00  0.00    +0.000 A 
ATOM     18  S   UNL     1      26.663  23.538  23.602  0.00  0.00    +0.000 S 
ENDBRANCH  12  14
ENDBRANCH  10  11
ENDBRANCH   2  10
TORSDOF 4
ENDMDL
