MODEL 1
REMARK VINA RESULT:      -7.1      0.000      0.000
REMARK  Name = 
REMARK  1 active torsions:
REMARK  status: ('A' for Active; 'I' for Inactive)
REMARK    1  A    between atoms: C_2  and  C_3
REMARK                            x       y       z     vdW  Elec       q    Type
REMARK                         _______ _______ _______ _____ _____    ______ ____
ROOT
ATOM      1  C   UNL     1      29.090  24.516  22.813  0.00  0.00    +0.000 C 
ATOM      2  O   UNL     1      30.297  23.868  22.891  0.00  0.00    +0.000 OA
ATOM      3  C   UNL     1      28.010  23.557  22.491  0.00  0.00    +0.000 C 
ATOM      4  C   UNL     1      26.786  23.948  23.119  0.00  0.00    +0.000 C 
ATOM      5  C   UNL     1      27.127  25.170  24.122  0.00  0.00    +0.000 C 
ATOM      6  C   UNL     1      26.665  24.250  25.470  0.00  0.00    +0.000 C 
ATOM      7  C   UNL     1      27.716  23.073  25.406  0.00  0.00    +0.000 C 
ATOM      8  C   UNL     1      28.079  22.540  26.716  0.00  0.00    +0.000 C 
ATOM      9  C   UNL     1      27.322  23.076  27.860  0.00  0.00    +0.000 A 
ATOM     10  C   UNL     1      27.032  22.233  28.914  0.00  0.00    +0.000 A 
ATOM     11  C   UNL     1      26.322  22.742  29.978  0.00  0.00    +0.000 A 
ATOM     12  O   UNL     1      25.995  21.924  31.086  0.00  0.00    +0.000 OA
ATOM     13  C   UNL     1      25.937  24.058  29.946  0.00  0.00    +0.000 A 
ATOM     14  C   UNL     1      26.240  24.875  28.884  0.00  0.00    +0.000 A 
ATOM     15  C   UNL     1      26.940  24.368  27.838  0.00  0.00    +0.000 A 
ATOM     16  C   UNL     1      27.289  25.308  26.623  0.00  0.00    +0.000 C 
ATOM     17  C   UNL     1      28.855  24.961  26.583  0.00  0.00    +0.000 C 
ATOM     18  C   UNL     1      29.382  24.742  25.299  0.00  0.00    +0.000 C 
ATOM     19  C   UNL     1      28.711  25.050  24.133  0.00  0.00    +0.000 C 
ATOM     20  C   UNL     1      29.153  26.539  24.054  0.00  0.00    +0.000 C 
ENDROOT
BRANCH   1  22
ATOM     21  C   UNL     1      29.233  26.402  20.902  0.00  0.00    +0.000 C 
ATOM     22  C   UNL     1      29.180  25.544  21.767  0.00  0.00    +0.000 C 
ENDBRANCH   1  22
TORSDOF 1
ENDMDL
MODEL 2
REMARK VINA RESULT:      -7.0     20.723     23.470
REMARK  Name = 
REMARK  1 active torsions:
REMARK  status: ('A' for Active; 'I' for Inactive)
REMARK    1  A    between atoms: C_2  and  C_3
REMARK                            x       y       z     vdW  Elec       q    Type
REMARK                         _______ _______ _______ _____ _____    ______ ____
ROOT
ATOM      1  C   UNL     1      35.940   7.385  37.747  0.00  0.00    +0.000 C 
ATOM      2  O   UNL     1      35.200   7.343  38.901  0.00  0.00    +0.000 OA
ATOM      3  C   UNL     1      37.121   6.501  37.860  0.00  0.00    +0.000 C 
ATOM      4  C   UNL     1      37.446   5.928  36.590  0.00  0.00    +0.000 C 
ATOM      5  C   UNL     1      36.245   6.301  35.572  0.00  0.00    +0.000 C 
ATOM      6  C   UNL     1      35.843   4.665  35.379  0.00  0.00    +0.000 C 
ATOM      7  C   UNL     1      35.426   4.281  36.853  0.00  0.00    +0.000 C 
ATOM      8  C   UNL     1      34.394   3.250  36.921  0.00  0.00    +0.000 C 
ATOM      9  C   UNL     1      34.008   2.643  35.636  0.00  0.00    +0.000 A 
ATOM     10  C   UNL     1      33.672   1.304  35.613  0.00  0.00    +0.000 A 
ATOM     11  C   UNL     1      33.315   0.743  34.407  0.00  0.00    +0.000 A 
ATOM     12  O   UNL     1      32.961  -0.625  34.323  0.00  0.00    +0.000 OA
ATOM     13  C   UNL     1      33.307   1.535  33.288  0.00  0.00    +0.000 A 
ATOM     14  C   UNL     1      33.646   2.866  33.339  0.00  0.00    +0.000 A 
ATOM     15  C   UNL     1      33.997   3.412  34.530  0.00  0.00    +0.000 A 
ATOM     16  C   UNL     1      34.381   4.939  34.588  0.00  0.00    +0.000 C 
ATOM     17  C   UNL     1      33.406   5.315  35.806  0.00  0.00    +0.000 C 
ATOM     18  C   UNL     1      33.976   6.143  36.788  0.00  0.00    +0.000 C 
ATOM     19  C   UNL     1      35.173   6.811  36.626  0.00  0.00    +0.000 C 
ATOM     20  C   UNL     1      34.587   8.066  35.918  0.00  0.00    +0.000 C 
ENDROOT
BRANCH   1  22
ATOM     21  C   UNL     1      36.742   9.916  37.323  0.00  0.00    +0.000 C 
ATOM     22  C   UNL     1      36.367   8.772  37.517  0.00  0.00    +0.000 C 
ENDBRANCH   1  22
TORSDOF 1
ENDMDL
MODEL 3
REMARK VINA RESULT:      -6.7      3.159      4.103
REMARK  Name = 
REMARK  1 active torsions:
REMARK  status: ('A' for Active; 'I' for Inactive)
REMARK    1  A    between atoms: C_2  and  C_3
REMARK                            x       y       z     vdW  Elec       q    Type
REMARK                         _______ _______ _______ _____ _____    ______ ____
ROOT
ATOM      1  C   UNL     1      27.950  24.080  23.527  0.00  0.00    +0.000 C 
ATOM      2  O   UNL     1      27.737  22.835  22.992  0.00  0.00    +0.000 OA
ATOM      3  C   UNL     1      27.099  24.279  24.721  0.00  0.00    +0.000 C 
ATOM      4  C   UNL     1      27.766  25.103  25.683  0.00  0.00    +0.000 C 
ATOM      5  C   UNL     1      29.287  25.304  25.173  0.00  0.00    +0.000 C 
ATOM      6  C   UNL     1      29.897  24.499  26.536  0.00  0.00    +0.000 C 
ATOM      7  C   UNL     1      29.270  23.062  26.341  0.00  0.00    +0.000 C 
ATOM      8  C   UNL     1      30.104  21.984  26.864  0.00  0.00    +0.000 C 
ATOM      9  C   UNL     1      31.310  22.403  27.598  0.00  0.00    +0.000 A 
ATOM     10  C   UNL     1      31.724  21.645  28.676  0.00  0.00    +0.000 A 
ATOM     11  C   UNL     1      32.851  22.046  29.358  0.00  0.00    +0.000 A 
ATOM     12  O   UNL     1      33.321  21.308  30.471  0.00  0.00    +0.000 OA
ATOM     13  C   UNL     1      33.510  23.173  28.940  0.00  0.00    +0.000 A 
ATOM     14  C   UNL     1      33.076  23.909  27.863  0.00  0.00    +0.000 A 
ATOM     15  C   UNL     1      31.966  23.509  27.195  0.00  0.00    +0.000 A 
ATOM     16  C   UNL     1      31.472  24.352  25.959  0.00  0.00    +0.000 C 
ATOM     17  C   UNL     1      31.344  23.112  24.947  0.00  0.00    +0.000 C 
ATOM     18  C   UNL     1      30.178  23.105  24.162  0.00  0.00    +0.000 C 
ATOM     19  C   UNL     1      29.325  24.183  24.048  0.00  0.00    +0.000 C 
ATOM     20  C   UNL     1      30.087  24.899  22.897  0.00  0.00    +0.000 C 
ENDROOT
BRANCH   1  22
ATOM     21  C   UNL     1      27.355  25.908  21.649  0.00  0.00    +0.000 C 
ATOM     22  C   UNL     1      27.631  25.087  22.506  0.00  0.00    +0.000 C 
ENDBRANCH   1  22
TORSDOF 1
ENDMDL
MODEL 4
REMARK VINA RESULT:      -6.7      3.651      4.890
REMARK  Name = 
REMARK  1 active torsions:
REMARK  status: ('A' for Active; 'I' for Inactive)
REMARK    1  A    between atoms: C_2  and  C_3
REMARK                            x       y       z     vdW  Elec       q    Type
REMARK                         _______ _______ _______ _____ _____    ______ ____
ROOT
ATOM      1  C   UNL     1      28.127  24.466  24.596  0.00  0.00    +0.000 C 
ATOM      2  O   UNL     1      27.664  25.635  25.146  0.00  0.00    +0.000 OA
ATOM      3  C   UNL     1      29.352  24.719  23.806  0.00  0.00    +0.000 C 
ATOM      4  C   UNL     1      30.238  23.597  23.876  0.00  0.00    +0.000 C 
ATOM      5  C   UNL     1      29.641  22.581  24.983  0.00  0.00    +0.000 C 
ATOM      6  C   UNL     1      31.008  22.782  25.967  0.00  0.00    +0.000 C 
ATOM      7  C   UNL     1      30.915  24.324  26.299  0.00  0.00    +0.000 C 
ATOM      8  C   UNL     1      31.445  24.673  27.614  0.00  0.00    +0.000 C 
ATOM      9  C   UNL     1      32.096  23.578  28.355  0.00  0.00    +0.000 A 
ATOM     10  C   UNL     1      33.186  23.875  29.149  0.00  0.00    +0.000 A 
ATOM     11  C   UNL     1      33.789  22.846  29.836  0.00  0.00    +0.000 A 
ATOM     12  O   UNL     1      34.911  23.090  30.665  0.00  0.00    +0.000 OA
ATOM     13  C   UNL     1      33.284  21.578  29.704  0.00  0.00    +0.000 A 
ATOM     14  C   UNL     1      32.197  21.311  28.907  0.00  0.00    +0.000 A 
ATOM     15  C   UNL     1      31.607  22.329  28.233  0.00  0.00    +0.000 A 
ATOM     16  C   UNL     1      30.358  22.021  27.322  0.00  0.00    +0.000 C 
ATOM     17  C   UNL     1      29.415  23.168  27.931  0.00  0.00    +0.000 C 
ATOM     18  C   UNL     1      28.693  23.910  26.980  0.00  0.00    +0.000 C 
ATOM     19  C   UNL     1      28.571  23.543  25.656  0.00  0.00    +0.000 C 
ATOM     20  C   UNL     1      27.349  22.599  25.838  0.00  0.00    +0.000 C 
ENDROOT
BRANCH   1  22
ATOM     21  C   UNL     1      26.216  23.452  23.000  0.00  0.00    +0.000 C 
ATOM     22  C   UNL     1      27.076  23.909  23.733  0.00  0.00    +0.000 C 
ENDBRANCH   1  22
TORSDOF 1
ENDMDL
MODEL 5
REMARK VINA RESULT:      -6.6      1.561      6.485
REMARK  Name = 
REMARK  1 active torsions:
REMARK  status: ('A' for Active; 'I' for Inactive)
REMARK    1  A    between atoms: C_2  and  C_3
REMARK                            x       y       z     vdW  Elec       q    Type
REMARK                         _______ _______ _______ _____ _____    ______ ____
ROOT
ATOM      1  C   UNL     1      27.222  23.831  28.656  0.00  0.00    +0.000 C 
ATOM      2  O   UNL     1      28.072  24.612  29.396  0.00  0.00    +0.000 OA
ATOM      3  C   UNL     1      26.034  24.611  28.242  0.00  0.00    +0.000 C 
ATOM      4  C   UNL     1      25.568  24.180  26.960  0.00  0.00    +0.000 C 
ATOM      5  C   UNL     1      26.670  23.155  26.368  0.00  0.00    +0.000 C 
ATOM      6  C   UNL     1      27.007  24.197  25.073  0.00  0.00    +0.000 C 
ATOM      7  C   UNL     1      27.560  25.462  25.842  0.00  0.00    +0.000 C 
ATOM      8  C   UNL     1      28.565  26.210  25.092  0.00  0.00    +0.000 C 
ATOM      9  C   UNL     1      28.804  25.758  23.711  0.00  0.00    +0.000 A 
ATOM     10  C   UNL     1      29.100  26.703  22.749  0.00  0.00    +0.000 A 
ATOM     11  C   UNL     1      29.319  26.272  21.460  0.00  0.00    +0.000 A 
ATOM     12  O   UNL     1      29.626  27.196  20.432  0.00  0.00    +0.000 OA
ATOM     13  C   UNL     1      29.236  24.931  21.188  0.00  0.00    +0.000 A 
ATOM     14  C   UNL     1      28.940  24.011  22.165  0.00  0.00    +0.000 A 
ATOM     15  C   UNL     1      28.725  24.442  23.434  0.00  0.00    +0.000 A 
ATOM     16  C   UNL     1      28.389  23.385  24.554  0.00  0.00    +0.000 C 
ATOM     17  C   UNL     1      29.491  23.893  25.604  0.00  0.00    +0.000 C 
ATOM     18  C   UNL     1      29.045  23.987  26.934  0.00  0.00    +0.000 C 
ATOM     19  C   UNL     1      27.857  23.448  27.382  0.00  0.00    +0.000 C 
ATOM     20  C   UNL     1      28.401  22.020  27.672  0.00  0.00    +0.000 C 
ENDROOT
BRANCH   1  22
ATOM     21  C   UNL     1      26.458  21.744  30.169  0.00  0.00    +0.000 C 
ATOM     22  C   UNL     1      26.810  22.683  29.476  0.00  0.00    +0.000 C 
ENDBRANCH   1  22
TORSDOF 1
ENDMDL
MODEL 6
REMARK VINA RESULT:      -6.5      1.378      2.138
REMARK  Name = 
REMARK  1 active torsions:
REMARK  status: ('A' for Active; 'I' for Inactive)
REMARK    1  A    between atoms: C_2  and  C_3
REMARK                            x       y       z     vdW  Elec       q    Type
REMARK                         _______ _______ _______ _____ _____    ______ ____
ROOT
ATOM      1  C   UNL     1      27.810  25.299  22.206  0.00  0.00    +0.000 C 
ATOM      2  O   UNL     1      26.904  24.454  21.618  0.00  0.00    +0.000 OA
ATOM      3  C   UNL     1      27.123  26.483  22.767  0.00  0.00    +0.000 C 
ATOM      4  C   UNL     1      27.787  26.938  23.950  0.00  0.00    +0.000 C 
ATOM      5  C   UNL     1      28.904  25.832  24.331  0.00  0.00    +0.000 C 
ATOM      6  C   UNL     1      28.121  25.484  25.795  0.00  0.00    +0.000 C 
ATOM      7  C   UNL     1      26.734  24.938  25.273  0.00  0.00    +0.000 C 
ATOM      8  C   UNL     1      26.138  23.926  26.141  0.00  0.00    +0.000 C 
ATOM      9  C   UNL     1      26.840  23.676  27.411  0.00  0.00    +0.000 A 
ATOM     10  C   UNL     1      26.092  23.372  28.531  0.00  0.00    +0.000 A 
ATOM     11  C   UNL     1      26.755  23.143  29.715  0.00  0.00    +0.000 A 
ATOM     12  O   UNL     1      26.040  22.827  30.895  0.00  0.00    +0.000 OA
ATOM     13  C   UNL     1      28.124  23.224  29.731  0.00  0.00    +0.000 A 
ATOM     14  C   UNL     1      28.845  23.529  28.602  0.00  0.00    +0.000 A 
ATOM     15  C   UNL     1      28.185  23.754  27.438  0.00  0.00    +0.000 A 
ATOM     16  C   UNL     1      29.014  24.099  26.143  0.00  0.00    +0.000 C 
ATOM     17  C   UNL     1      28.317  23.005  25.197  0.00  0.00    +0.000 C 
ATOM     18  C   UNL     1      27.976  23.462  23.912  0.00  0.00    +0.000 C 
ATOM     19  C   UNL     1      28.424  24.654  23.380  0.00  0.00    +0.000 C 
ATOM     20  C   UNL     1      29.771  24.112  22.824  0.00  0.00    +0.000 C 
ENDROOT
BRANCH   1  22
ATOM     21  C   UNL     1      29.598  26.082  20.356  0.00  0.00    +0.000 C 
ATOM     22  C   UNL     1      28.785  25.717  21.189  0.00  0.00    +0.000 C 
ENDBRANCH   1  22
TORSDOF 1
ENDMDL
MODEL 7
REMARK VINA RESULT:      -6.5      3.505      5.872
REMARK  Name = 
REMARK  1 active torsions:
REMARK  status: ('A' for Active; 'I' for Inactive)
REMARK    1  A    between atoms: C_2  and  C_3
REMARK                            x       y       z     vdW  Elec       q    Type
REMARK                         _______ _______ _______ _____ _____    ______ ____
ROOT
ATOM      1  C   UNL     1      27.591  23.323  25.451  0.00  0.00    +0.000 C 
ATOM      2  O   UNL     1      27.488  22.158  26.167  0.00  0.00    +0.000 OA
ATOM      3  C   UNL     1      27.506  24.493  26.355  0.00  0.00    +0.000 C 
ATOM      4  C   UNL     1      28.318  25.565  25.869  0.00  0.00    +0.000 C 
ATOM      5  C   UNL     1      29.189  24.989  24.634  0.00  0.00    +0.000 C 
ATOM      6  C   UNL     1      30.638  25.255  25.474  0.00  0.00    +0.000 C 
ATOM      7  C   UNL     1      30.447  24.294  26.714  0.00  0.00    +0.000 C 
ATOM      8  C   UNL     1      31.697  23.736  27.220  0.00  0.00    +0.000 C 
ATOM      9  C   UNL     1      32.929  24.250  26.597  0.00  0.00    +0.000 A 
ATOM     10  C   UNL     1      34.055  24.395  27.383  0.00  0.00    +0.000 A 
ATOM     11  C   UNL     1      35.202  24.879  26.794  0.00  0.00    +0.000 A 
ATOM     12  O   UNL     1      36.386  25.048  27.550  0.00  0.00    +0.000 OA
ATOM     13  C   UNL     1      35.176  25.194  25.460  0.00  0.00    +0.000 A 
ATOM     14  C   UNL     1      34.041  25.040  24.701  0.00  0.00    +0.000 A 
ATOM     15  C   UNL     1      32.914  24.562  25.287  0.00  0.00    +0.000 A 
ATOM     16  C   UNL     1      31.614  24.383  24.414  0.00  0.00    +0.000 C 
ATOM     17  C   UNL     1      31.320  22.868  24.856  0.00  0.00    +0.000 C 
ATOM     18  C   UNL     1      29.975  22.588  25.153  0.00  0.00    +0.000 C 
ATOM     19  C   UNL     1      28.931  23.436  24.848  0.00  0.00    +0.000 C 
ATOM     20  C   UNL     1      28.707  22.937  23.392  0.00  0.00    +0.000 C 
ENDROOT
BRANCH   1  22
ATOM     21  C   UNL     1      25.581  23.387  23.667  0.00  0.00    +0.000 C 
ATOM     22  C   UNL     1      26.498  23.365  24.469  0.00  0.00    +0.000 C 
ENDBRANCH   1  22
TORSDOF 1
ENDMDL
MODEL 8
REMARK VINA RESULT:      -6.4      3.181      5.323
REMARK  Name = 
REMARK  1 active torsions:
REMARK  status: ('A' for Active; 'I' for Inactive)
REMARK    1  A    between atoms: C_2  and  C_3
REMARK                            x       y       z     vdW  Elec       q    Type
REMARK                         _______ _______ _______ _____ _____    ______ ____
ROOT
ATOM      1  C   UNL     1      33.361  24.944  25.869  0.00  0.00    +0.000 C 
ATOM      2  O   UNL     1      34.099  24.190  24.993  0.00  0.00    +0.000 OA
ATOM      3  C   UNL     1      32.932  26.207  25.228  0.00  0.00    +0.000 C 
ATOM      4  C   UNL     1      31.650  26.611  25.718  0.00  0.00    +0.000 C 
ATOM      5  C   UNL     1      31.075  25.399  26.620  0.00  0.00    +0.000 C 
ATOM      6  C   UNL     1      29.773  25.168  25.558  0.00  0.00    +0.000 C 
ATOM      7  C   UNL     1      30.534  24.765  24.234  0.00  0.00    +0.000 C 
ATOM      8  C   UNL     1      29.785  23.842  23.385  0.00  0.00    +0.000 C 
ATOM      9  C   UNL     1      28.410  23.543  23.819  0.00  0.00    +0.000 A 
ATOM     10  C   UNL     1      27.441  23.346  22.855  0.00  0.00    +0.000 A 
ATOM     11  C   UNL     1      26.158  23.070  23.270  0.00  0.00    +0.000 A 
ATOM     12  O   UNL     1      25.124  22.859  22.326  0.00  0.00    +0.000 OA
ATOM     13  C   UNL     1      25.898  23.003  24.614  0.00  0.00    +0.000 A 
ATOM     14  C   UNL     1      26.881  23.204  25.553  0.00  0.00    +0.000 A 
ATOM     15  C   UNL     1      28.144  23.475  25.138  0.00  0.00    +0.000 A 
ATOM     16  C   UNL     1      29.271  23.702  26.216  0.00  0.00    +0.000 C 
ATOM     17  C   UNL     1      30.324  22.671  25.581  0.00  0.00    +0.000 C 
ATOM     18  C   UNL     1      31.650  23.135  25.526  0.00  0.00    +0.000 C 
ATOM     19  C   UNL     1      32.095  24.260  26.190  0.00  0.00    +0.000 C 
ATOM     20  C   UNL     1      32.402  23.564  27.546  0.00  0.00    +0.000 C 
ENDROOT
BRANCH   1  22
ATOM     21  C   UNL     1      34.891  25.476  28.015  0.00  0.00    +0.000 C 
ATOM     22  C   UNL     1      34.188  25.232  27.048  0.00  0.00    +0.000 C 
ENDBRANCH   1  22
TORSDOF 1
ENDMDL
MODEL 9
REMARK VINA RESULT:      -6.3      1.447      6.442
REMARK  Name = 
REMARK  1 active torsions:
REMARK  status: ('A' for Active; 'I' for Inactive)
REMARK    1  A    between atoms: C_2  and  C_3
REMARK                            x       y       z     vdW  Elec       q    Type
REMARK                         _______ _______ _______ _____ _____    ______ ____
ROOT
ATOM      1  C   UNL     1      26.376  24.484  29.340  0.00  0.00    +0.000 C 
ATOM      2  O   UNL     1      26.114  23.140  29.425  0.00  0.00    +0.000 OA
ATOM      3  C   UNL     1      27.821  24.741  29.525  0.00  0.00    +0.000 C 
ATOM      4  C   UNL     1      28.239  25.861  28.740  0.00  0.00    +0.000 C 
ATOM      5  C   UNL     1      27.001  26.265  27.780  0.00  0.00    +0.000 C 
ATOM      6  C   UNL     1      27.901  25.896  26.391  0.00  0.00    +0.000 C 
ATOM      7  C   UNL     1      28.158  24.351  26.601  0.00  0.00    +0.000 C 
ATOM      8  C   UNL     1      28.244  23.596  25.354  0.00  0.00    +0.000 C 
ATOM      9  C   UNL     1      28.215  24.395  24.117  0.00  0.00    +0.000 A 
ATOM     10  C   UNL     1      28.971  23.973  23.041  0.00  0.00    +0.000 A 
ATOM     11  C   UNL     1      28.941  24.727  21.889  0.00  0.00    +0.000 A 
ATOM     12  O   UNL     1      29.695  24.344  20.754  0.00  0.00    +0.000 OA
ATOM     13  C   UNL     1      28.166  25.858  21.860  0.00  0.00    +0.000 A 
ATOM     14  C   UNL     1      27.423  26.255  22.946  0.00  0.00    +0.000 A 
ATOM     15  C   UNL     1      27.457  25.508  24.078  0.00  0.00    +0.000 A 
ATOM     16  C   UNL     1      26.602  25.963  25.321  0.00  0.00    +0.000 C 
ATOM     17  C   UNL     1      25.891  24.546  25.567  0.00  0.00    +0.000 C 
ATOM     18  C   UNL     1      25.828  24.139  26.912  0.00  0.00    +0.000 C 
ATOM     19  C   UNL     1      26.099  24.973  27.977  0.00  0.00    +0.000 C 
ATOM     20  C   UNL     1      24.674  25.583  28.101  0.00  0.00    +0.000 C 
ENDROOT
BRANCH   1  22
ATOM     21  C   UNL     1      24.944  25.742  31.236  0.00  0.00    +0.000 C 
ATOM     22  C   UNL     1      25.603  25.176  30.380  0.00  0.00    +0.000 C 
ENDBRANCH   1  22
TORSDOF 1
ENDMDL
MODEL 10
REMARK VINA RESULT:      -6.3      3.101      4.181
REMARK  Name = 
REMARK  1 active torsions:
REMARK  status: ('A' for Active; 'I' for Inactive)
REMARK    1  A    between atoms: C_2  and  C_3
REMARK                            x       y       z     vdW  Elec       q    Type
REMARK                         _______ _______ _______ _____ _____    ______ ____
ROOT
ATOM      1  C   UNL     1      28.757  24.728  24.634  0.00  0.00    +0.000 C 
ATOM      2  O   UNL     1      27.438  24.365  24.729  0.00  0.00    +0.000 OA
ATOM      3  C   UNL     1      29.012  25.956  25.420  0.00  0.00    +0.000 C 
ATOM      4  C   UNL     1      30.332  25.938  25.971  0.00  0.00    +0.000 C 
ATOM      5  C   UNL     1      30.947  24.466  25.700  0.00  0.00    +0.000 C 
ATOM      6  C   UNL     1      31.045  24.153  27.363  0.00  0.00    +0.000 C 
ATOM      7  C   UNL     1      29.521  24.218  27.772  0.00  0.00    +0.000 C 
ATOM      8  C   UNL     1      29.173  23.334  28.882  0.00  0.00    +0.000 C 
ATOM      9  C   UNL     1      30.301  22.637  29.524  0.00  0.00    +0.000 A 
ATOM     10  C   UNL     1      30.250  22.414  30.886  0.00  0.00    +0.000 A 
ATOM     11  C   UNL     1      31.309  21.763  31.478  0.00  0.00    +0.000 A 
ATOM     12  O   UNL     1      31.312  21.508  32.870  0.00  0.00    +0.000 OA
ATOM     13  C   UNL     1      32.362  21.366  30.695  0.00  0.00    +0.000 A 
ATOM     14  C   UNL     1      32.386  21.601  29.341  0.00  0.00    +0.000 A 
ATOM     15  C   UNL     1      31.340  22.242  28.763  0.00  0.00    +0.000 A 
ATOM     16  C   UNL     1      31.368  22.507  27.210  0.00  0.00    +0.000 C 
ATOM     17  C   UNL     1      29.912  21.906  26.907  0.00  0.00    +0.000 C 
ATOM     18  C   UNL     1      29.123  22.673  26.032  0.00  0.00    +0.000 C 
ATOM     19  C   UNL     1      29.615  23.714  25.272  0.00  0.00    +0.000 C 
ATOM     20  C   UNL     1      30.097  22.851  24.071  0.00  0.00    +0.000 C 
ENDROOT
BRANCH   1  22
ATOM     21  C   UNL     1      29.320  25.160  22.040  0.00  0.00    +0.000 C 
ATOM     22  C   UNL     1      29.076  24.961  23.218  0.00  0.00    +0.000 C 
ENDBRANCH   1  22
TORSDOF 1
ENDMDL
