MODEL 1
REMARK VINA RESULT:      -8.4      0.000      0.000
REMARK  Name = 
REMARK  7 active torsions:
REMARK  status: ('A' for Active; 'I' for Inactive)
REMARK    1  A    between atoms: C_2  and  O_3
REMARK    2  A    between atoms: O_3  and  C_4
REMARK    3  A    between atoms: C_4  and  C_6
REMARK    4  A    between atoms: C_17  and  N_18
REMARK    5  A    between atoms: N_18  and  C_19
REMARK    6  A    between atoms: C_22  and  N_23
REMARK    7  A    between atoms: N_23  and  C_24
REMARK                            x       y       z     vdW  Elec       q    Type
REMARK                         _______ _______ _______ _____ _____    ______ ____
ROOT
ATOM      1  C   UNL     1      11.914  -1.469  26.859  0.00  0.00    +0.000 A 
ATOM      2  C   UNL     1      10.672  -1.561  26.339  0.00  0.00    +0.000 A 
ATOM      3  N   UNL     1       9.954  -0.484  26.005  0.00  0.00    +0.000 NA
ATOM      4  C   UNL     1      10.496   0.732  26.196  0.00  0.00    +0.000 A 
ATOM      5  C   UNL     1       9.780   1.865  25.860  0.00  0.00    +0.000 A 
ATOM      6  C   UNL     1       8.421   1.709  25.294  0.00  0.00    +0.000 C 
ATOM      7  C   UNL     1      10.318   3.124  26.049  0.00  0.00    +0.000 A 
ATOM      8  C   UNL     1      11.589   3.261  26.579  0.00  0.00    +0.000 A 
ATOM      9  C   UNL     1      12.204   4.591  26.798  0.00  0.00    +0.000 C 
ATOM     10  C   UNL     1      12.281   2.140  26.904  0.00  0.00    +0.000 A 
ATOM     11  C   UNL     1      11.769   0.883  26.727  0.00  0.00    +0.000 A 
ATOM     12  C   UNL     1      12.516  -0.219  27.074  0.00  0.00    +0.000 A 
ENDROOT
BRANCH   1  13
ATOM     13  C   UNL     1      12.626  -2.698  27.195  0.00  0.00    +0.000 C 
ATOM     14  O   UNL     1      13.227  -3.323  26.295  0.00  0.00    +0.000 OA
BRANCH  13  15
ATOM     15  O   UNL     1      12.650  -3.187  28.487  0.00  0.00    +0.000 OA
BRANCH  15  17
ATOM     16  C   UNL     1      12.827  -5.474  29.262  0.00  0.00    +0.000 C 
ATOM     17  C   UNL     1      11.908  -4.344  28.861  0.00  0.00    +0.000 C 
ENDBRANCH  15  17
ENDBRANCH  13  15
ENDBRANCH   1  13
BRANCH  12  18
ATOM     18  N   UNL     1      13.772  -0.249  27.604  0.00  0.00    +0.000 NA
BRANCH  18  19
ATOM     19  C   UNL     1      15.082  -0.070  27.221  0.00  0.00    +0.000 A 
ATOM     20  C   UNL     1      15.403  -0.238  25.849  0.00  0.00    +0.000 A 
ATOM     21  C   UNL     1      16.674  -0.081  25.383  0.00  0.00    +0.000 A 
ATOM     22  C   UNL     1      17.726   0.248  26.204  0.00  0.00    +0.000 A 
ATOM     23  C   UNL     1      17.441   0.417  27.543  0.00  0.00    +0.000 A 
ATOM     24  C   UNL     1      16.159   0.258  28.007  0.00  0.00    +0.000 A 
BRANCH  22  25
ATOM     25  N   UNL     1      19.052   0.412  25.724  0.00  0.00    +0.000 NA
BRANCH  25  26
ATOM     26  C   UNL     1      19.462  -0.347  24.602  0.00  0.00    +0.000 A 
ATOM     27  C   UNL     1      19.234  -1.720  24.574  0.00  0.00    +0.000 A 
ATOM     28  C   UNL     1      19.622  -2.487  23.495  0.00  0.00    +0.000 A 
ATOM     29  C   UNL     1      20.239  -1.868  22.444  0.00  0.00    +0.000 A 
ATOM     30  C   UNL     1      20.470  -0.510  22.457  0.00  0.00    +0.000 A 
ATOM     31  C   UNL     1      20.075   0.247  23.548  0.00  0.00    +0.000 A 
ENDBRANCH  25  26
ENDBRANCH  22  25
ENDBRANCH  18  19
ENDBRANCH  12  18
TORSDOF 7
ENDMDL
MODEL 2
REMARK VINA RESULT:      -8.1     23.842     27.088
REMARK  Name = 
REMARK  7 active torsions:
REMARK  status: ('A' for Active; 'I' for Inactive)
REMARK    1  A    between atoms: C_2  and  O_3
REMARK    2  A    between atoms: O_3  and  C_4
REMARK    3  A    between atoms: C_4  and  C_6
REMARK    4  A    between atoms: C_17  and  N_18
REMARK    5  A    between atoms: N_18  and  C_19
REMARK    6  A    between atoms: C_22  and  N_23
REMARK    7  A    between atoms: N_23  and  C_24
REMARK                            x       y       z     vdW  Elec       q    Type
REMARK                         _______ _______ _______ _____ _____    ______ ____
ROOT
ATOM      1  C   UNL     1      36.073   0.756  15.556  0.00  0.00    +0.000 A 
ATOM      2  C   UNL     1      35.609  -0.478  15.840  0.00  0.00    +0.000 A 
ATOM      3  N   UNL     1      36.387  -1.565  15.792  0.00  0.00    +0.000 NA
ATOM      4  C   UNL     1      37.678  -1.413  15.447  0.00  0.00    +0.000 A 
ATOM      5  C   UNL     1      38.508  -2.516  15.388  0.00  0.00    +0.000 A 
ATOM      6  C   UNL     1      37.948  -3.849  15.710  0.00  0.00    +0.000 C 
ATOM      7  C   UNL     1      39.837  -2.384  15.036  0.00  0.00    +0.000 A 
ATOM      8  C   UNL     1      40.353  -1.134  14.737  0.00  0.00    +0.000 A 
ATOM      9  C   UNL     1      41.772  -0.945  14.355  0.00  0.00    +0.000 C 
ATOM     10  C   UNL     1      39.526  -0.059  14.799  0.00  0.00    +0.000 A 
ATOM     11  C   UNL     1      38.206  -0.167  15.145  0.00  0.00    +0.000 A 
ATOM     12  C   UNL     1      37.414   0.957  15.191  0.00  0.00    +0.000 A 
ENDROOT
BRANCH   1  13
ATOM     13  C   UNL     1      35.153   1.886  15.634  0.00  0.00    +0.000 C 
ATOM     14  O   UNL     1      34.569   2.127  16.713  0.00  0.00    +0.000 OA
BRANCH  13  15
ATOM     15  O   UNL     1      34.911   2.697  14.541  0.00  0.00    +0.000 OA
BRANCH  15  17
ATOM     16  C   UNL     1      35.512   4.904  13.748  0.00  0.00    +0.000 C 
ATOM     17  C   UNL     1      34.654   4.090  14.688  0.00  0.00    +0.000 C 
ENDBRANCH  15  17
ENDBRANCH  13  15
ENDBRANCH   1  13
BRANCH  12  18
ATOM     18  N   UNL     1      37.770   2.246  14.927  0.00  0.00    +0.000 NA
BRANCH  18  19
ATOM     19  C   UNL     1      38.227   3.369  15.579  0.00  0.00    +0.000 A 
ATOM     20  C   UNL     1      39.275   4.110  14.975  0.00  0.00    +0.000 A 
ATOM     21  C   UNL     1      39.788   5.233  15.551  0.00  0.00    +0.000 A 
ATOM     22  C   UNL     1      39.329   5.723  16.750  0.00  0.00    +0.000 A 
ATOM     23  C   UNL     1      38.309   5.021  17.359  0.00  0.00    +0.000 A 
ATOM     24  C   UNL     1      37.797   3.891  16.775  0.00  0.00    +0.000 A 
BRANCH  22  25
ATOM     25  N   UNL     1      39.860   6.893  17.354  0.00  0.00    +0.000 NA
BRANCH  25  26
ATOM     26  C   UNL     1      40.927   6.752  18.274  0.00  0.00    +0.000 A 
ATOM     27  C   UNL     1      40.657   6.501  19.615  0.00  0.00    +0.000 A 
ATOM     28  C   UNL     1      41.675   6.360  20.535  0.00  0.00    +0.000 A 
ATOM     29  C   UNL     1      42.966   6.470  20.099  0.00  0.00    +0.000 A 
ATOM     30  C   UNL     1      43.249   6.717  18.774  0.00  0.00    +0.000 A 
ATOM     31  C   UNL     1      42.215   6.858  17.862  0.00  0.00    +0.000 A 
ENDBRANCH  25  26
ENDBRANCH  22  25
ENDBRANCH  18  19
ENDBRANCH  12  18
TORSDOF 7
ENDMDL
MODEL 3
REMARK VINA RESULT:      -7.9     23.457     26.668
REMARK  Name = 
REMARK  7 active torsions:
REMARK  status: ('A' for Active; 'I' for Inactive)
REMARK    1  A    between atoms: C_2  and  O_3
REMARK    2  A    between atoms: O_3  and  C_4
REMARK    3  A    between atoms: C_4  and  C_6
REMARK    4  A    between atoms: C_17  and  N_18
REMARK    5  A    between atoms: N_18  and  C_19
REMARK    6  A    between atoms: C_22  and  N_23
REMARK    7  A    between atoms: N_23  and  C_24
REMARK                            x       y       z     vdW  Elec       q    Type
REMARK                         _______ _______ _______ _____ _____    ______ ____
ROOT
ATOM      1  C   UNL     1      39.132  -2.153  14.914  0.00  0.00    +0.000 A 
ATOM      2  C   UNL     1      39.748  -3.117  15.628  0.00  0.00    +0.000 A 
ATOM      3  N   UNL     1      39.466  -3.347  16.914  0.00  0.00    +0.000 NA
ATOM      4  C   UNL     1      38.532  -2.585  17.511  0.00  0.00    +0.000 A 
ATOM      5  C   UNL     1      38.216  -2.797  18.839  0.00  0.00    +0.000 A 
ATOM      6  C   UNL     1      38.923  -3.869  19.578  0.00  0.00    +0.000 C 
ATOM      7  C   UNL     1      37.261  -2.025  19.472  0.00  0.00    +0.000 A 
ATOM      8  C   UNL     1      36.606  -1.026  18.774  0.00  0.00    +0.000 A 
ATOM      9  C   UNL     1      35.574  -0.175  19.412  0.00  0.00    +0.000 C 
ATOM     10  C   UNL     1      36.925  -0.828  17.470  0.00  0.00    +0.000 A 
ATOM     11  C   UNL     1      37.868  -1.580  16.822  0.00  0.00    +0.000 A 
ATOM     12  C   UNL     1      38.152  -1.335  15.498  0.00  0.00    +0.000 A 
ENDROOT
BRANCH   1  13
ATOM     13  C   UNL     1      39.503  -1.972  13.513  0.00  0.00    +0.000 C 
ATOM     14  O   UNL     1      38.968  -2.689  12.640  0.00  0.00    +0.000 OA
BRANCH  13  15
ATOM     15  O   UNL     1      40.435  -1.026  13.131  0.00  0.00    +0.000 OA
BRANCH  15  17
ATOM     16  C   UNL     1      42.565  -0.979  14.281  0.00  0.00    +0.000 C 
ATOM     17  C   UNL     1      41.218  -0.321  14.088  0.00  0.00    +0.000 C 
ENDBRANCH  15  17
ENDBRANCH  13  15
ENDBRANCH   1  13
BRANCH  12  18
ATOM     18  N   UNL     1      37.598  -0.395  14.681  0.00  0.00    +0.000 NA
BRANCH  18  19
ATOM     19  C   UNL     1      37.226   0.930  14.699  0.00  0.00    +0.000 A 
ATOM     20  C   UNL     1      38.252   1.909  14.667  0.00  0.00    +0.000 A 
ATOM     21  C   UNL     1      37.975   3.244  14.682  0.00  0.00    +0.000 A 
ATOM     22  C   UNL     1      36.690   3.729  14.728  0.00  0.00    +0.000 A 
ATOM     23  C   UNL     1      35.673   2.798  14.759  0.00  0.00    +0.000 A 
ATOM     24  C   UNL     1      35.959   1.456  14.745  0.00  0.00    +0.000 A 
BRANCH  22  25
ATOM     25  N   UNL     1      36.395   5.118  14.744  0.00  0.00    +0.000 NA
BRANCH  25  26
ATOM     26  C   UNL     1      35.746   5.683  13.621  0.00  0.00    +0.000 A 
ATOM     27  C   UNL     1      34.527   6.336  13.781  0.00  0.00    +0.000 A 
ATOM     28  C   UNL     1      33.870   6.897  12.705  0.00  0.00    +0.000 A 
ATOM     29  C   UNL     1      34.444   6.800  11.468  0.00  0.00    +0.000 A 
ATOM     30  C   UNL     1      35.650   6.157  11.295  0.00  0.00    +0.000 A 
ATOM     31  C   UNL     1      36.298   5.598  12.384  0.00  0.00    +0.000 A 
ENDBRANCH  25  26
ENDBRANCH  22  25
ENDBRANCH  18  19
ENDBRANCH  12  18
TORSDOF 7
ENDMDL
MODEL 4
REMARK VINA RESULT:      -7.8     23.903     27.339
REMARK  Name = 
REMARK  7 active torsions:
REMARK  status: ('A' for Active; 'I' for Inactive)
REMARK    1  A    between atoms: C_2  and  O_3
REMARK    2  A    between atoms: O_3  and  C_4
REMARK    3  A    between atoms: C_4  and  C_6
REMARK    4  A    between atoms: C_17  and  N_18
REMARK    5  A    between atoms: N_18  and  C_19
REMARK    6  A    between atoms: C_22  and  N_23
REMARK    7  A    between atoms: N_23  and  C_24
REMARK                            x       y       z     vdW  Elec       q    Type
REMARK                         _______ _______ _______ _____ _____    ______ ____
ROOT
ATOM      1  C   UNL     1      39.709  -2.028  14.793  0.00  0.00    +0.000 A 
ATOM      2  C   UNL     1      40.168  -3.159  15.366  0.00  0.00    +0.000 A 
ATOM      3  N   UNL     1      39.737  -3.584  16.559  0.00  0.00    +0.000 NA
ATOM      4  C   UNL     1      38.814  -2.850  17.205  0.00  0.00    +0.000 A 
ATOM      5  C   UNL     1      38.347  -3.261  18.439  0.00  0.00    +0.000 A 
ATOM      6  C   UNL     1      38.884  -4.512  19.024  0.00  0.00    +0.000 C 
ATOM      7  C   UNL     1      37.399  -2.523  19.120  0.00  0.00    +0.000 A 
ATOM      8  C   UNL     1      36.902  -1.356  18.566  0.00  0.00    +0.000 A 
ATOM      9  C   UNL     1      35.885  -0.533  19.260  0.00  0.00    +0.000 C 
ATOM     10  C   UNL     1      37.368  -0.964  17.353  0.00  0.00    +0.000 A 
ATOM     11  C   UNL     1      38.308  -1.679  16.660  0.00  0.00    +0.000 A 
ATOM     12  C   UNL     1      38.745  -1.233  15.434  0.00  0.00    +0.000 A 
ENDROOT
BRANCH   1  13
ATOM     13  C   UNL     1      40.235  -1.640  13.488  0.00  0.00    +0.000 C 
ATOM     14  O   UNL     1      39.477  -1.652  12.494  0.00  0.00    +0.000 OA
BRANCH  13  15
ATOM     15  O   UNL     1      41.553  -1.260  13.326  0.00  0.00    +0.000 OA
BRANCH  15  17
ATOM     16  C   UNL     1      43.447  -0.312  14.500  0.00  0.00    +0.000 C 
ATOM     17  C   UNL     1      42.068  -0.077  13.928  0.00  0.00    +0.000 C 
ENDBRANCH  15  17
ENDBRANCH  13  15
ENDBRANCH   1  13
BRANCH  12  18
ATOM     18  N   UNL     1      38.356  -0.113  14.761  0.00  0.00    +0.000 NA
BRANCH  18  19
ATOM     19  C   UNL     1      38.369   1.257  14.897  0.00  0.00    +0.000 A 
ATOM     20  C   UNL     1      37.208   1.885  15.415  0.00  0.00    +0.000 A 
ATOM     21  C   UNL     1      37.133   3.235  15.582  0.00  0.00    +0.000 A 
ATOM     22  C   UNL     1      38.173   4.077  15.262  0.00  0.00    +0.000 A 
ATOM     23  C   UNL     1      39.315   3.491  14.758  0.00  0.00    +0.000 A 
ATOM     24  C   UNL     1      39.383   2.131  14.591  0.00  0.00    +0.000 A 
BRANCH  22  25
ATOM     25  N   UNL     1      38.100   5.484  15.435  0.00  0.00    +0.000 NA
BRANCH  25  26
ATOM     26  C   UNL     1      38.389   6.023  16.711  0.00  0.00    +0.000 A 
ATOM     27  C   UNL     1      38.977   5.222  17.685  0.00  0.00    +0.000 A 
ATOM     28  C   UNL     1      39.270   5.719  18.938  0.00  0.00    +0.000 A 
ATOM     29  C   UNL     1      38.971   7.025  19.207  0.00  0.00    +0.000 A 
ATOM     30  C   UNL     1      38.389   7.831  18.253  0.00  0.00    +0.000 A 
ATOM     31  C   UNL     1      38.100   7.317  16.999  0.00  0.00    +0.000 A 
ENDBRANCH  25  26
ENDBRANCH  22  25
ENDBRANCH  18  19
ENDBRANCH  12  18
TORSDOF 7
ENDMDL
MODEL 5
REMARK VINA RESULT:      -7.8     21.914     27.351
REMARK  Name = 
REMARK  7 active torsions:
REMARK  status: ('A' for Active; 'I' for Inactive)
REMARK    1  A    between atoms: C_2  and  O_3
REMARK    2  A    between atoms: O_3  and  C_4
REMARK    3  A    between atoms: C_4  and  C_6
REMARK    4  A    between atoms: C_17  and  N_18
REMARK    5  A    between atoms: N_18  and  C_19
REMARK    6  A    between atoms: C_22  and  N_23
REMARK    7  A    between atoms: N_23  and  C_24
REMARK                            x       y       z     vdW  Elec       q    Type
REMARK                         _______ _______ _______ _____ _____    ______ ____
ROOT
ATOM      1  C   UNL     1      36.499   1.829  16.125  0.00  0.00    +0.000 A 
ATOM      2  C   UNL     1      35.394   1.735  16.893  0.00  0.00    +0.000 A 
ATOM      3  N   UNL     1      34.739   0.583  17.069  0.00  0.00    +0.000 NA
ATOM      4  C   UNL     1      35.205  -0.518  16.453  0.00  0.00    +0.000 A 
ATOM      5  C   UNL     1      34.552  -1.725  16.614  0.00  0.00    +0.000 A 
ATOM      6  C   UNL     1      33.343  -1.774  17.468  0.00  0.00    +0.000 C 
ATOM      7  C   UNL     1      35.014  -2.869  15.991  0.00  0.00    +0.000 A 
ATOM      8  C   UNL     1      36.144  -2.815  15.194  0.00  0.00    +0.000 A 
ATOM      9  C   UNL     1      36.674  -4.016  14.508  0.00  0.00    +0.000 C 
ATOM     10  C   UNL     1      36.776  -1.623  15.045  0.00  0.00    +0.000 A 
ATOM     11  C   UNL     1      36.338  -0.477  15.652  0.00  0.00    +0.000 A 
ATOM     12  C   UNL     1      37.018   0.704  15.465  0.00  0.00    +0.000 A 
ENDROOT
BRANCH   1  13
ATOM     13  C   UNL     1      37.150   3.129  15.990  0.00  0.00    +0.000 C 
ATOM     14  O   UNL     1      36.739   3.933  15.126  0.00  0.00    +0.000 OA
BRANCH  13  15
ATOM     15  O   UNL     1      38.212   3.491  16.796  0.00  0.00    +0.000 OA
BRANCH  15  17
ATOM     16  C   UNL     1      39.022   5.112  18.401  0.00  0.00    +0.000 C 
ATOM     17  C   UNL     1      38.579   4.854  16.980  0.00  0.00    +0.000 C 
ENDBRANCH  15  17
ENDBRANCH  13  15
ENDBRANCH   1  13
BRANCH  12  18
ATOM     18  N   UNL     1      38.137   0.918  14.718  0.00  0.00    +0.000 NA
BRANCH  18  19
ATOM     19  C   UNL     1      39.379   0.366  14.495  0.00  0.00    +0.000 A 
ATOM     20  C   UNL     1      40.332   1.139  13.784  0.00  0.00    +0.000 A 
ATOM     21  C   UNL     1      41.585   0.670  13.519  0.00  0.00    +0.000 A 
ATOM     22  C   UNL     1      42.006  -0.575  13.919  0.00  0.00    +0.000 A 
ATOM     23  C   UNL     1      41.098  -1.347  14.612  0.00  0.00    +0.000 A 
ATOM     24  C   UNL     1      39.839  -0.870  14.876  0.00  0.00    +0.000 A 
BRANCH  22  25
ATOM     25  N   UNL     1      43.310  -1.068  13.645  0.00  0.00    +0.000 NA
BRANCH  25  26
ATOM     26  C   UNL     1      44.228  -1.179  14.716  0.00  0.00    +0.000 A 
ATOM     27  C   UNL     1      44.771  -2.420  15.036  0.00  0.00    +0.000 A 
ATOM     28  C   UNL     1      45.669  -2.560  16.074  0.00  0.00    +0.000 A 
ATOM     29  C   UNL     1      46.019  -1.448  16.788  0.00  0.00    +0.000 A 
ATOM     30  C   UNL     1      45.490  -0.213  16.482  0.00  0.00    +0.000 A 
ATOM     31  C   UNL     1      44.589  -0.088  15.436  0.00  0.00    +0.000 A 
ENDBRANCH  25  26
ENDBRANCH  22  25
ENDBRANCH  18  19
ENDBRANCH  12  18
TORSDOF 7
ENDMDL
MODEL 6
REMARK VINA RESULT:      -7.8     23.176     27.313
REMARK  Name = 
REMARK  7 active torsions:
REMARK  status: ('A' for Active; 'I' for Inactive)
REMARK    1  A    between atoms: C_2  and  O_3
REMARK    2  A    between atoms: O_3  and  C_4
REMARK    3  A    between atoms: C_4  and  C_6
REMARK    4  A    between atoms: C_17  and  N_18
REMARK    5  A    between atoms: N_18  and  C_19
REMARK    6  A    between atoms: C_22  and  N_23
REMARK    7  A    between atoms: N_23  and  C_24
REMARK                            x       y       z     vdW  Elec       q    Type
REMARK                         _______ _______ _______ _____ _____    ______ ____
ROOT
ATOM      1  C   UNL     1      39.297  -1.093  14.223  0.00  0.00    +0.000 A 
ATOM      2  C   UNL     1      39.598  -2.389  14.447  0.00  0.00    +0.000 A 
ATOM      3  N   UNL     1      38.807  -3.195  15.163  0.00  0.00    +0.000 NA
ATOM      4  C   UNL     1      37.672  -2.687  15.676  0.00  0.00    +0.000 A 
ATOM      5  C   UNL     1      36.832  -3.494  16.421  0.00  0.00    +0.000 A 
ATOM      6  C   UNL     1      37.209  -4.910  16.636  0.00  0.00    +0.000 C 
ATOM      7  C   UNL     1      35.662  -2.993  16.957  0.00  0.00    +0.000 A 
ATOM      8  C   UNL     1      35.317  -1.668  16.751  0.00  0.00    +0.000 A 
ATOM      9  C   UNL     1      34.072  -1.090  17.308  0.00  0.00    +0.000 C 
ATOM     10  C   UNL     1      36.151  -0.888  16.018  0.00  0.00    +0.000 A 
ATOM     11  C   UNL     1      37.315  -1.362  15.477  0.00  0.00    +0.000 A 
ATOM     12  C   UNL     1      38.123  -0.524  14.741  0.00  0.00    +0.000 A 
ENDROOT
BRANCH   1  13
ATOM     13  C   UNL     1      40.219  -0.287  13.430  0.00  0.00    +0.000 C 
ATOM     14  O   UNL     1      40.098  -0.264  12.186  0.00  0.00    +0.000 OA
BRANCH  13  15
ATOM     15  O   UNL     1      41.225   0.453  14.023  0.00  0.00    +0.000 OA
BRANCH  15  17
ATOM     16  C   UNL     1      43.051  -1.102  14.351  0.00  0.00    +0.000 C 
ATOM     17  C   UNL     1      42.598   0.204  13.741  0.00  0.00    +0.000 C 
ENDBRANCH  15  17
ENDBRANCH  13  15
ENDBRANCH   1  13
BRANCH  12  18
ATOM     18  N   UNL     1      37.924   0.792  14.452  0.00  0.00    +0.000 NA
BRANCH  18  19
ATOM     19  C   UNL     1      38.008   2.029  15.053  0.00  0.00    +0.000 A 
ATOM     20  C   UNL     1      39.063   2.890  14.658  0.00  0.00    +0.000 A 
ATOM     21  C   UNL     1      39.222   4.130  15.200  0.00  0.00    +0.000 A 
ATOM     22  C   UNL     1      38.376   4.629  16.162  0.00  0.00    +0.000 A 
ATOM     23  C   UNL     1      37.340   3.811  16.563  0.00  0.00    +0.000 A 
ATOM     24  C   UNL     1      37.185   2.564  16.014  0.00  0.00    +0.000 A 
BRANCH  22  25
ATOM     25  N   UNL     1      38.537   5.920  16.730  0.00  0.00    +0.000 NA
BRANCH  25  26
ATOM     26  C   UNL     1      39.574   6.118  17.672  0.00  0.00    +0.000 A 
ATOM     27  C   UNL     1      40.879   6.319  17.233  0.00  0.00    +0.000 A 
ATOM     28  C   UNL     1      41.912   6.515  18.127  0.00  0.00    +0.000 A 
ATOM     29  C   UNL     1      41.625   6.510  19.464  0.00  0.00    +0.000 A 
ATOM     30  C   UNL     1      40.338   6.313  19.913  0.00  0.00    +0.000 A 
ATOM     31  C   UNL     1      39.312   6.117  19.003  0.00  0.00    +0.000 A 
ENDBRANCH  25  26
ENDBRANCH  22  25
ENDBRANCH  18  19
ENDBRANCH  12  18
TORSDOF 7
ENDMDL
MODEL 7
REMARK VINA RESULT:      -7.5     23.419     27.105
REMARK  Name = 
REMARK  7 active torsions:
REMARK  status: ('A' for Active; 'I' for Inactive)
REMARK    1  A    between atoms: C_2  and  O_3
REMARK    2  A    between atoms: O_3  and  C_4
REMARK    3  A    between atoms: C_4  and  C_6
REMARK    4  A    between atoms: C_17  and  N_18
REMARK    5  A    between atoms: N_18  and  C_19
REMARK    6  A    between atoms: C_22  and  N_23
REMARK    7  A    between atoms: N_23  and  C_24
REMARK                            x       y       z     vdW  Elec       q    Type
REMARK                         _______ _______ _______ _____ _____    ______ ____
ROOT
ATOM      1  C   UNL     1      37.685   1.571  12.754  0.00  0.00    +0.000 A 
ATOM      2  C   UNL     1      38.008   0.377  12.215  0.00  0.00    +0.000 A 
ATOM      3  N   UNL     1      37.682  -0.783  12.796  0.00  0.00    +0.000 NA
ATOM      4  C   UNL     1      37.008  -0.749  13.959  0.00  0.00    +0.000 A 
ATOM      5  C   UNL     1      36.656  -1.930  14.585  0.00  0.00    +0.000 A 
ATOM      6  C   UNL     1      37.035  -3.214  13.951  0.00  0.00    +0.000 C 
ATOM      7  C   UNL     1      35.963  -1.919  15.780  0.00  0.00    +0.000 A 
ATOM      8  C   UNL     1      35.613  -0.714  16.365  0.00  0.00    +0.000 A 
ATOM      9  C   UNL     1      34.870  -0.655  17.646  0.00  0.00    +0.000 C 
ATOM     10  C   UNL     1      35.965   0.438  15.740  0.00  0.00    +0.000 A 
ATOM     11  C   UNL     1      36.651   0.451  14.556  0.00  0.00    +0.000 A 
ATOM     12  C   UNL     1      36.982   1.650  13.967  0.00  0.00    +0.000 A 
ENDROOT
BRANCH   1  13
ATOM     13  C   UNL     1      38.082   2.787  12.051  0.00  0.00    +0.000 C 
ATOM     14  O   UNL     1      37.245   3.382  11.338  0.00  0.00    +0.000 OA
BRANCH  13  15
ATOM     15  O   UNL     1      39.362   3.296  12.155  0.00  0.00    +0.000 OA
BRANCH  15  17
ATOM     16  C   UNL     1      40.685   4.407  13.851  0.00  0.00    +0.000 C 
ATOM     17  C   UNL     1      40.151   3.096  13.324  0.00  0.00    +0.000 C 
ENDBRANCH  15  17
ENDBRANCH  13  15
ENDBRANCH   1  13
BRANCH  12  18
ATOM     18  N   UNL     1      36.711   2.908  14.414  0.00  0.00    +0.000 NA
BRANCH  18  19
ATOM     19  C   UNL     1      37.213   3.848  15.286  0.00  0.00    +0.000 A 
ATOM     20  C   UNL     1      37.277   5.195  14.847  0.00  0.00    +0.000 A 
ATOM     21  C   UNL     1      37.760   6.191  15.643  0.00  0.00    +0.000 A 
ATOM     22  C   UNL     1      38.217   5.958  16.918  0.00  0.00    +0.000 A 
ATOM     23  C   UNL     1      38.165   4.656  17.370  0.00  0.00    +0.000 A 
ATOM     24  C   UNL     1      37.678   3.659  16.564  0.00  0.00    +0.000 A 
BRANCH  22  25
ATOM     25  N   UNL     1      38.721   6.991  17.752  0.00  0.00    +0.000 NA
BRANCH  25  26
ATOM     26  C   UNL     1      39.993   6.817  18.347  0.00  0.00    +0.000 A 
ATOM     27  C   UNL     1      40.099   6.682  19.728  0.00  0.00    +0.000 A 
ATOM     28  C   UNL     1      41.325   6.511  20.338  0.00  0.00    +0.000 A 
ATOM     29  C   UNL     1      42.444   6.475  19.552  0.00  0.00    +0.000 A 
ATOM     30  C   UNL     1      42.354   6.607  18.184  0.00  0.00    +0.000 A 
ATOM     31  C   UNL     1      41.116   6.778  17.586  0.00  0.00    +0.000 A 
ENDBRANCH  25  26
ENDBRANCH  22  25
ENDBRANCH  18  19
ENDBRANCH  12  18
TORSDOF 7
ENDMDL
MODEL 8
REMARK VINA RESULT:      -7.4     23.984     28.164
REMARK  Name = 
REMARK  7 active torsions:
REMARK  status: ('A' for Active; 'I' for Inactive)
REMARK    1  A    between atoms: C_2  and  O_3
REMARK    2  A    between atoms: O_3  and  C_4
REMARK    3  A    between atoms: C_4  and  C_6
REMARK    4  A    between atoms: C_17  and  N_18
REMARK    5  A    between atoms: N_18  and  C_19
REMARK    6  A    between atoms: C_22  and  N_23
REMARK    7  A    between atoms: N_23  and  C_24
REMARK                            x       y       z     vdW  Elec       q    Type
REMARK                         _______ _______ _______ _____ _____    ______ ____
ROOT
ATOM      1  C   UNL     1      39.112  -1.104  15.257  0.00  0.00    +0.000 A 
ATOM      2  C   UNL     1      39.935  -2.170  15.331  0.00  0.00    +0.000 A 
ATOM      3  N   UNL     1      41.175  -2.154  14.829  0.00  0.00    +0.000 NA
ATOM      4  C   UNL     1      41.609  -1.031  14.231  0.00  0.00    +0.000 A 
ATOM      5  C   UNL     1      42.885  -0.981  13.703  0.00  0.00    +0.000 A 
ATOM      6  C   UNL     1      43.749  -2.180  13.811  0.00  0.00    +0.000 C 
ATOM      7  C   UNL     1      43.351   0.162  13.083  0.00  0.00    +0.000 A 
ATOM      8  C   UNL     1      42.537   1.278  12.986  0.00  0.00    +0.000 A 
ATOM      9  C   UNL     1      42.996   2.525  12.331  0.00  0.00    +0.000 C 
ATOM     10  C   UNL     1      41.287   1.216  13.510  0.00  0.00    +0.000 A 
ATOM     11  C   UNL     1      40.803   0.094  14.128  0.00  0.00    +0.000 A 
ATOM     12  C   UNL     1      39.526   0.088  14.640  0.00  0.00    +0.000 A 
ENDROOT
BRANCH   1  13
ATOM     13  C   UNL     1      37.774  -1.210  15.832  0.00  0.00    +0.000 C 
ATOM     14  O   UNL     1      36.834  -1.626  15.121  0.00  0.00    +0.000 OA
BRANCH  13  15
ATOM     15  O   UNL     1      37.524  -0.860  17.145  0.00  0.00    +0.000 OA
BRANCH  15  17
ATOM     16  C   UNL     1      36.245   0.293  18.846  0.00  0.00    +0.000 C 
ATOM     17  C   UNL     1      36.209  -0.559  17.598  0.00  0.00    +0.000 C 
ENDBRANCH  15  17
ENDBRANCH  13  15
ENDBRANCH   1  13
BRANCH  12  18
ATOM     18  N   UNL     1      38.611   1.097  14.624  0.00  0.00    +0.000 NA
BRANCH  18  19
ATOM     19  C   UNL     1      38.438   2.373  15.113  0.00  0.00    +0.000 A 
ATOM     20  C   UNL     1      39.359   3.371  14.706  0.00  0.00    +0.000 A 
ATOM     21  C   UNL     1      39.264   4.659  15.142  0.00  0.00    +0.000 A 
ATOM     22  C   UNL     1      38.275   5.076  16.002  0.00  0.00    +0.000 A 
ATOM     23  C   UNL     1      37.365   4.124  16.412  0.00  0.00    +0.000 A 
ATOM     24  C   UNL     1      37.467   2.829  15.970  0.00  0.00    +0.000 A 
BRANCH  22  25
ATOM     25  N   UNL     1      38.171   6.416  16.459  0.00  0.00    +0.000 NA
BRANCH  25  26
ATOM     26  C   UNL     1      38.608   6.718  17.770  0.00  0.00    +0.000 A 
ATOM     27  C   UNL     1      39.660   6.000  18.332  0.00  0.00    +0.000 A 
ATOM     28  C   UNL     1      40.109   6.271  19.608  0.00  0.00    +0.000 A 
ATOM     29  C   UNL     1      39.496   7.267  20.316  0.00  0.00    +0.000 A 
ATOM     30  C   UNL     1      38.454   7.986  19.773  0.00  0.00    +0.000 A 
ATOM     31  C   UNL     1      38.014   7.702  18.491  0.00  0.00    +0.000 A 
ENDBRANCH  25  26
ENDBRANCH  22  25
ENDBRANCH  18  19
ENDBRANCH  12  18
TORSDOF 7
ENDMDL
MODEL 9
REMARK VINA RESULT:      -7.4     22.750     27.977
REMARK  Name = 
REMARK  7 active torsions:
REMARK  status: ('A' for Active; 'I' for Inactive)
REMARK    1  A    between atoms: C_2  and  O_3
REMARK    2  A    between atoms: O_3  and  C_4
REMARK    3  A    between atoms: C_4  and  C_6
REMARK    4  A    between atoms: C_17  and  N_18
REMARK    5  A    between atoms: N_18  and  C_19
REMARK    6  A    between atoms: C_22  and  N_23
REMARK    7  A    between atoms: N_23  and  C_24
REMARK                            x       y       z     vdW  Elec       q    Type
REMARK                         _______ _______ _______ _____ _____    ______ ____
ROOT
ATOM      1  C   UNL     1      36.825   0.591  14.719  0.00  0.00    +0.000 A 
ATOM      2  C   UNL     1      35.826   1.081  15.482  0.00  0.00    +0.000 A 
ATOM      3  N   UNL     1      35.593   0.644  16.724  0.00  0.00    +0.000 NA
ATOM      4  C   UNL     1      36.388  -0.320  17.223  0.00  0.00    +0.000 A 
ATOM      5  C   UNL     1      36.175  -0.793  18.503  0.00  0.00    +0.000 A 
ATOM      6  C   UNL     1      35.064  -0.222  19.300  0.00  0.00    +0.000 C 
ATOM      7  C   UNL     1      36.979  -1.782  19.036  0.00  0.00    +0.000 A 
ATOM      8  C   UNL     1      38.014  -2.311  18.285  0.00  0.00    +0.000 A 
ATOM      9  C   UNL     1      38.901  -3.372  18.816  0.00  0.00    +0.000 C 
ATOM     10  C   UNL     1      38.213  -1.836  17.029  0.00  0.00    +0.000 A 
ATOM     11  C   UNL     1      37.429  -0.858  16.481  0.00  0.00    +0.000 A 
ATOM     12  C   UNL     1      37.677  -0.415  15.202  0.00  0.00    +0.000 A 
ENDROOT
BRANCH   1  13
ATOM     13  C   UNL     1      37.006   1.128  13.373  0.00  0.00    +0.000 C 
ATOM     14  O   UNL     1      36.662   0.440  12.388  0.00  0.00    +0.000 OA
BRANCH  13  15
ATOM     15  O   UNL     1      37.550   2.381  13.164  0.00  0.00    +0.000 OA
BRANCH  15  17
ATOM     16  C   UNL     1      38.218   4.000  14.835  0.00  0.00    +0.000 C 
ATOM     17  C   UNL     1      38.643   2.858  13.941  0.00  0.00    +0.000 C 
ENDBRANCH  15  17
ENDBRANCH  13  15
ENDBRANCH   1  13
BRANCH  12  18
ATOM     18  N   UNL     1      38.649  -0.832  14.343  0.00  0.00    +0.000 NA
BRANCH  18  19
ATOM     19  C   UNL     1      40.010  -1.038  14.310  0.00  0.00    +0.000 A 
ATOM     20  C   UNL     1      40.849   0.089  14.115  0.00  0.00    +0.000 A 
ATOM     21  C   UNL     1      42.207  -0.024  14.069  0.00  0.00    +0.000 A 
ATOM     22  C   UNL     1      42.852  -1.229  14.207  0.00  0.00    +0.000 A 
ATOM     23  C   UNL     1      42.059  -2.341  14.399  0.00  0.00    +0.000 A 
ATOM     24  C   UNL     1      40.693  -2.222  14.444  0.00  0.00    +0.000 A 
BRANCH  22  25
ATOM     25  N   UNL     1      44.266  -1.352  14.160  0.00  0.00    +0.000 NA
BRANCH  25  26
ATOM     26  C   UNL     1      44.984  -1.354  15.380  0.00  0.00    +0.000 A 
ATOM     27  C   UNL     1      45.149  -0.168  16.089  0.00  0.00    +0.000 A 
ATOM     28  C   UNL     1      45.844  -0.139  17.280  0.00  0.00    +0.000 A 
ATOM     29  C   UNL     1      46.371  -1.307  17.756  0.00  0.00    +0.000 A 
ATOM     30  C   UNL     1      46.215  -2.489  17.065  0.00  0.00    +0.000 A 
ATOM     31  C   UNL     1      45.515  -2.503  15.870  0.00  0.00    +0.000 A 
ENDBRANCH  25  26
ENDBRANCH  22  25
ENDBRANCH  18  19
ENDBRANCH  12  18
TORSDOF 7
ENDMDL
MODEL 10
REMARK VINA RESULT:      -7.4     23.530     27.031
REMARK  Name = 
REMARK  7 active torsions:
REMARK  status: ('A' for Active; 'I' for Inactive)
REMARK    1  A    between atoms: C_2  and  O_3
REMARK    2  A    between atoms: O_3  and  C_4
REMARK    3  A    between atoms: C_4  and  C_6
REMARK    4  A    between atoms: C_17  and  N_18
REMARK    5  A    between atoms: N_18  and  C_19
REMARK    6  A    between atoms: C_22  and  N_23
REMARK    7  A    between atoms: N_23  and  C_24
REMARK                            x       y       z     vdW  Elec       q    Type
REMARK                         _______ _______ _______ _____ _____    ______ ____
ROOT
ATOM      1  C   UNL     1      38.566  -2.033  15.946  0.00  0.00    +0.000 A 
ATOM      2  C   UNL     1      39.639  -2.850  15.962  0.00  0.00    +0.000 A 
ATOM      3  N   UNL     1      40.476  -2.954  14.924  0.00  0.00    +0.000 NA
ATOM      4  C   UNL     1      40.231  -2.215  13.828  0.00  0.00    +0.000 A 
ATOM      5  C   UNL     1      41.076  -2.299  12.738  0.00  0.00    +0.000 A 
ATOM      6  C   UNL     1      42.241  -3.211  12.807  0.00  0.00    +0.000 C 
ATOM      7  C   UNL     1      40.844  -1.548  11.601  0.00  0.00    +0.000 A 
ATOM      8  C   UNL     1      39.752  -0.698  11.545  0.00  0.00    +0.000 A 
ATOM      9  C   UNL     1      39.465   0.125  10.347  0.00  0.00    +0.000 C 
ATOM     10  C   UNL     1      38.930  -0.625  12.622  0.00  0.00    +0.000 A 
ATOM     11  C   UNL     1      39.141  -1.359  13.759  0.00  0.00    +0.000 A 
ATOM     12  C   UNL     1      38.274  -1.245  14.821  0.00  0.00    +0.000 A 
ENDROOT
BRANCH   1  13
ATOM     13  C   UNL     1      37.706  -1.982  17.125  0.00  0.00    +0.000 C 
ATOM     14  O   UNL     1      36.817  -2.849  17.272  0.00  0.00    +0.000 OA
BRANCH  13  15
ATOM     15  O   UNL     1      37.852  -0.997  18.082  0.00  0.00    +0.000 OA
BRANCH  15  17
ATOM     16  C   UNL     1      35.836   0.267  18.527  0.00  0.00    +0.000 C 
ATOM     17  C   UNL     1      36.838  -0.738  19.047  0.00  0.00    +0.000 C 
ENDBRANCH  15  17
ENDBRANCH  13  15
ENDBRANCH   1  13
BRANCH  12  18
ATOM     18  N   UNL     1      37.165  -0.459  14.919  0.00  0.00    +0.000 NA
BRANCH  18  19
ATOM     19  C   UNL     1      36.814   0.872  14.943  0.00  0.00    +0.000 A 
ATOM     20  C   UNL     1      37.854   1.833  15.032  0.00  0.00    +0.000 A 
ATOM     21  C   UNL     1      37.598   3.171  15.063  0.00  0.00    +0.000 A 
ATOM     22  C   UNL     1      36.321   3.679  15.009  0.00  0.00    +0.000 A 
ATOM     23  C   UNL     1      35.292   2.766  14.921  0.00  0.00    +0.000 A 
ATOM     24  C   UNL     1      35.556   1.420  14.891  0.00  0.00    +0.000 A 
BRANCH  22  25
ATOM     25  N   UNL     1      36.049   5.072  15.040  0.00  0.00    +0.000 NA
BRANCH  25  26
ATOM     26  C   UNL     1      35.501   5.679  13.885  0.00  0.00    +0.000 A 
ATOM     27  C   UNL     1      34.305   6.384  13.974  0.00  0.00    +0.000 A 
ATOM     28  C   UNL     1      33.747   6.987  12.865  0.00  0.00    +0.000 A 
ATOM     29  C   UNL     1      34.397   6.878  11.668  0.00  0.00    +0.000 A 
ATOM     30  C   UNL     1      35.583   6.183  11.565  0.00  0.00    +0.000 A 
ATOM     31  C   UNL     1      36.131   5.583  12.686  0.00  0.00    +0.000 A 
ENDBRANCH  25  26
ENDBRANCH  22  25
ENDBRANCH  18  19
ENDBRANCH  12  18
TORSDOF 7
ENDMDL
