MODEL 1
REMARK VINA RESULT:      -7.5      0.000      0.000
REMARK  Name = 
REMARK  3 active torsions:
REMARK  status: ('A' for Active; 'I' for Inactive)
REMARK    1  A    between atoms: C_2  and  O_3
REMARK    2  A    between atoms: C_2  and  C_15
REMARK    3  A    between atoms: O_3  and  C_4
REMARK                            x       y       z     vdW  Elec       q    Type
REMARK                         _______ _______ _______ _____ _____    ______ ____
ROOT
ATOM      1  C   UNL     1      16.509  10.996  35.456  0.00  0.00    +0.000 A 
ATOM      2  C   UNL     1      17.279  10.204  34.636  0.00  0.00    +0.000 A 
ATOM      3  C   UNL     1      17.117  10.265  33.268  0.00  0.00    +0.000 A 
ATOM      4  C   UNL     1      16.189  11.114  32.705  0.00  0.00    +0.000 A 
ATOM      5  C   UNL     1      16.024  11.178  31.328  0.00  0.00    +0.000 A 
ATOM      6  C   UNL     1      15.086  12.039  30.798  0.00  0.00    +0.000 A 
ATOM      7  C   UNL     1      14.287  12.856  31.575  0.00  0.00    +0.000 A 
ATOM      8  O   UNL     1      13.351  13.711  30.980  0.00  0.00    +0.000 OA
ATOM      9  C   UNL     1      14.454  12.790  32.945  0.00  0.00    +0.000 A 
ATOM     10  C   UNL     1      15.400  11.922  33.496  0.00  0.00    +0.000 A 
ATOM     11  C   UNL     1      15.590  11.834  34.859  0.00  0.00    +0.000 A 
ENDROOT
BRANCH   1  12
ATOM     12  O   UNL     1      16.655  10.951  36.857  0.00  0.00    +0.000 OA
BRANCH  12  14
ATOM     13  O   UNL     1      17.989  12.726  37.258  0.00  0.00    +0.000 OA
ATOM     14  C   UNL     1      17.772  11.499  37.467  0.00  0.00    +0.000 C 
BRANCH  14  15
ATOM     15  C   UNL     1      18.707  10.766  38.325  0.00  0.00    +0.000 C 
ATOM     16  C   UNL     1      19.222   9.509  37.704  0.00  0.00    +0.000 C 
ATOM     17  C   UNL     1      20.413   9.811  36.846  0.00  0.00    +0.000 C 
ATOM     18  C   UNL     1      21.475  10.608  37.576  0.00  0.00    +0.000 C 
ATOM     19  C   UNL     1      20.829  11.946  37.961  0.00  0.00    +0.000 C 
ATOM     20  C   UNL     1      19.753  11.611  38.972  0.00  0.00    +0.000 C 
ENDBRANCH  14  15
ENDBRANCH  12  14
ENDBRANCH   1  12
TORSDOF 3
ENDMDL
MODEL 2
REMARK VINA RESULT:      -7.1      2.191      3.097
REMARK  Name = 
REMARK  3 active torsions:
REMARK  status: ('A' for Active; 'I' for Inactive)
REMARK    1  A    between atoms: C_2  and  O_3
REMARK    2  A    between atoms: C_2  and  C_15
REMARK    3  A    between atoms: O_3  and  C_4
REMARK                            x       y       z     vdW  Elec       q    Type
REMARK                         _______ _______ _______ _____ _____    ______ ____
ROOT
ATOM      1  C   UNL     1      17.060  10.136  37.045  0.00  0.00    +0.000 A 
ATOM      2  C   UNL     1      17.881   9.305  36.319  0.00  0.00    +0.000 A 
ATOM      3  C   UNL     1      17.857   9.345  34.940  0.00  0.00    +0.000 A 
ATOM      4  C   UNL     1      17.018  10.211  34.274  0.00  0.00    +0.000 A 
ATOM      5  C   UNL     1      16.991  10.253  32.887  0.00  0.00    +0.000 A 
ATOM      6  C   UNL     1      16.139  11.131  32.252  0.00  0.00    +0.000 A 
ATOM      7  C   UNL     1      15.293  11.986  32.933  0.00  0.00    +0.000 A 
ATOM      8  O   UNL     1      14.448  12.857  32.234  0.00  0.00    +0.000 OA
ATOM      9  C   UNL     1      15.321  11.942  34.313  0.00  0.00    +0.000 A 
ATOM     10  C   UNL     1      16.180  11.057  34.970  0.00  0.00    +0.000 A 
ATOM     11  C   UNL     1      16.231  10.989  36.346  0.00  0.00    +0.000 A 
ENDROOT
BRANCH   1  12
ATOM     12  O   UNL     1      17.065  10.113  38.454  0.00  0.00    +0.000 OA
BRANCH  12  14
ATOM     13  O   UNL     1      19.066  11.133  38.678  0.00  0.00    +0.000 OA
ATOM     14  C   UNL     1      18.244  10.301  39.158  0.00  0.00    +0.000 C 
BRANCH  14  15
ATOM     15  C   UNL     1      18.600   9.612  40.400  0.00  0.00    +0.000 C 
ATOM     16  C   UNL     1      17.445   9.427  41.330  0.00  0.00    +0.000 C 
ATOM     17  C   UNL     1      16.698   8.177  40.976  0.00  0.00    +0.000 C 
ATOM     18  C   UNL     1      17.599   6.962  40.876  0.00  0.00    +0.000 C 
ATOM     19  C   UNL     1      18.591   7.247  39.740  0.00  0.00    +0.000 C 
ATOM     20  C   UNL     1      19.450   8.398  40.218  0.00  0.00    +0.000 C 
ENDBRANCH  14  15
ENDBRANCH  12  14
ENDBRANCH   1  12
TORSDOF 3
ENDMDL
MODEL 3
REMARK VINA RESULT:      -7.0     17.795     18.762
REMARK  Name = 
REMARK  3 active torsions:
REMARK  status: ('A' for Active; 'I' for Inactive)
REMARK    1  A    between atoms: C_2  and  O_3
REMARK    2  A    between atoms: C_2  and  C_15
REMARK    3  A    between atoms: O_3  and  C_4
REMARK                            x       y       z     vdW  Elec       q    Type
REMARK                         _______ _______ _______ _____ _____    ______ ____
ROOT
ATOM      1  C   UNL     1      28.289  22.493  26.353  0.00  0.00    +0.000 A 
ATOM      2  C   UNL     1      26.924  22.582  26.207  0.00  0.00    +0.000 A 
ATOM      3  C   UNL     1      26.386  23.038  25.022  0.00  0.00    +0.000 A 
ATOM      4  C   UNL     1      27.200  23.407  23.973  0.00  0.00    +0.000 A 
ATOM      5  C   UNL     1      26.661  23.865  22.779  0.00  0.00    +0.000 A 
ATOM      6  C   UNL     1      27.505  24.226  21.749  0.00  0.00    +0.000 A 
ATOM      7  C   UNL     1      28.881  24.157  21.843  0.00  0.00    +0.000 A 
ATOM      8  O   UNL     1      29.689  24.538  20.764  0.00  0.00    +0.000 OA
ATOM      9  C   UNL     1      29.415  23.700  23.032  0.00  0.00    +0.000 A 
ATOM     10  C   UNL     1      28.572  23.331  24.084  0.00  0.00    +0.000 A 
ATOM     11  C   UNL     1      29.075  22.872  25.284  0.00  0.00    +0.000 A 
ENDROOT
BRANCH   1  12
ATOM     12  O   UNL     1      28.864  22.032  27.555  0.00  0.00    +0.000 OA
BRANCH  12  14
ATOM     13  O   UNL     1      30.674  23.279  28.065  0.00  0.00    +0.000 OA
ATOM     14  C   UNL     1      29.515  22.910  28.406  0.00  0.00    +0.000 C 
BRANCH  14  15
ATOM     15  C   UNL     1      28.961  23.434  29.658  0.00  0.00    +0.000 C 
ATOM     16  C   UNL     1      28.261  24.743  29.496  0.00  0.00    +0.000 C 
ATOM     17  C   UNL     1      26.838  24.517  29.086  0.00  0.00    +0.000 C 
ATOM     18  C   UNL     1      26.111  23.547  29.995  0.00  0.00    +0.000 C 
ATOM     19  C   UNL     1      26.846  22.205  29.879  0.00  0.00    +0.000 C 
ATOM     20  C   UNL     1      28.218  22.431  30.477  0.00  0.00    +0.000 C 
ENDBRANCH  14  15
ENDBRANCH  12  14
ENDBRANCH   1  12
TORSDOF 3
ENDMDL
MODEL 4
REMARK VINA RESULT:      -6.9     18.455     20.299
REMARK  Name = 
REMARK  3 active torsions:
REMARK  status: ('A' for Active; 'I' for Inactive)
REMARK    1  A    between atoms: C_2  and  O_3
REMARK    2  A    between atoms: C_2  and  C_15
REMARK    3  A    between atoms: O_3  and  C_4
REMARK                            x       y       z     vdW  Elec       q    Type
REMARK                         _______ _______ _______ _____ _____    ______ ____
ROOT
ATOM      1  C   UNL     1      29.404  22.759  24.350  0.00  0.00    +0.000 A 
ATOM      2  C   UNL     1      30.757  22.970  24.486  0.00  0.00    +0.000 A 
ATOM      3  C   UNL     1      31.318  23.057  25.743  0.00  0.00    +0.000 A 
ATOM      4  C   UNL     1      30.540  22.935  26.873  0.00  0.00    +0.000 A 
ATOM      5  C   UNL     1      31.101  23.021  28.139  0.00  0.00    +0.000 A 
ATOM      6  C   UNL     1      30.293  22.895  29.250  0.00  0.00    +0.000 A 
ATOM      7  C   UNL     1      28.930  22.683  29.169  0.00  0.00    +0.000 A 
ATOM      8  O   UNL     1      28.158  22.562  30.332  0.00  0.00    +0.000 OA
ATOM      9  C   UNL     1      28.374  22.597  27.908  0.00  0.00    +0.000 A 
ATOM     10  C   UNL     1      29.181  22.724  26.774  0.00  0.00    +0.000 A 
ATOM     11  C   UNL     1      28.655  22.642  25.502  0.00  0.00    +0.000 A 
ENDROOT
BRANCH   1  12
ATOM     12  O   UNL     1      28.807  22.668  23.076  0.00  0.00    +0.000 OA
BRANCH  12  14
ATOM     13  O   UNL     1      29.580  24.288  21.708  0.00  0.00    +0.000 OA
ATOM     14  C   UNL     1      28.584  23.807  22.320  0.00  0.00    +0.000 C 
BRANCH  14  15
ATOM     15  C   UNL     1      27.292  24.485  22.182  0.00  0.00    +0.000 C 
ATOM     16  C   UNL     1      26.122  23.570  22.340  0.00  0.00    +0.000 C 
ATOM     17  C   UNL     1      25.773  23.430  23.790  0.00  0.00    +0.000 C 
ATOM     18  C   UNL     1      25.599  24.766  24.485  0.00  0.00    +0.000 C 
ATOM     19  C   UNL     1      26.954  25.481  24.401  0.00  0.00    +0.000 C 
ATOM     20  C   UNL     1      27.180  25.771  22.932  0.00  0.00    +0.000 C 
ENDBRANCH  14  15
ENDBRANCH  12  14
ENDBRANCH   1  12
TORSDOF 3
ENDMDL
MODEL 5
REMARK VINA RESULT:      -6.8     18.269     19.798
REMARK  Name = 
REMARK  3 active torsions:
REMARK  status: ('A' for Active; 'I' for Inactive)
REMARK    1  A    between atoms: C_2  and  O_3
REMARK    2  A    between atoms: C_2  and  C_15
REMARK    3  A    between atoms: O_3  and  C_4
REMARK                            x       y       z     vdW  Elec       q    Type
REMARK                         _______ _______ _______ _____ _____    ______ ____
ROOT
ATOM      1  C   UNL     1      26.359  23.559  24.760  0.00  0.00    +0.000 A 
ATOM      2  C   UNL     1      25.626  24.699  24.526  0.00  0.00    +0.000 A 
ATOM      3  C   UNL     1      25.120  25.424  25.585  0.00  0.00    +0.000 A 
ATOM      4  C   UNL     1      25.340  25.020  26.885  0.00  0.00    +0.000 A 
ATOM      5  C   UNL     1      24.832  25.747  27.953  0.00  0.00    +0.000 A 
ATOM      6  C   UNL     1      25.070  25.315  29.241  0.00  0.00    +0.000 A 
ATOM      7  C   UNL     1      25.799  24.178  29.531  0.00  0.00    +0.000 A 
ATOM      8  O   UNL     1      26.009  23.787  30.860  0.00  0.00    +0.000 OA
ATOM      9  C   UNL     1      26.302  23.456  28.467  0.00  0.00    +0.000 A 
ATOM     10  C   UNL     1      26.069  23.882  27.156  0.00  0.00    +0.000 A 
ATOM     11  C   UNL     1      26.558  23.183  26.073  0.00  0.00    +0.000 A 
ENDROOT
BRANCH   1  12
ATOM     12  O   UNL     1      26.885  22.801  23.695  0.00  0.00    +0.000 OA
BRANCH  12  14
ATOM     13  O   UNL     1      26.576  23.721  21.658  0.00  0.00    +0.000 OA
ATOM     14  C   UNL     1      27.399  23.428  22.571  0.00  0.00    +0.000 C 
BRANCH  14  15
ATOM     15  C   UNL     1      28.809  23.769  22.370  0.00  0.00    +0.000 C 
ATOM     16  C   UNL     1      29.016  24.922  21.444  0.00  0.00    +0.000 C 
ATOM     17  C   UNL     1      28.923  26.211  22.202  0.00  0.00    +0.000 C 
ATOM     18  C   UNL     1      29.822  26.243  23.422  0.00  0.00    +0.000 C 
ATOM     19  C   UNL     1      29.335  25.122  24.350  0.00  0.00    +0.000 C 
ATOM     20  C   UNL     1      29.621  23.826  23.622  0.00  0.00    +0.000 C 
ENDBRANCH  14  15
ENDBRANCH  12  14
ENDBRANCH   1  12
TORSDOF 3
ENDMDL
MODEL 6
REMARK VINA RESULT:      -6.8      3.655      8.030
REMARK  Name = 
REMARK  3 active torsions:
REMARK  status: ('A' for Active; 'I' for Inactive)
REMARK    1  A    between atoms: C_2  and  O_3
REMARK    2  A    between atoms: C_2  and  C_15
REMARK    3  A    between atoms: O_3  and  C_4
REMARK                            x       y       z     vdW  Elec       q    Type
REMARK                         _______ _______ _______ _____ _____    ______ ____
ROOT
ATOM      1  C   UNL     1      18.152   9.405  39.058  0.00  0.00    +0.000 A 
ATOM      2  C   UNL     1      17.092   9.712  39.879  0.00  0.00    +0.000 A 
ATOM      3  C   UNL     1      16.665   8.803  40.824  0.00  0.00    +0.000 A 
ATOM      4  C   UNL     1      17.290   7.582  40.961  0.00  0.00    +0.000 A 
ATOM      5  C   UNL     1      16.864   6.665  41.911  0.00  0.00    +0.000 A 
ATOM      6  C   UNL     1      17.511   5.452  42.022  0.00  0.00    +0.000 A 
ATOM      7  C   UNL     1      18.581   5.094  41.223  0.00  0.00    +0.000 A 
ATOM      8  O   UNL     1      19.200   3.847  41.380  0.00  0.00    +0.000 OA
ATOM      9  C   UNL     1      19.003   6.008  40.278  0.00  0.00    +0.000 A 
ATOM     10  C   UNL     1      18.356   7.241  40.155  0.00  0.00    +0.000 A 
ATOM     11  C   UNL     1      18.754   8.174  39.222  0.00  0.00    +0.000 A 
ENDROOT
BRANCH   1  12
ATOM     12  O   UNL     1      18.606  10.317  38.084  0.00  0.00    +0.000 OA
BRANCH  12  14
ATOM     13  O   UNL     1      17.747  12.238  37.270  0.00  0.00    +0.000 OA
ATOM     14  C   UNL     1      17.705  10.976  37.262  0.00  0.00    +0.000 C 
BRANCH  14  15
ATOM     15  C   UNL     1      16.720  10.319  36.398  0.00  0.00    +0.000 C 
ATOM     16  C   UNL     1      15.792  11.274  35.722  0.00  0.00    +0.000 C 
ATOM     17  C   UNL     1      16.411  11.778  34.453  0.00  0.00    +0.000 C 
ATOM     18  C   UNL     1      16.897  10.661  33.552  0.00  0.00    +0.000 C 
ATOM     19  C   UNL     1      17.985   9.913  34.333  0.00  0.00    +0.000 C 
ATOM     20  C   UNL     1      17.282   9.263  35.505  0.00  0.00    +0.000 C 
ENDBRANCH  14  15
ENDBRANCH  12  14
ENDBRANCH   1  12
TORSDOF 3
ENDMDL
MODEL 7
REMARK VINA RESULT:      -6.7      3.554      4.763
REMARK  Name = 
REMARK  3 active torsions:
REMARK  status: ('A' for Active; 'I' for Inactive)
REMARK    1  A    between atoms: C_2  and  O_3
REMARK    2  A    between atoms: C_2  and  C_15
REMARK    3  A    between atoms: O_3  and  C_4
REMARK                            x       y       z     vdW  Elec       q    Type
REMARK                         _______ _______ _______ _____ _____    ______ ____
ROOT
ATOM      1  C   UNL     1      17.867   9.790  38.366  0.00  0.00    +0.000 A 
ATOM      2  C   UNL     1      18.509   9.184  37.311  0.00  0.00    +0.000 A 
ATOM      3  C   UNL     1      18.154   9.497  36.015  0.00  0.00    +0.000 A 
ATOM      4  C   UNL     1      17.158  10.415  35.759  0.00  0.00    +0.000 A 
ATOM      5  C   UNL     1      16.799  10.732  34.456  0.00  0.00    +0.000 A 
ATOM      6  C   UNL     1      15.798  11.654  34.235  0.00  0.00    +0.000 A 
ATOM      7  C   UNL     1      15.120  12.291  35.257  0.00  0.00    +0.000 A 
ATOM      8  O   UNL     1      14.111  13.220  34.972  0.00  0.00    +0.000 OA
ATOM      9  C   UNL     1      15.480  11.973  36.552  0.00  0.00    +0.000 A 
ATOM     10  C   UNL     1      16.493  11.040  36.791  0.00  0.00    +0.000 A 
ATOM     11  C   UNL     1      16.874  10.703  38.073  0.00  0.00    +0.000 A 
ENDROOT
BRANCH   1  12
ATOM     12  O   UNL     1      18.211   9.486  39.698  0.00  0.00    +0.000 OA
BRANCH  12  14
ATOM     13  O   UNL     1      18.622   7.320  40.180  0.00  0.00    +0.000 OA
ATOM     14  C   UNL     1      17.815   8.288  40.272  0.00  0.00    +0.000 C 
BRANCH  14  15
ATOM     15  C   UNL     1      16.545   8.069  40.968  0.00  0.00    +0.000 C 
ATOM     16  C   UNL     1      16.602   6.970  41.978  0.00  0.00    +0.000 C 
ATOM     17  C   UNL     1      17.103   7.502  43.286  0.00  0.00    +0.000 C 
ATOM     18  C   UNL     1      16.337   8.722  43.757  0.00  0.00    +0.000 C 
ATOM     19  C   UNL     1      16.557   9.811  42.698  0.00  0.00    +0.000 C 
ATOM     20  C   UNL     1      15.872   9.314  41.444  0.00  0.00    +0.000 C 
ENDBRANCH  14  15
ENDBRANCH  12  14
ENDBRANCH   1  12
TORSDOF 3
ENDMDL
MODEL 8
REMARK VINA RESULT:      -6.7     18.729     20.486
REMARK  Name = 
REMARK  3 active torsions:
REMARK  status: ('A' for Active; 'I' for Inactive)
REMARK    1  A    between atoms: C_2  and  O_3
REMARK    2  A    between atoms: C_2  and  C_15
REMARK    3  A    between atoms: O_3  and  C_4
REMARK                            x       y       z     vdW  Elec       q    Type
REMARK                         _______ _______ _______ _____ _____    ______ ____
ROOT
ATOM      1  C   UNL     1      28.966  22.809  24.362  0.00  0.00    +0.000 A 
ATOM      2  C   UNL     1      30.340  22.799  24.431  0.00  0.00    +0.000 A 
ATOM      3  C   UNL     1      30.969  22.771  25.658  0.00  0.00    +0.000 A 
ATOM      4  C   UNL     1      30.237  22.754  26.825  0.00  0.00    +0.000 A 
ATOM      5  C   UNL     1      30.867  22.726  28.062  0.00  0.00    +0.000 A 
ATOM      6  C   UNL     1      30.104  22.709  29.211  0.00  0.00    +0.000 A 
ATOM      7  C   UNL     1      28.722  22.720  29.198  0.00  0.00    +0.000 A 
ATOM      8  O   UNL     1      27.999  22.702  30.398  0.00  0.00    +0.000 OA
ATOM      9  C   UNL     1      28.098  22.748  27.966  0.00  0.00    +0.000 A 
ATOM     10  C   UNL     1      28.858  22.765  26.794  0.00  0.00    +0.000 A 
ATOM     11  C   UNL     1      28.264  22.792  25.550  0.00  0.00    +0.000 A 
ENDROOT
BRANCH   1  12
ATOM     12  O   UNL     1      28.300  22.839  23.120  0.00  0.00    +0.000 OA
BRANCH  12  14
ATOM     13  O   UNL     1      26.049  22.991  23.154  0.00  0.00    +0.000 OA
ATOM     14  C   UNL     1      27.145  23.587  22.957  0.00  0.00    +0.000 C 
BRANCH  14  15
ATOM     15  C   UNL     1      27.107  25.002  22.578  0.00  0.00    +0.000 C 
ATOM     16  C   UNL     1      27.152  25.932  23.745  0.00  0.00    +0.000 C 
ATOM     17  C   UNL     1      28.573  26.187  24.143  0.00  0.00    +0.000 C 
ATOM     18  C   UNL     1      29.440  26.629  22.980  0.00  0.00    +0.000 C 
ATOM     19  C   UNL     1      29.440  25.472  21.973  0.00  0.00    +0.000 C 
ATOM     20  C   UNL     1      28.022  25.370  21.456  0.00  0.00    +0.000 C 
ENDBRANCH  14  15
ENDBRANCH  12  14
ENDBRANCH   1  12
TORSDOF 3
ENDMDL
MODEL 9
REMARK VINA RESULT:      -6.7     21.195     22.783
REMARK  Name = 
REMARK  3 active torsions:
REMARK  status: ('A' for Active; 'I' for Inactive)
REMARK    1  A    between atoms: C_2  and  O_3
REMARK    2  A    between atoms: C_2  and  C_15
REMARK    3  A    between atoms: O_3  and  C_4
REMARK                            x       y       z     vdW  Elec       q    Type
REMARK                         _______ _______ _______ _____ _____    ______ ____
ROOT
ATOM      1  C   UNL     1      21.854  -8.947  25.515  0.00  0.00    +0.000 A 
ATOM      2  C   UNL     1      21.142  -9.854  26.265  0.00  0.00    +0.000 A 
ATOM      3  C   UNL     1      19.985  -9.462  26.905  0.00  0.00    +0.000 A 
ATOM      4  C   UNL     1      19.526  -8.166  26.803  0.00  0.00    +0.000 A 
ATOM      5  C   UNL     1      18.362  -7.769  27.446  0.00  0.00    +0.000 A 
ATOM      6  C   UNL     1      17.932  -6.464  27.324  0.00  0.00    +0.000 A 
ATOM      7  C   UNL     1      18.609  -5.514  26.583  0.00  0.00    +0.000 A 
ATOM      8  O   UNL     1      18.124  -4.203  26.495  0.00  0.00    +0.000 OA
ATOM      9  C   UNL     1      19.767  -5.912  25.945  0.00  0.00    +0.000 A 
ATOM     10  C   UNL     1      20.215  -7.231  26.061  0.00  0.00    +0.000 A 
ATOM     11  C   UNL     1      21.367  -7.658  25.435  0.00  0.00    +0.000 A 
ENDROOT
BRANCH   1  12
ATOM     12  O   UNL     1      23.040  -9.322  24.853  0.00  0.00    +0.000 OA
BRANCH  12  14
ATOM     13  O   UNL     1      22.406 -10.607  23.109  0.00  0.00    +0.000 OA
ATOM     14  C   UNL     1      23.035  -9.580  23.491  0.00  0.00    +0.000 C 
BRANCH  14  15
ATOM     15  C   UNL     1      23.700  -8.757  22.478  0.00  0.00    +0.000 C 
ATOM     16  C   UNL     1      23.593  -7.290  22.739  0.00  0.00    +0.000 C 
ATOM     17  C   UNL     1      24.690  -6.852  23.661  0.00  0.00    +0.000 C 
ATOM     18  C   UNL     1      26.063  -7.287  23.189  0.00  0.00    +0.000 C 
ATOM     19  C   UNL     1      26.054  -8.821  23.175  0.00  0.00    +0.000 C 
ATOM     20  C   UNL     1      25.068  -9.220  22.098  0.00  0.00    +0.000 C 
ENDBRANCH  14  15
ENDBRANCH  12  14
ENDBRANCH   1  12
TORSDOF 3
ENDMDL
MODEL 10
REMARK VINA RESULT:      -6.6     19.812     21.601
REMARK  Name = 
REMARK  3 active torsions:
REMARK  status: ('A' for Active; 'I' for Inactive)
REMARK    1  A    between atoms: C_2  and  O_3
REMARK    2  A    between atoms: C_2  and  C_15
REMARK    3  A    between atoms: O_3  and  C_4
REMARK                            x       y       z     vdW  Elec       q    Type
REMARK                         _______ _______ _______ _____ _____    ______ ____
ROOT
ATOM      1  C   UNL     1      29.683  22.879  24.236  0.00  0.00    +0.000 A 
ATOM      2  C   UNL     1      29.277  22.509  25.497  0.00  0.00    +0.000 A 
ATOM      3  C   UNL     1      30.085  22.768  26.585  0.00  0.00    +0.000 A 
ATOM      4  C   UNL     1      31.300  23.399  26.427  0.00  0.00    +0.000 A 
ATOM      5  C   UNL     1      32.114  23.662  27.520  0.00  0.00    +0.000 A 
ATOM      6  C   UNL     1      33.325  24.294  27.326  0.00  0.00    +0.000 A 
ATOM      7  C   UNL     1      33.780  24.686  26.082  0.00  0.00    +0.000 A 
ATOM      8  O   UNL     1      35.019  25.325  25.946  0.00  0.00    +0.000 OA
ATOM      9  C   UNL     1      32.967  24.423  24.996  0.00  0.00    +0.000 A 
ATOM     10  C   UNL     1      31.738  23.783  25.178  0.00  0.00    +0.000 A 
ATOM     11  C   UNL     1      30.905  23.507  24.114  0.00  0.00    +0.000 A 
ENDROOT
BRANCH   1  12
ATOM     12  O   UNL     1      28.877  22.624  23.108  0.00  0.00    +0.000 OA
BRANCH  12  14
ATOM     13  O   UNL     1      29.305  24.058  21.420  0.00  0.00    +0.000 OA
ATOM     14  C   UNL     1      28.472  23.660  22.282  0.00  0.00    +0.000 C 
BRANCH  14  15
ATOM     15  C   UNL     1      27.164  24.319  22.339  0.00  0.00    +0.000 C 
ATOM     16  C   UNL     1      26.063  23.415  22.789  0.00  0.00    +0.000 C 
ATOM     17  C   UNL     1      25.997  23.392  24.285  0.00  0.00    +0.000 C 
ATOM     18  C   UNL     1      25.931  24.779  24.892  0.00  0.00    +0.000 C 
ATOM     19  C   UNL     1      27.232  25.491  24.496  0.00  0.00    +0.000 C 
ATOM     20  C   UNL     1      27.170  25.661  22.993  0.00  0.00    +0.000 C 
ENDBRANCH  14  15
ENDBRANCH  12  14
ENDBRANCH   1  12
TORSDOF 3
ENDMDL
