MODEL 1
REMARK VINA RESULT:      -7.0      0.000      0.000
REMARK  Name = 
REMARK  8 active torsions:
REMARK  status: ('A' for Active; 'I' for Inactive)
REMARK    1  A    between atoms: C_2  and  O_3
REMARK    2  A    between atoms: O_3  and  C_4
REMARK    3  A    between atoms: C_4  and  C_6
REMARK    4  A    between atoms: C_8  and  C_9
REMARK    5  A    between atoms: N_15  and  C_16
REMARK    6  A    between atoms: C_16  and  C_17
REMARK    7  A    between atoms: C_17  and  C_18
REMARK    8  A    between atoms: N_20  and  C_21
REMARK                            x       y       z     vdW  Elec       q    Type
REMARK                         _______ _______ _______ _____ _____    ______ ____
ROOT
ATOM      1  C   UNL     1      36.913   6.883  14.232  0.00  0.00    +0.000 A 
ATOM      2  C   UNL     1      37.762   7.346  15.240  0.00  0.00    +0.000 A 
ATOM      3  C   UNL     1      38.226   6.254  15.973  0.00  0.00    +0.000 A 
ATOM      4  N   UNL     1      37.671   5.163  15.424  0.00  0.00    +0.000 N 
ATOM      5  C   UNL     1      36.888   5.515  14.389  0.00  0.00    +0.000 A 
ATOM      6  C   UNL     1      36.119   4.575  13.550  0.00  0.00    +0.000 C 
ENDROOT
BRANCH   3   7
ATOM      7  C   UNL     1      39.130   6.289  17.109  0.00  0.00    +0.000 A 
ATOM      8  C   UNL     1      40.501   6.218  17.001  0.00  0.00    +0.000 A 
ATOM      9  C   UNL     1      41.337   6.254  18.101  0.00  0.00    +0.000 A 
ATOM     10  C   UNL     1      40.792   6.363  19.343  0.00  0.00    +0.000 A 
ATOM     11  C   UNL     1      39.413   6.436  19.494  0.00  0.00    +0.000 A 
ATOM     12  C   UNL     1      38.590   6.398  18.368  0.00  0.00    +0.000 A 
ENDBRANCH   3   7
BRANCH   1  13
ATOM     13  C   UNL     1      36.207   7.684  13.233  0.00  0.00    +0.000 C 
ATOM     14  O   UNL     1      36.670   7.701  12.073  0.00  0.00    +0.000 OA
BRANCH  13  15
ATOM     15  O   UNL     1      35.079   8.407  13.503  0.00  0.00    +0.000 OA
BRANCH  15  17
ATOM     16  C   UNL     1      33.561   8.424  15.301  0.00  0.00    +0.000 C 
ATOM     17  C   UNL     1      33.862   7.825  13.948  0.00  0.00    +0.000 C 
ENDBRANCH  15  17
ENDBRANCH  13  15
ENDBRANCH   1  13
BRANCH   4  18
ATOM     18  C   UNL     1      37.902   3.814  15.901  0.00  0.00    +0.000 C 
BRANCH  18  19
ATOM     19  C   UNL     1      36.921   3.418  16.977  0.00  0.00    +0.000 C 
BRANCH  19  20
ATOM     20  C   UNL     1      36.330   2.110  16.616  0.00  0.00    +0.000 C 
ATOM     21  O   UNL     1      35.374   2.083  15.806  0.00  0.00    +0.000 OA
ATOM     22  N   UNL     1      36.795   0.879  17.146  0.00  0.00    +0.000 NA
BRANCH  22  23
ATOM     23  C   UNL     1      36.153  -0.318  16.730  0.00  0.00    +0.000 A 
ATOM     24  C   UNL     1      35.093  -0.866  17.440  0.00  0.00    +0.000 A 
ATOM     25  C   UNL     1      34.491  -2.031  17.007  0.00  0.00    +0.000 A 
ATOM     26  C   UNL     1      34.903  -2.693  15.873  0.00  0.00    +0.000 A 
ATOM     27  C   UNL     1      34.233  -3.948  15.431  0.00  0.00    +0.000 C 
ATOM     28  C   UNL     1      35.954  -2.154  15.163  0.00  0.00    +0.000 A 
ATOM     29  C   UNL     1      36.556  -0.989  15.597  0.00  0.00    +0.000 A 
ENDBRANCH  22  23
ENDBRANCH  19  20
ENDBRANCH  18  19
ENDBRANCH   4  18
TORSDOF 8
ENDMDL
MODEL 2
REMARK VINA RESULT:      -7.0     22.856     25.819
REMARK  Name = 
REMARK  8 active torsions:
REMARK  status: ('A' for Active; 'I' for Inactive)
REMARK    1  A    between atoms: C_2  and  O_3
REMARK    2  A    between atoms: O_3  and  C_4
REMARK    3  A    between atoms: C_4  and  C_6
REMARK    4  A    between atoms: C_8  and  C_9
REMARK    5  A    between atoms: N_15  and  C_16
REMARK    6  A    between atoms: C_16  and  C_17
REMARK    7  A    between atoms: C_17  and  C_18
REMARK    8  A    between atoms: N_20  and  C_21
REMARK                            x       y       z     vdW  Elec       q    Type
REMARK                         _______ _______ _______ _____ _____    ______ ____
ROOT
ATOM      1  C   UNL     1      26.122  14.937  38.526  0.00  0.00    +0.000 A 
ATOM      2  C   UNL     1      25.335  14.974  37.372  0.00  0.00    +0.000 A 
ATOM      3  C   UNL     1      26.101  15.477  36.322  0.00  0.00    +0.000 A 
ATOM      4  N   UNL     1      27.316  15.738  36.826  0.00  0.00    +0.000 N 
ATOM      5  C   UNL     1      27.350  15.424  38.134  0.00  0.00    +0.000 A 
ATOM      6  C   UNL     1      28.525  15.579  39.013  0.00  0.00    +0.000 C 
ENDROOT
BRANCH   3   7
ATOM      7  C   UNL     1      25.669  15.681  34.950  0.00  0.00    +0.000 A 
ATOM      8  C   UNL     1      25.239  16.891  34.453  0.00  0.00    +0.000 A 
ATOM      9  C   UNL     1      24.833  17.055  33.142  0.00  0.00    +0.000 A 
ATOM     10  C   UNL     1      24.857  15.984  32.304  0.00  0.00    +0.000 A 
ATOM     11  C   UNL     1      25.283  14.746  32.766  0.00  0.00    +0.000 A 
ATOM     12  C   UNL     1      25.689  14.605  34.095  0.00  0.00    +0.000 A 
ENDBRANCH   3   7
BRANCH   1  13
ATOM     13  C   UNL     1      25.722  14.480  39.855  0.00  0.00    +0.000 C 
ATOM     14  O   UNL     1      25.354  15.345  40.678  0.00  0.00    +0.000 OA
BRANCH  13  15
ATOM     15  O   UNL     1      25.731  13.169  40.238  0.00  0.00    +0.000 OA
BRANCH  15  17
ATOM     16  C   UNL     1      27.802  12.255  40.881  0.00  0.00    +0.000 C 
ATOM     17  C   UNL     1      26.441  12.687  41.371  0.00  0.00    +0.000 C 
ENDBRANCH  15  17
ENDBRANCH  13  15
ENDBRANCH   1  13
BRANCH   4  18
ATOM     18  C   UNL     1      28.413  16.280  36.049  0.00  0.00    +0.000 C 
BRANCH  18  19
ATOM     19  C   UNL     1      29.009  15.251  35.119  0.00  0.00    +0.000 C 
BRANCH  19  20
ATOM     20  C   UNL     1      30.277  14.765  35.707  0.00  0.00    +0.000 C 
ATOM     21  O   UNL     1      30.867  15.484  36.548  0.00  0.00    +0.000 OA
ATOM     22  N   UNL     1      30.862  13.519  35.363  0.00  0.00    +0.000 NA
BRANCH  22  23
ATOM     23  C   UNL     1      32.083  13.153  35.989  0.00  0.00    +0.000 A 
ATOM     24  C   UNL     1      33.308  13.631  35.543  0.00  0.00    +0.000 A 
ATOM     25  C   UNL     1      34.476  13.255  36.176  0.00  0.00    +0.000 A 
ATOM     26  C   UNL     1      34.485  12.406  37.259  0.00  0.00    +0.000 A 
ATOM     27  C   UNL     1      35.763  12.020  37.920  0.00  0.00    +0.000 C 
ATOM     28  C   UNL     1      33.273  11.929  37.708  0.00  0.00    +0.000 A 
ATOM     29  C   UNL     1      32.105  12.304  37.074  0.00  0.00    +0.000 A 
ENDBRANCH  22  23
ENDBRANCH  19  20
ENDBRANCH  18  19
ENDBRANCH   4  18
TORSDOF 8
ENDMDL
MODEL 3
REMARK VINA RESULT:      -6.8      2.975      8.847
REMARK  Name = 
REMARK  8 active torsions:
REMARK  status: ('A' for Active; 'I' for Inactive)
REMARK    1  A    between atoms: C_2  and  O_3
REMARK    2  A    between atoms: O_3  and  C_4
REMARK    3  A    between atoms: C_4  and  C_6
REMARK    4  A    between atoms: C_8  and  C_9
REMARK    5  A    between atoms: N_15  and  C_16
REMARK    6  A    between atoms: C_16  and  C_17
REMARK    7  A    between atoms: C_17  and  C_18
REMARK    8  A    between atoms: N_20  and  C_21
REMARK                            x       y       z     vdW  Elec       q    Type
REMARK                         _______ _______ _______ _____ _____    ______ ____
ROOT
ATOM      1  C   UNL     1      36.613  -1.200  16.128  0.00  0.00    +0.000 A 
ATOM      2  C   UNL     1      37.089  -1.296  14.818  0.00  0.00    +0.000 A 
ATOM      3  C   UNL     1      37.206  -0.011  14.288  0.00  0.00    +0.000 A 
ATOM      4  N   UNL     1      36.812   0.836  15.251  0.00  0.00    +0.000 N 
ATOM      5  C   UNL     1      36.456   0.150  16.351  0.00  0.00    +0.000 A 
ATOM      6  C   UNL     1      35.971   0.754  17.607  0.00  0.00    +0.000 C 
ENDROOT
BRANCH   3   7
ATOM      7  C   UNL     1      37.663   0.342  12.956  0.00  0.00    +0.000 A 
ATOM      8  C   UNL     1      36.833   0.790  11.953  0.00  0.00    +0.000 A 
ATOM      9  C   UNL     1      37.297   1.118  10.693  0.00  0.00    +0.000 A 
ATOM     10  C   UNL     1      38.625   0.996  10.425  0.00  0.00    +0.000 A 
ATOM     11  C   UNL     1      39.496   0.546  11.409  0.00  0.00    +0.000 A 
ATOM     12  C   UNL     1      39.003   0.221  12.674  0.00  0.00    +0.000 A 
ENDBRANCH   3   7
BRANCH   1  13
ATOM     13  C   UNL     1      36.344  -2.300  17.053  0.00  0.00    +0.000 C 
ATOM     14  O   UNL     1      35.171  -2.726  17.120  0.00  0.00    +0.000 OA
BRANCH  13  15
ATOM     15  O   UNL     1      37.300  -2.878  17.839  0.00  0.00    +0.000 OA
BRANCH  15  17
ATOM     16  C   UNL     1      37.600  -2.485  20.140  0.00  0.00    +0.000 C 
ATOM     17  C   UNL     1      38.106  -2.151  18.758  0.00  0.00    +0.000 C 
ENDBRANCH  15  17
ENDBRANCH  13  15
ENDBRANCH   1  13
BRANCH   4  18
ATOM     18  C   UNL     1      36.785   2.277  15.095  0.00  0.00    +0.000 C 
BRANCH  18  19
ATOM     19  C   UNL     1      38.169   2.877  15.149  0.00  0.00    +0.000 C 
BRANCH  19  20
ATOM     20  C   UNL     1      38.218   3.845  16.267  0.00  0.00    +0.000 C 
ATOM     21  O   UNL     1      37.540   3.613  17.296  0.00  0.00    +0.000 OA
ATOM     22  N   UNL     1      38.999   5.029  16.231  0.00  0.00    +0.000 NA
BRANCH  22  23
ATOM     23  C   UNL     1      38.971   5.888  17.362  0.00  0.00    +0.000 A 
ATOM     24  C   UNL     1      39.693   5.608  18.515  0.00  0.00    +0.000 A 
ATOM     25  C   UNL     1      39.643   6.465  19.596  0.00  0.00    +0.000 A 
ATOM     26  C   UNL     1      38.890   7.617  19.585  0.00  0.00    +0.000 A 
ATOM     27  C   UNL     1      38.857   8.523  20.768  0.00  0.00    +0.000 C 
ATOM     28  C   UNL     1      38.172   7.903  18.445  0.00  0.00    +0.000 A 
ATOM     29  C   UNL     1      38.221   7.044  17.364  0.00  0.00    +0.000 A 
ENDBRANCH  22  23
ENDBRANCH  19  20
ENDBRANCH  18  19
ENDBRANCH   4  18
TORSDOF 8
ENDMDL
MODEL 4
REMARK VINA RESULT:      -6.8      2.135      6.611
REMARK  Name = 
REMARK  8 active torsions:
REMARK  status: ('A' for Active; 'I' for Inactive)
REMARK    1  A    between atoms: C_2  and  O_3
REMARK    2  A    between atoms: O_3  and  C_4
REMARK    3  A    between atoms: C_4  and  C_6
REMARK    4  A    between atoms: C_8  and  C_9
REMARK    5  A    between atoms: N_15  and  C_16
REMARK    6  A    between atoms: C_16  and  C_17
REMARK    7  A    between atoms: C_17  and  C_18
REMARK    8  A    between atoms: N_20  and  C_21
REMARK                            x       y       z     vdW  Elec       q    Type
REMARK                         _______ _______ _______ _____ _____    ______ ____
ROOT
ATOM      1  C   UNL     1      34.905   5.471  14.108  0.00  0.00    +0.000 A 
ATOM      2  C   UNL     1      34.571   4.240  14.677  0.00  0.00    +0.000 A 
ATOM      3  C   UNL     1      35.709   3.434  14.705  0.00  0.00    +0.000 A 
ATOM      4  N   UNL     1      36.702   4.157  14.167  0.00  0.00    +0.000 N 
ATOM      5  C   UNL     1      36.246   5.370  13.806  0.00  0.00    +0.000 A 
ATOM      6  C   UNL     1      37.060   6.431  13.182  0.00  0.00    +0.000 C 
ENDROOT
BRANCH   3   7
ATOM      7  C   UNL     1      35.801   2.077  15.214  0.00  0.00    +0.000 A 
ATOM      8  C   UNL     1      36.195   0.998  14.456  0.00  0.00    +0.000 A 
ATOM      9  C   UNL     1      36.273  -0.284  14.967  0.00  0.00    +0.000 A 
ATOM     10  C   UNL     1      35.949  -0.495  16.272  0.00  0.00    +0.000 A 
ATOM     11  C   UNL     1      35.546   0.567  17.071  0.00  0.00    +0.000 A 
ATOM     12  C   UNL     1      35.475   1.852  16.530  0.00  0.00    +0.000 A 
ENDBRANCH   3   7
BRANCH   1  13
ATOM     13  C   UNL     1      34.020   6.612  13.884  0.00  0.00    +0.000 C 
ATOM     14  O   UNL     1      33.746   6.910  12.702  0.00  0.00    +0.000 OA
BRANCH  13  15
ATOM     15  O   UNL     1      33.482   7.361  14.893  0.00  0.00    +0.000 OA
BRANCH  15  17
ATOM     16  C   UNL     1      35.188   8.925  15.316  0.00  0.00    +0.000 C 
ATOM     17  C   UNL     1      33.713   8.754  15.045  0.00  0.00    +0.000 C 
ENDBRANCH  15  17
ENDBRANCH  13  15
ENDBRANCH   1  13
BRANCH   4  18
ATOM     18  C   UNL     1      38.059   3.673  14.012  0.00  0.00    +0.000 C 
BRANCH  18  19
ATOM     19  C   UNL     1      38.652   3.223  15.324  0.00  0.00    +0.000 C 
BRANCH  19  20
ATOM     20  C   UNL     1      38.861   4.413  16.179  0.00  0.00    +0.000 C 
ATOM     21  O   UNL     1      39.498   5.387  15.712  0.00  0.00    +0.000 OA
ATOM     22  N   UNL     1      38.372   4.507  17.507  0.00  0.00    +0.000 NA
BRANCH  22  23
ATOM     23  C   UNL     1      38.632   5.697  18.237  0.00  0.00    +0.000 A 
ATOM     24  C   UNL     1      37.887   6.853  18.044  0.00  0.00    +0.000 A 
ATOM     25  C   UNL     1      38.166   7.993  18.771  0.00  0.00    +0.000 A 
ATOM     26  C   UNL     1      39.176   8.040  19.705  0.00  0.00    +0.000 A 
ATOM     27  C   UNL     1      39.453   9.286  20.474  0.00  0.00    +0.000 C 
ATOM     28  C   UNL     1      39.919   6.897  19.903  0.00  0.00    +0.000 A 
ATOM     29  C   UNL     1      39.639   5.757  19.175  0.00  0.00    +0.000 A 
ENDBRANCH  22  23
ENDBRANCH  19  20
ENDBRANCH  18  19
ENDBRANCH   4  18
TORSDOF 8
ENDMDL
MODEL 5
REMARK VINA RESULT:      -6.7      2.636      7.895
REMARK  Name = 
REMARK  8 active torsions:
REMARK  status: ('A' for Active; 'I' for Inactive)
REMARK    1  A    between atoms: C_2  and  O_3
REMARK    2  A    between atoms: O_3  and  C_4
REMARK    3  A    between atoms: C_4  and  C_6
REMARK    4  A    between atoms: C_8  and  C_9
REMARK    5  A    between atoms: N_15  and  C_16
REMARK    6  A    between atoms: C_16  and  C_17
REMARK    7  A    between atoms: C_17  and  C_18
REMARK    8  A    between atoms: N_20  and  C_21
REMARK                            x       y       z     vdW  Elec       q    Type
REMARK                         _______ _______ _______ _____ _____    ______ ____
ROOT
ATOM      1  C   UNL     1      36.510   3.244  16.113  0.00  0.00    +0.000 A 
ATOM      2  C   UNL     1      37.496   3.515  17.064  0.00  0.00    +0.000 A 
ATOM      3  C   UNL     1      38.119   4.718  16.734  0.00  0.00    +0.000 A 
ATOM      4  N   UNL     1      37.526   5.161  15.615  0.00  0.00    +0.000 N 
ATOM      5  C   UNL     1      36.568   4.300  15.230  0.00  0.00    +0.000 A 
ATOM      6  C   UNL     1      35.709   4.464  14.041  0.00  0.00    +0.000 C 
ENDROOT
BRANCH   3   7
ATOM      7  C   UNL     1      39.199   5.366  17.458  0.00  0.00    +0.000 A 
ATOM      8  C   UNL     1      40.386   5.756  16.879  0.00  0.00    +0.000 A 
ATOM      9  C   UNL     1      41.397   6.370  17.593  0.00  0.00    +0.000 A 
ATOM     10  C   UNL     1      41.220   6.601  18.923  0.00  0.00    +0.000 A 
ATOM     11  C   UNL     1      40.039   6.221  19.545  0.00  0.00    +0.000 A 
ATOM     12  C   UNL     1      39.032   5.602  18.802  0.00  0.00    +0.000 A 
ENDBRANCH   3   7
BRANCH   1  13
ATOM     13  C   UNL     1      35.615   2.088  16.071  0.00  0.00    +0.000 C 
ATOM     14  O   UNL     1      34.465   2.229  16.539  0.00  0.00    +0.000 OA
BRANCH  13  15
ATOM     15  O   UNL     1      35.971   0.876  15.552  0.00  0.00    +0.000 OA
BRANCH  15  17
ATOM     16  C   UNL     1      37.805  -0.560  15.215  0.00  0.00    +0.000 C 
ATOM     17  C   UNL     1      37.104   0.681  14.717  0.00  0.00    +0.000 C 
ENDBRANCH  15  17
ENDBRANCH  13  15
ENDBRANCH   1  13
BRANCH   4  18
ATOM     18  C   UNL     1      37.890   6.393  14.943  0.00  0.00    +0.000 C 
BRANCH  18  19
ATOM     19  C   UNL     1      36.899   7.498  15.215  0.00  0.00    +0.000 C 
BRANCH  19  20
ATOM     20  C   UNL     1      37.397   8.306  16.350  0.00  0.00    +0.000 C 
ATOM     21  O   UNL     1      38.602   8.652  16.362  0.00  0.00    +0.000 OA
ATOM     22  N   UNL     1      36.572   8.713  17.431  0.00  0.00    +0.000 NA
BRANCH  22  23
ATOM     23  C   UNL     1      37.156   9.487  18.468  0.00  0.00    +0.000 A 
ATOM     24  C   UNL     1      37.277  10.868  18.374  0.00  0.00    +0.000 A 
ATOM     25  C   UNL     1      37.850  11.590  19.402  0.00  0.00    +0.000 A 
ATOM     26  C   UNL     1      38.320  10.990  20.548  0.00  0.00    +0.000 A 
ATOM     27  C   UNL     1      38.933  11.797  21.640  0.00  0.00    +0.000 C 
ATOM     28  C   UNL     1      38.203   9.621  20.649  0.00  0.00    +0.000 A 
ATOM     29  C   UNL     1      37.631   8.899  19.620  0.00  0.00    +0.000 A 
ENDBRANCH  22  23
ENDBRANCH  19  20
ENDBRANCH  18  19
ENDBRANCH   4  18
TORSDOF 8
ENDMDL
MODEL 6
REMARK VINA RESULT:      -6.6      3.811      8.641
REMARK  Name = 
REMARK  8 active torsions:
REMARK  status: ('A' for Active; 'I' for Inactive)
REMARK    1  A    between atoms: C_2  and  O_3
REMARK    2  A    between atoms: O_3  and  C_4
REMARK    3  A    between atoms: C_4  and  C_6
REMARK    4  A    between atoms: C_8  and  C_9
REMARK    5  A    between atoms: N_15  and  C_16
REMARK    6  A    between atoms: C_16  and  C_17
REMARK    7  A    between atoms: C_17  and  C_18
REMARK    8  A    between atoms: N_20  and  C_21
REMARK                            x       y       z     vdW  Elec       q    Type
REMARK                         _______ _______ _______ _____ _____    ______ ____
ROOT
ATOM      1  C   UNL     1      37.632  -2.520  15.967  0.00  0.00    +0.000 A 
ATOM      2  C   UNL     1      38.883  -3.041  15.631  0.00  0.00    +0.000 A 
ATOM      3  C   UNL     1      39.500  -2.180  14.724  0.00  0.00    +0.000 A 
ATOM      4  N   UNL     1      38.645  -1.168  14.517  0.00  0.00    +0.000 N 
ATOM      5  C   UNL     1      37.530  -1.350  15.246  0.00  0.00    +0.000 A 
ATOM      6  C   UNL     1      36.372  -0.435  15.267  0.00  0.00    +0.000 C 
ENDROOT
BRANCH   3   7
ATOM      7  C   UNL     1      40.811  -2.347  14.120  0.00  0.00    +0.000 A 
ATOM      8  C   UNL     1      41.044  -3.091  12.985  0.00  0.00    +0.000 A 
ATOM      9  C   UNL     1      42.303  -3.233  12.433  0.00  0.00    +0.000 A 
ATOM     10  C   UNL     1      43.359  -2.614  13.028  0.00  0.00    +0.000 A 
ATOM     11  C   UNL     1      43.166  -1.855  14.175  0.00  0.00    +0.000 A 
ATOM     12  C   UNL     1      41.885  -1.727  14.714  0.00  0.00    +0.000 A 
ENDBRANCH   3   7
BRANCH   1  13
ATOM     13  C   UNL     1      36.650  -3.096  16.884  0.00  0.00    +0.000 C 
ATOM     14  O   UNL     1      36.142  -4.194  16.573  0.00  0.00    +0.000 OA
BRANCH  13  15
ATOM     15  O   UNL     1      36.266  -2.500  18.052  0.00  0.00    +0.000 OA
BRANCH  15  17
ATOM     16  C   UNL     1      36.414  -0.372  19.045  0.00  0.00    +0.000 C 
ATOM     17  C   UNL     1      37.126  -1.686  18.838  0.00  0.00    +0.000 C 
ENDBRANCH  15  17
ENDBRANCH  13  15
ENDBRANCH   1  13
BRANCH   4  18
ATOM     18  C   UNL     1      38.914  -0.054  13.630  0.00  0.00    +0.000 C 
BRANCH  18  19
ATOM     19  C   UNL     1      39.542   1.109  14.358  0.00  0.00    +0.000 C 
BRANCH  19  20
ATOM     20  C   UNL     1      38.553   2.208  14.430  0.00  0.00    +0.000 C 
ATOM     21  O   UNL     1      38.629   3.027  15.376  0.00  0.00    +0.000 OA
ATOM     22  N   UNL     1      37.519   2.381  13.474  0.00  0.00    +0.000 NA
BRANCH  22  23
ATOM     23  C   UNL     1      36.624   3.471  13.642  0.00  0.00    +0.000 A 
ATOM     24  C   UNL     1      35.539   3.404  14.505  0.00  0.00    +0.000 A 
ATOM     25  C   UNL     1      34.689   4.483  14.644  0.00  0.00    +0.000 A 
ATOM     26  C   UNL     1      34.872   5.656  13.948  0.00  0.00    +0.000 A 
ATOM     27  C   UNL     1      33.937   6.804  14.120  0.00  0.00    +0.000 C 
ATOM     28  C   UNL     1      35.946   5.731  13.090  0.00  0.00    +0.000 A 
ATOM     29  C   UNL     1      36.796   4.650  12.950  0.00  0.00    +0.000 A 
ENDBRANCH  22  23
ENDBRANCH  19  20
ENDBRANCH  18  19
ENDBRANCH   4  18
TORSDOF 8
ENDMDL
MODEL 7
REMARK VINA RESULT:      -6.5      4.703      8.254
REMARK  Name = 
REMARK  8 active torsions:
REMARK  status: ('A' for Active; 'I' for Inactive)
REMARK    1  A    between atoms: C_2  and  O_3
REMARK    2  A    between atoms: O_3  and  C_4
REMARK    3  A    between atoms: C_4  and  C_6
REMARK    4  A    between atoms: C_8  and  C_9
REMARK    5  A    between atoms: N_15  and  C_16
REMARK    6  A    between atoms: C_16  and  C_17
REMARK    7  A    between atoms: C_17  and  C_18
REMARK    8  A    between atoms: N_20  and  C_21
REMARK                            x       y       z     vdW  Elec       q    Type
REMARK                         _______ _______ _______ _____ _____    ______ ____
ROOT
ATOM      1  C   UNL     1      35.931  -0.510  16.659  0.00  0.00    +0.000 A 
ATOM      2  C   UNL     1      37.165  -0.477  16.004  0.00  0.00    +0.000 A 
ATOM      3  C   UNL     1      37.366  -1.700  15.364  0.00  0.00    +0.000 A 
ATOM      4  N   UNL     1      36.286  -2.450  15.626  0.00  0.00    +0.000 N 
ATOM      5  C   UNL     1      35.421  -1.762  16.393  0.00  0.00    +0.000 A 
ATOM      6  C   UNL     1      34.124  -2.273  16.876  0.00  0.00    +0.000 C 
ENDROOT
BRANCH   3   7
ATOM      7  C   UNL     1      38.520  -2.087  14.571  0.00  0.00    +0.000 A 
ATOM      8  C   UNL     1      38.519  -2.151  13.196  0.00  0.00    +0.000 A 
ATOM      9  C   UNL     1      39.633  -2.524  12.467  0.00  0.00    +0.000 A 
ATOM     10  C   UNL     1      40.779  -2.841  13.128  0.00  0.00    +0.000 A 
ATOM     11  C   UNL     1      40.821  -2.791  14.515  0.00  0.00    +0.000 A 
ATOM     12  C   UNL     1      39.683  -2.411  15.229  0.00  0.00    +0.000 A 
ENDBRANCH   3   7
BRANCH   1  13
ATOM     13  C   UNL     1      35.322   0.556  17.451  0.00  0.00    +0.000 C 
ATOM     14  O   UNL     1      35.460   0.506  18.692  0.00  0.00    +0.000 OA
BRANCH  13  15
ATOM     15  O   UNL     1      34.618   1.594  16.909  0.00  0.00    +0.000 OA
BRANCH  15  17
ATOM     16  C   UNL     1      34.384   3.092  15.109  0.00  0.00    +0.000 C 
ATOM     17  C   UNL     1      35.229   2.726  16.305  0.00  0.00    +0.000 C 
ENDBRANCH  15  17
ENDBRANCH  13  15
ENDBRANCH   1  13
BRANCH   4  18
ATOM     18  C   UNL     1      36.106  -3.803  15.138  0.00  0.00    +0.000 C 
BRANCH  18  19
ATOM     19  C   UNL     1      36.491  -4.833  16.171  0.00  0.00    +0.000 C 
BRANCH  19  20
ATOM     20  C   UNL     1      35.541  -5.964  16.086  0.00  0.00    +0.000 C 
ATOM     21  O   UNL     1      35.718  -6.959  16.827  0.00  0.00    +0.000 OA
ATOM     22  N   UNL     1      34.432  -5.976  15.201  0.00  0.00    +0.000 NA
BRANCH  22  23
ATOM     23  C   UNL     1      33.583  -7.116  15.202  0.00  0.00    +0.000 A 
ATOM     24  C   UNL     1      32.621  -7.313  16.183  0.00  0.00    +0.000 A 
ATOM     25  C   UNL     1      31.812  -8.431  16.154  0.00  0.00    +0.000 A 
ATOM     26  C   UNL     1      31.918  -9.388  15.170  0.00  0.00    +0.000 A 
ATOM     27  C   UNL     1      31.030 -10.585  15.166  0.00  0.00    +0.000 C 
ATOM     28  C   UNL     1      32.870  -9.199  14.192  0.00  0.00    +0.000 A 
ATOM     29  C   UNL     1      33.679  -8.080  14.223  0.00  0.00    +0.000 A 
ENDBRANCH  22  23
ENDBRANCH  19  20
ENDBRANCH  18  19
ENDBRANCH   4  18
TORSDOF 8
ENDMDL
MODEL 8
REMARK VINA RESULT:      -6.5      3.348      4.503
REMARK  Name = 
REMARK  8 active torsions:
REMARK  status: ('A' for Active; 'I' for Inactive)
REMARK    1  A    between atoms: C_2  and  O_3
REMARK    2  A    between atoms: O_3  and  C_4
REMARK    3  A    between atoms: C_4  and  C_6
REMARK    4  A    between atoms: C_8  and  C_9
REMARK    5  A    between atoms: N_15  and  C_16
REMARK    6  A    between atoms: C_16  and  C_17
REMARK    7  A    between atoms: C_17  and  C_18
REMARK    8  A    between atoms: N_20  and  C_21
REMARK                            x       y       z     vdW  Elec       q    Type
REMARK                         _______ _______ _______ _____ _____    ______ ____
ROOT
ATOM      1  C   UNL     1      36.774   5.250  13.301  0.00  0.00    +0.000 A 
ATOM      2  C   UNL     1      37.694   4.209  13.152  0.00  0.00    +0.000 A 
ATOM      3  C   UNL     1      37.145   3.044  13.687  0.00  0.00    +0.000 A 
ATOM      4  N   UNL     1      35.928   3.372  14.146  0.00  0.00    +0.000 N 
ATOM      5  C   UNL     1      35.689   4.677  13.926  0.00  0.00    +0.000 A 
ATOM      6  C   UNL     1      34.450   5.386  14.301  0.00  0.00    +0.000 C 
ENDROOT
BRANCH   3   7
ATOM      7  C   UNL     1      37.768   1.733  13.738  0.00  0.00    +0.000 A 
ATOM      8  C   UNL     1      38.820   1.415  14.567  0.00  0.00    +0.000 A 
ATOM      9  C   UNL     1      39.394   0.158  14.594  0.00  0.00    +0.000 A 
ATOM     10  C   UNL     1      38.904  -0.809  13.772  0.00  0.00    +0.000 A 
ATOM     11  C   UNL     1      37.844  -0.529  12.920  0.00  0.00    +0.000 A 
ATOM     12  C   UNL     1      37.282   0.749  12.911  0.00  0.00    +0.000 A 
ENDBRANCH   3   7
BRANCH   1  13
ATOM     13  C   UNL     1      36.937   6.640  12.881  0.00  0.00    +0.000 C 
ATOM     14  O   UNL     1      37.220   7.482  13.761  0.00  0.00    +0.000 OA
BRANCH  13  15
ATOM     15  O   UNL     1      36.796   7.062  11.589  0.00  0.00    +0.000 OA
BRANCH  15  17
ATOM     16  C   UNL     1      34.523   7.649  11.428  0.00  0.00    +0.000 C 
ATOM     17  C   UNL     1      35.630   6.829  10.810  0.00  0.00    +0.000 C 
ENDBRANCH  15  17
ENDBRANCH  13  15
ENDBRANCH   1  13
BRANCH   4  18
ATOM     18  C   UNL     1      35.026   2.432  14.782  0.00  0.00    +0.000 C 
BRANCH  18  19
ATOM     19  C   UNL     1      34.978   2.621  16.279  0.00  0.00    +0.000 C 
BRANCH  19  20
ATOM     20  C   UNL     1      35.796   1.563  16.912  0.00  0.00    +0.000 C 
ATOM     21  O   UNL     1      36.903   1.876  17.413  0.00  0.00    +0.000 OA
ATOM     22  N   UNL     1      35.388   0.206  16.982  0.00  0.00    +0.000 NA
BRANCH  22  23
ATOM     23  C   UNL     1      36.255  -0.725  17.613  0.00  0.00    +0.000 A 
ATOM     24  C   UNL     1      37.101  -1.551  16.885  0.00  0.00    +0.000 A 
ATOM     25  C   UNL     1      37.931  -2.445  17.532  0.00  0.00    +0.000 A 
ATOM     26  C   UNL     1      37.960  -2.560  18.903  0.00  0.00    +0.000 A 
ATOM     27  C   UNL     1      38.868  -3.534  19.571  0.00  0.00    +0.000 C 
ATOM     28  C   UNL     1      37.124  -1.744  19.632  0.00  0.00    +0.000 A 
ATOM     29  C   UNL     1      36.293  -0.850  18.985  0.00  0.00    +0.000 A 
ENDBRANCH  22  23
ENDBRANCH  19  20
ENDBRANCH  18  19
ENDBRANCH   4  18
TORSDOF 8
ENDMDL
MODEL 9
REMARK VINA RESULT:      -6.4      2.624      3.905
REMARK  Name = 
REMARK  8 active torsions:
REMARK  status: ('A' for Active; 'I' for Inactive)
REMARK    1  A    between atoms: C_2  and  O_3
REMARK    2  A    between atoms: O_3  and  C_4
REMARK    3  A    between atoms: C_4  and  C_6
REMARK    4  A    between atoms: C_8  and  C_9
REMARK    5  A    between atoms: N_15  and  C_16
REMARK    6  A    between atoms: C_16  and  C_17
REMARK    7  A    between atoms: C_17  and  C_18
REMARK    8  A    between atoms: N_20  and  C_21
REMARK                            x       y       z     vdW  Elec       q    Type
REMARK                         _______ _______ _______ _____ _____    ______ ____
ROOT
ATOM      1  C   UNL     1      40.245   4.948  14.576  0.00  0.00    +0.000 A 
ATOM      2  C   UNL     1      40.344   5.922  15.572  0.00  0.00    +0.000 A 
ATOM      3  C   UNL     1      39.496   5.577  16.623  0.00  0.00    +0.000 A 
ATOM      4  N   UNL     1      38.902   4.427  16.272  0.00  0.00    +0.000 N 
ATOM      5  C   UNL     1      39.334   4.036  15.060  0.00  0.00    +0.000 A 
ATOM      6  C   UNL     1      38.895   2.815  14.357  0.00  0.00    +0.000 C 
ENDROOT
BRANCH   3   7
ATOM      7  C   UNL     1      39.293   6.317  17.857  0.00  0.00    +0.000 A 
ATOM      8  C   UNL     1      38.285   7.236  18.044  0.00  0.00    +0.000 A 
ATOM      9  C   UNL     1      38.117   7.926  19.229  0.00  0.00    +0.000 A 
ATOM     10  C   UNL     1      38.978   7.694  20.257  0.00  0.00    +0.000 A 
ATOM     11  C   UNL     1      40.009   6.776  20.108  0.00  0.00    +0.000 A 
ATOM     12  C   UNL     1      40.158   6.091  18.901  0.00  0.00    +0.000 A 
ENDBRANCH   3   7
BRANCH   1  13
ATOM     13  C   UNL     1      40.958   4.912  13.300  0.00  0.00    +0.000 C 
ATOM     14  O   UNL     1      40.339   5.280  12.280  0.00  0.00    +0.000 OA
BRANCH  13  15
ATOM     15  O   UNL     1      42.255   4.499  13.170  0.00  0.00    +0.000 OA
BRANCH  15  17
ATOM     16  C   UNL     1      42.215   2.192  12.707  0.00  0.00    +0.000 C 
ATOM     17  C   UNL     1      42.681   3.540  12.212  0.00  0.00    +0.000 C 
ENDBRANCH  15  17
ENDBRANCH  13  15
ENDBRANCH   1  13
BRANCH   4  18
ATOM     18  C   UNL     1      37.939   3.730  17.103  0.00  0.00    +0.000 C 
BRANCH  18  19
ATOM     19  C   UNL     1      36.543   3.809  16.536  0.00  0.00    +0.000 C 
BRANCH  19  20
ATOM     20  C   UNL     1      36.062   2.434  16.276  0.00  0.00    +0.000 C 
ATOM     21  O   UNL     1      35.090   2.270  15.501  0.00  0.00    +0.000 OA
ATOM     22  N   UNL     1      36.651   1.285  16.865  0.00  0.00    +0.000 NA
BRANCH  22  23
ATOM     23  C   UNL     1      36.108   0.012  16.545  0.00  0.00    +0.000 A 
ATOM     24  C   UNL     1      36.564  -0.730  15.464  0.00  0.00    +0.000 A 
ATOM     25  C   UNL     1      36.013  -1.964  15.182  0.00  0.00    +0.000 A 
ATOM     26  C   UNL     1      35.006  -2.510  15.944  0.00  0.00    +0.000 A 
ATOM     27  C   UNL     1      34.432  -3.845  15.614  0.00  0.00    +0.000 C 
ATOM     28  C   UNL     1      34.548  -1.781  17.019  0.00  0.00    +0.000 A 
ATOM     29  C   UNL     1      35.099  -0.545  17.300  0.00  0.00    +0.000 A 
ENDBRANCH  22  23
ENDBRANCH  19  20
ENDBRANCH  18  19
ENDBRANCH   4  18
TORSDOF 8
ENDMDL
MODEL 10
REMARK VINA RESULT:      -6.4      4.115      7.099
REMARK  Name = 
REMARK  8 active torsions:
REMARK  status: ('A' for Active; 'I' for Inactive)
REMARK    1  A    between atoms: C_2  and  O_3
REMARK    2  A    between atoms: O_3  and  C_4
REMARK    3  A    between atoms: C_4  and  C_6
REMARK    4  A    between atoms: C_8  and  C_9
REMARK    5  A    between atoms: N_15  and  C_16
REMARK    6  A    between atoms: C_16  and  C_17
REMARK    7  A    between atoms: C_17  and  C_18
REMARK    8  A    between atoms: N_20  and  C_21
REMARK                            x       y       z     vdW  Elec       q    Type
REMARK                         _______ _______ _______ _____ _____    ______ ____
ROOT
ATOM      1  C   UNL     1      34.344   6.999   9.403  0.00  0.00    +0.000 A 
ATOM      2  C   UNL     1      33.765   7.651  10.494  0.00  0.00    +0.000 A 
ATOM      3  C   UNL     1      34.639   7.576  11.578  0.00  0.00    +0.000 A 
ATOM      4  N   UNL     1      35.716   6.898  11.153  0.00  0.00    +0.000 N 
ATOM      5  C   UNL     1      35.560   6.546   9.865  0.00  0.00    +0.000 A 
ATOM      6  C   UNL     1      36.546   5.789   9.068  0.00  0.00    +0.000 C 
ENDROOT
BRANCH   3   7
ATOM      7  C   UNL     1      34.427   8.124  12.906  0.00  0.00    +0.000 A 
ATOM      8  C   UNL     1      34.929   9.335  13.327  0.00  0.00    +0.000 A 
ATOM      9  C   UNL     1      34.712   9.831  14.598  0.00  0.00    +0.000 A 
ATOM     10  C   UNL     1      33.971   9.099  15.475  0.00  0.00    +0.000 A 
ATOM     11  C   UNL     1      33.448   7.872  15.090  0.00  0.00    +0.000 A 
ATOM     12  C   UNL     1      33.682   7.393  13.800  0.00  0.00    +0.000 A 
ENDBRANCH   3   7
BRANCH   1  13
ATOM     13  C   UNL     1      33.776   6.836   8.066  0.00  0.00    +0.000 C 
ATOM     14  O   UNL     1      32.639   6.325   7.978  0.00  0.00    +0.000 OA
BRANCH  13  15
ATOM     15  O   UNL     1      34.419   7.212   6.921  0.00  0.00    +0.000 OA
BRANCH  15  17
ATOM     16  C   UNL     1      33.674   9.394   6.449  0.00  0.00    +0.000 C 
ATOM     17  C   UNL     1      34.891   8.531   6.682  0.00  0.00    +0.000 C 
ENDBRANCH  15  17
ENDBRANCH  13  15
ENDBRANCH   1  13
BRANCH   4  18
ATOM     18  C   UNL     1      36.864   6.604  11.988  0.00  0.00    +0.000 C 
BRANCH  18  19
ATOM     19  C   UNL     1      36.607   5.439  12.912  0.00  0.00    +0.000 C 
BRANCH  19  20
ATOM     20  C   UNL     1      37.289   5.701  14.199  0.00  0.00    +0.000 C 
ATOM     21  O   UNL     1      37.048   6.774  14.802  0.00  0.00    +0.000 OA
ATOM     22  N   UNL     1      38.206   4.792  14.788  0.00  0.00    +0.000 NA
BRANCH  22  23
ATOM     23  C   UNL     1      38.803   5.147  16.027  0.00  0.00    +0.000 A 
ATOM     24  C   UNL     1      39.931   5.954  16.093  0.00  0.00    +0.000 A 
ATOM     25  C   UNL     1      40.485   6.280  17.315  0.00  0.00    +0.000 A 
ATOM     26  C   UNL     1      39.957   5.830  18.504  0.00  0.00    +0.000 A 
ATOM     27  C   UNL     1      40.578   6.200  19.807  0.00  0.00    +0.000 C 
ATOM     28  C   UNL     1      38.838   5.030  18.447  0.00  0.00    +0.000 A 
ATOM     29  C   UNL     1      38.284   4.704  17.224  0.00  0.00    +0.000 A 
ENDBRANCH  22  23
ENDBRANCH  19  20
ENDBRANCH  18  19
ENDBRANCH   4  18
TORSDOF 8
ENDMDL
