MODEL 1
REMARK VINA RESULT:      -7.4      0.000      0.000
REMARK  Name = 
REMARK  0 active torsions:
REMARK  status: ('A' for Active; 'I' for Inactive)
REMARK                            x       y       z     vdW  Elec       q    Type
REMARK                         _______ _______ _______ _____ _____    ______ ____
ROOT
ATOM      1  C   UNL     1      31.709  22.347  29.142  0.00  0.00    +0.000 C 
ATOM      2  C   UNL     1      30.751  23.214  28.332  0.00  0.00    +0.000 C 
ATOM      3  C   UNL     1      29.360  22.638  28.330  0.00  0.00    +0.000 C 
ATOM      4  C   UNL     1      30.825  24.576  28.778  0.00  0.00    +0.000 C 
ATOM      5  O   UNL     1      31.089  24.877  29.935  0.00  0.00    +0.000 OA
ATOM      6  C   UNL     1      30.558  25.618  27.737  0.00  0.00    +0.000 C 
ATOM      7  C   UNL     1      29.703  24.983  26.718  0.00  0.00    +0.000 C 
ATOM      8  C   UNL     1      30.110  23.763  26.069  0.00  0.00    +0.000 C 
ATOM      9  O   UNL     1      29.087  22.753  26.079  0.00  0.00    +0.000 OA
ATOM     10  C   UNL     1      27.995  22.961  25.241  0.00  0.00    +0.000 A 
ATOM     11  C   UNL     1      26.685  22.762  25.628  0.00  0.00    +0.000 A 
ATOM     12  C   UNL     1      25.643  22.986  24.755  0.00  0.00    +0.000 A 
ATOM     13  C   UNL     1      25.957  23.415  23.485  0.00  0.00    +0.000 A 
ATOM     14  C   UNL     1      27.244  23.621  23.070  0.00  0.00    +0.000 A 
ATOM     15  O   UNL     1      27.602  24.052  21.802  0.00  0.00    +0.000 OA
ATOM     16  C   UNL     1      28.276  23.389  23.966  0.00  0.00    +0.000 A 
ATOM     17  C   UNL     1      29.684  23.583  23.580  0.00  0.00    +0.000 C 
ATOM     18  C   UNL     1      30.590  24.048  24.671  0.00  0.00    +0.000 C 
ATOM     19  C   UNL     1      30.765  25.562  24.476  0.00  0.00    +0.000 C 
ATOM     20  C   UNL     1      31.996  23.470  24.480  0.00  0.00    +0.000 C 
ATOM     21  C   UNL     1      32.914  24.199  25.431  0.00  0.00    +0.000 C 
ATOM     22  C   UNL     1      32.304  24.308  26.802  0.00  0.00    +0.000 C 
ATOM     23  C   UNL     1      31.322  23.022  26.839  0.00  0.00    +0.000 C 
ENDROOT
TORSDOF 0
ENDMDL
MODEL 2
REMARK VINA RESULT:      -7.3      1.692      2.474
REMARK  Name = 
REMARK  0 active torsions:
REMARK  status: ('A' for Active; 'I' for Inactive)
REMARK                            x       y       z     vdW  Elec       q    Type
REMARK                         _______ _______ _______ _____ _____    ______ ____
ROOT
ATOM      1  C   UNL     1      27.532  22.124  30.497  0.00  0.00    +0.000 C 
ATOM      2  C   UNL     1      27.605  23.072  29.305  0.00  0.00    +0.000 C 
ATOM      3  C   UNL     1      26.372  22.968  28.447  0.00  0.00    +0.000 C 
ATOM      4  C   UNL     1      27.902  24.402  29.753  0.00  0.00    +0.000 C 
ATOM      5  O   UNL     1      27.546  24.824  30.845  0.00  0.00    +0.000 OA
ATOM      6  C   UNL     1      28.679  25.253  28.797  0.00  0.00    +0.000 C 
ATOM      7  C   UNL     1      28.400  24.731  27.447  0.00  0.00    +0.000 C 
ATOM      8  C   UNL     1      28.624  23.343  27.132  0.00  0.00    +0.000 C 
ATOM      9  O   UNL     1      27.497  22.723  26.490  0.00  0.00    +0.000 OA
ATOM     10  C   UNL     1      27.247  23.094  25.171  0.00  0.00    +0.000 A 
ATOM     11  C   UNL     1      25.990  23.392  24.686  0.00  0.00    +0.000 A 
ATOM     12  C   UNL     1      25.802  23.755  23.370  0.00  0.00    +0.000 A 
ATOM     13  C   UNL     1      26.913  23.810  22.559  0.00  0.00    +0.000 A 
ATOM     14  C   UNL     1      28.172  23.520  23.010  0.00  0.00    +0.000 A 
ATOM     15  O   UNL     1      29.317  23.564  22.227  0.00  0.00    +0.000 OA
ATOM     16  C   UNL     1      28.337  23.158  24.338  0.00  0.00    +0.000 A 
ATOM     17  C   UNL     1      29.663  22.825  24.882  0.00  0.00    +0.000 C 
ATOM     18  C   UNL     1      29.878  23.187  26.314  0.00  0.00    +0.000 C 
ATOM     19  C   UNL     1      30.671  24.503  26.316  0.00  0.00    +0.000 C 
ATOM     20  C   UNL     1      30.811  22.175  26.987  0.00  0.00    +0.000 C 
ATOM     21  C   UNL     1      31.210  22.752  28.323  0.00  0.00    +0.000 C 
ATOM     22  C   UNL     1      30.020  23.309  29.055  0.00  0.00    +0.000 C 
ATOM     23  C   UNL     1      28.806  22.425  28.450  0.00  0.00    +0.000 C 
ENDROOT
TORSDOF 0
ENDMDL
MODEL 3
REMARK VINA RESULT:      -7.1      2.003      4.934
REMARK  Name = 
REMARK  0 active torsions:
REMARK  status: ('A' for Active; 'I' for Inactive)
REMARK                            x       y       z     vdW  Elec       q    Type
REMARK                         _______ _______ _______ _____ _____    ______ ____
ROOT
ATOM      1  C   UNL     1      29.515  26.573  22.845  0.00  0.00    +0.000 C 
ATOM      2  C   UNL     1      28.892  25.448  23.664  0.00  0.00    +0.000 C 
ATOM      3  C   UNL     1      27.670  25.923  24.405  0.00  0.00    +0.000 C 
ATOM      4  C   UNL     1      28.669  24.300  22.832  0.00  0.00    +0.000 C 
ATOM      5  O   UNL     1      28.423  24.391  21.636  0.00  0.00    +0.000 OA
ATOM      6  C   UNL     1      28.755  22.973  23.519  0.00  0.00    +0.000 C 
ATOM      7  C   UNL     1      28.434  23.211  24.937  0.00  0.00    +0.000 C 
ATOM      8  C   UNL     1      29.165  24.186  25.705  0.00  0.00    +0.000 C 
ATOM      9  O   UNL     1      28.310  25.095  26.420  0.00  0.00    +0.000 OA
ATOM     10  C   UNL     1      27.630  24.578  27.520  0.00  0.00    +0.000 A 
ATOM     11  C   UNL     1      26.296  24.821  27.777  0.00  0.00    +0.000 A 
ATOM     12  C   UNL     1      25.673  24.282  28.882  0.00  0.00    +0.000 A 
ATOM     13  C   UNL     1      26.431  23.494  29.718  0.00  0.00    +0.000 A 
ATOM     14  C   UNL     1      27.756  23.235  29.492  0.00  0.00    +0.000 A 
ATOM     15  O   UNL     1      28.554  22.447  30.308  0.00  0.00    +0.000 OA
ATOM     16  C   UNL     1      28.360  23.788  28.373  0.00  0.00    +0.000 A 
ATOM     17  C   UNL     1      29.783  23.556  28.078  0.00  0.00    +0.000 C 
ATOM     18  C   UNL     1      30.137  23.503  26.629  0.00  0.00    +0.000 C 
ATOM     19  C   UNL     1      30.251  22.015  26.262  0.00  0.00    +0.000 C 
ATOM     20  C   UNL     1      31.545  24.063  26.402  0.00  0.00    +0.000 C 
ATOM     21  C   UNL     1      31.943  23.717  24.988  0.00  0.00    +0.000 C 
ATOM     22  C   UNL     1      30.830  24.012  24.019  0.00  0.00    +0.000 C 
ATOM     23  C   UNL     1      30.025  25.193  24.779  0.00  0.00    +0.000 C 
ENDROOT
TORSDOF 0
ENDMDL
MODEL 4
REMARK VINA RESULT:      -7.0      3.471      5.550
REMARK  Name = 
REMARK  0 active torsions:
REMARK  status: ('A' for Active; 'I' for Inactive)
REMARK                            x       y       z     vdW  Elec       q    Type
REMARK                         _______ _______ _______ _____ _____    ______ ____
ROOT
ATOM      1  C   UNL     1      23.719  26.389  26.241  0.00  0.00    +0.000 C 
ATOM      2  C   UNL     1      25.177  26.444  25.798  0.00  0.00    +0.000 C 
ATOM      3  C   UNL     1      25.446  27.655  24.945  0.00  0.00    +0.000 C 
ATOM      4  C   UNL     1      26.041  26.321  26.937  0.00  0.00    +0.000 C 
ATOM      5  O   UNL     1      25.727  26.725  28.049  0.00  0.00    +0.000 OA
ATOM      6  C   UNL     1      27.363  25.664  26.684  0.00  0.00    +0.000 C 
ATOM      7  C   UNL     1      27.672  25.877  25.259  0.00  0.00    +0.000 C 
ATOM      8  C   UNL     1      26.743  25.475  24.234  0.00  0.00    +0.000 C 
ATOM      9  O   UNL     1      26.479  26.514  23.276  0.00  0.00    +0.000 OA
ATOM     10  C   UNL     1      27.503  26.814  22.382  0.00  0.00    +0.000 A 
ATOM     11  C   UNL     1      27.884  28.101  22.060  0.00  0.00    +0.000 A 
ATOM     12  C   UNL     1      28.907  28.339  21.168  0.00  0.00    +0.000 A 
ATOM     13  C   UNL     1      29.533  27.247  20.611  0.00  0.00    +0.000 A 
ATOM     14  C   UNL     1      29.178  25.959  20.908  0.00  0.00    +0.000 A 
ATOM     15  O   UNL     1      29.783  24.833  20.370  0.00  0.00    +0.000 OA
ATOM     16  C   UNL     1      28.146  25.745  21.809  0.00  0.00    +0.000 A 
ATOM     17  C   UNL     1      27.710  24.385  22.165  0.00  0.00    +0.000 C 
ATOM     18  C   UNL     1      27.216  24.215  23.563  0.00  0.00    +0.000 C 
ATOM     19  C   UNL     1      28.376  23.599  24.362  0.00  0.00    +0.000 C 
ATOM     20  C   UNL     1      26.110  23.155  23.613  0.00  0.00    +0.000 C 
ATOM     21  C   UNL     1      25.866  22.831  25.067  0.00  0.00    +0.000 C 
ATOM     22  C   UNL     1      25.776  24.082  25.898  0.00  0.00    +0.000 C 
ATOM     23  C   UNL     1      25.266  25.171  24.815  0.00  0.00    +0.000 C 
ENDROOT
TORSDOF 0
ENDMDL
MODEL 5
REMARK VINA RESULT:      -6.9      3.230      5.656
REMARK  Name = 
REMARK  0 active torsions:
REMARK  status: ('A' for Active; 'I' for Inactive)
REMARK                            x       y       z     vdW  Elec       q    Type
REMARK                         _______ _______ _______ _____ _____    ______ ____
ROOT
ATOM      1  C   UNL     1      23.165  25.972  26.749  0.00  0.00    +0.000 C 
ATOM      2  C   UNL     1      24.685  25.955  26.627  0.00  0.00    +0.000 C 
ATOM      3  C   UNL     1      25.120  25.495  25.261  0.00  0.00    +0.000 C 
ATOM      4  C   UNL     1      25.224  27.225  27.022  0.00  0.00    +0.000 C 
ATOM      5  O   UNL     1      24.614  28.275  26.871  0.00  0.00    +0.000 OA
ATOM      6  C   UNL     1      26.590  27.190  27.633  0.00  0.00    +0.000 C 
ATOM      7  C   UNL     1      27.254  25.983  27.112  0.00  0.00    +0.000 C 
ATOM      8  C   UNL     1      26.643  24.685  27.252  0.00  0.00    +0.000 C 
ATOM      9  O   UNL     1      26.599  23.948  26.019  0.00  0.00    +0.000 OA
ATOM     10  C   UNL     1      27.809  23.446  25.547  0.00  0.00    +0.000 A 
ATOM     11  C   UNL     1      28.211  23.532  24.230  0.00  0.00    +0.000 A 
ATOM     12  C   UNL     1      29.422  23.018  23.819  0.00  0.00    +0.000 A 
ATOM     13  C   UNL     1      30.214  22.417  24.772  0.00  0.00    +0.000 A 
ATOM     14  C   UNL     1      29.844  22.316  26.085  0.00  0.00    +0.000 A 
ATOM     15  O   UNL     1      30.613  21.720  27.074  0.00  0.00    +0.000 OA
ATOM     16  C   UNL     1      28.622  22.841  26.474  0.00  0.00    +0.000 A 
ATOM     17  C   UNL     1      28.161  22.757  27.870  0.00  0.00    +0.000 C 
ATOM     18  C   UNL     1      27.325  23.900  28.339  0.00  0.00    +0.000 C 
ATOM     19  C   UNL     1      28.258  24.819  29.144  0.00  0.00    +0.000 C 
ATOM     20  C   UNL     1      26.287  23.419  29.359  0.00  0.00    +0.000 C 
ATOM     21  C   UNL     1      25.683  24.646  29.997  0.00  0.00    +0.000 C 
ATOM     22  C   UNL     1      25.329  25.681  28.964  0.00  0.00    +0.000 C 
ATOM     23  C   UNL     1      25.078  24.773  27.647  0.00  0.00    +0.000 C 
ENDROOT
TORSDOF 0
ENDMDL
MODEL 6
REMARK VINA RESULT:      -6.8     20.923     22.771
REMARK  Name = 
REMARK  0 active torsions:
REMARK  status: ('A' for Active; 'I' for Inactive)
REMARK                            x       y       z     vdW  Elec       q    Type
REMARK                         _______ _______ _______ _____ _____    ______ ____
ROOT
ATOM      1  C   UNL     1      22.445   1.564  17.784  0.00  0.00    +0.000 C 
ATOM      2  C   UNL     1      23.900   1.997  17.638  0.00  0.00    +0.000 C 
ATOM      3  C   UNL     1      24.344   2.832  18.810  0.00  0.00    +0.000 C 
ATOM      4  C   UNL     1      24.729   0.854  17.380  0.00  0.00    +0.000 C 
ATOM      5  O   UNL     1      24.466  -0.261  17.812  0.00  0.00    +0.000 OA
ATOM      6  C   UNL     1      25.946   1.107  16.547  0.00  0.00    +0.000 C 
ATOM      7  C   UNL     1      26.295   2.527  16.731  0.00  0.00    +0.000 C 
ATOM      8  C   UNL     1      25.327   3.563  16.477  0.00  0.00    +0.000 C 
ATOM      9  O   UNL     1      25.220   4.509  17.555  0.00  0.00    +0.000 OA
ATOM     10  C   UNL     1      26.284   5.393  17.718  0.00  0.00    +0.000 A 
ATOM     11  C   UNL     1      26.845   5.695  18.942  0.00  0.00    +0.000 A 
ATOM     12  C   UNL     1      27.899   6.577  19.044  0.00  0.00    +0.000 A 
ATOM     13  C   UNL     1      28.369   7.145  17.881  0.00  0.00    +0.000 A 
ATOM     14  C   UNL     1      27.833   6.866  16.652  0.00  0.00    +0.000 A 
ATOM     15  O   UNL     1      28.277   7.415  15.459  0.00  0.00    +0.000 OA
ATOM     16  C   UNL     1      26.774   5.975  16.575  0.00  0.00    +0.000 A 
ATOM     17  C   UNL     1      26.148   5.640  15.286  0.00  0.00    +0.000 C 
ATOM     18  C   UNL     1      25.623   4.248  15.171  0.00  0.00    +0.000 C 
ATOM     19  C   UNL     1      26.677   3.449  14.388  0.00  0.00    +0.000 C 
ATOM     20  C   UNL     1      24.379   4.218  14.277  0.00  0.00    +0.000 C 
ATOM     21  C   UNL     1      24.079   2.771  13.973  0.00  0.00    +0.000 C 
ATOM     22  C   UNL     1      24.159   1.923  15.214  0.00  0.00    +0.000 C 
ATOM     23  C   UNL     1      23.817   2.995  16.378  0.00  0.00    +0.000 C 
ENDROOT
TORSDOF 0
ENDMDL
MODEL 7
REMARK VINA RESULT:      -6.8     22.614     24.817
REMARK  Name = 
REMARK  0 active torsions:
REMARK  status: ('A' for Active; 'I' for Inactive)
REMARK                            x       y       z     vdW  Elec       q    Type
REMARK                         _______ _______ _______ _____ _____    ______ ____
ROOT
ATOM      1  C   UNL     1      20.746   6.716  43.243  0.00  0.00    +0.000 C 
ATOM      2  C   UNL     1      19.753   6.742  42.086  0.00  0.00    +0.000 C 
ATOM      3  C   UNL     1      20.399   7.241  40.821  0.00  0.00    +0.000 C 
ATOM      4  C   UNL     1      19.114   5.464  41.958  0.00  0.00    +0.000 C 
ATOM      5  O   UNL     1      19.672   4.416  42.258  0.00  0.00    +0.000 OA
ATOM      6  C   UNL     1      17.714   5.485  41.430  0.00  0.00    +0.000 C 
ATOM      7  C   UNL     1      17.589   6.709  40.619  0.00  0.00    +0.000 C 
ATOM      8  C   UNL     1      17.902   8.000  41.178  0.00  0.00    +0.000 C 
ATOM      9  O   UNL     1      18.789   8.772  40.351  0.00  0.00    +0.000 OA
ATOM     10  C   UNL     1      18.254   9.290  39.175  0.00  0.00    +0.000 A 
ATOM     11  C   UNL     1      18.898   9.243  37.955  0.00  0.00    +0.000 A 
ATOM     12  C   UNL     1      18.319   9.773  36.822  0.00  0.00    +0.000 A 
ATOM     13  C   UNL     1      17.076  10.349  36.953  0.00  0.00    +0.000 A 
ATOM     14  C   UNL     1      16.411  10.412  38.147  0.00  0.00    +0.000 A 
ATOM     15  O   UNL     1      15.159  10.983  38.321  0.00  0.00    +0.000 OA
ATOM     16  C   UNL     1      17.014   9.872  39.273  0.00  0.00    +0.000 A 
ATOM     17  C   UNL     1      16.356   9.916  40.589  0.00  0.00    +0.000 C 
ATOM     18  C   UNL     1      16.638   8.757  41.486  0.00  0.00    +0.000 C 
ATOM     19  C   UNL     1      15.426   7.819  41.379  0.00  0.00    +0.000 C 
ATOM     20  C   UNL     1      16.648   9.206  42.951  0.00  0.00    +0.000 C 
ATOM     21  C   UNL     1      16.649   7.959  43.802  0.00  0.00    +0.000 C 
ATOM     22  C   UNL     1      17.646   6.952  43.296  0.00  0.00    +0.000 C 
ATOM     23  C   UNL     1      18.735   7.896  42.559  0.00  0.00    +0.000 C 
ENDROOT
TORSDOF 0
ENDMDL
MODEL 8
REMARK VINA RESULT:      -6.8      1.926      5.840
REMARK  Name = 
REMARK  0 active torsions:
REMARK  status: ('A' for Active; 'I' for Inactive)
REMARK                            x       y       z     vdW  Elec       q    Type
REMARK                         _______ _______ _______ _____ _____    ______ ____
ROOT
ATOM      1  C   UNL     1      26.866  23.809  21.942  0.00  0.00    +0.000 C 
ATOM      2  C   UNL     1      27.687  24.249  23.150  0.00  0.00    +0.000 C 
ATOM      3  C   UNL     1      28.862  23.337  23.375  0.00  0.00    +0.000 C 
ATOM      4  C   UNL     1      28.030  25.637  23.031  0.00  0.00    +0.000 C 
ATOM      5  O   UNL     1      28.200  26.183  21.948  0.00  0.00    +0.000 OA
ATOM      6  C   UNL     1      28.173  26.386  24.320  0.00  0.00    +0.000 C 
ATOM      7  C   UNL     1      28.527  25.391  25.347  0.00  0.00    +0.000 C 
ATOM      8  C   UNL     1      27.702  24.230  25.566  0.00  0.00    +0.000 C 
ATOM      9  O   UNL     1      28.452  23.003  25.583  0.00  0.00    +0.000 OA
ATOM     10  C   UNL     1      29.254  22.777  26.699  0.00  0.00    +0.000 A 
ATOM     11  C   UNL     1      30.550  22.308  26.626  0.00  0.00    +0.000 A 
ATOM     12  C   UNL     1      31.299  22.104  27.765  0.00  0.00    +0.000 A 
ATOM     13  C   UNL     1      30.706  22.384  28.975  0.00  0.00    +0.000 A 
ATOM     14  C   UNL     1      29.423  22.849  29.081  0.00  0.00    +0.000 A 
ATOM     15  O   UNL     1      28.790  23.143  30.279  0.00  0.00    +0.000 OA
ATOM     16  C   UNL     1      28.690  23.047  27.921  0.00  0.00    +0.000 A 
ATOM     17  C   UNL     1      27.302  23.536  27.967  0.00  0.00    +0.000 C 
ATOM     18  C   UNL     1      26.887  24.395  26.819  0.00  0.00    +0.000 C 
ATOM     19  C   UNL     1      26.971  25.848  27.311  0.00  0.00    +0.000 C 
ATOM     20  C   UNL     1      25.403  24.183  26.503  0.00  0.00    +0.000 C 
ATOM     21  C   UNL     1      24.988  25.272  25.545  0.00  0.00    +0.000 C 
ATOM     22  C   UNL     1      25.996  25.444  24.441  0.00  0.00    +0.000 C 
ATOM     23  C   UNL     1      26.660  23.969  24.359  0.00  0.00    +0.000 C 
ENDROOT
TORSDOF 0
ENDMDL
MODEL 9
REMARK VINA RESULT:      -6.5      2.624      4.779
REMARK  Name = 
REMARK  0 active torsions:
REMARK  status: ('A' for Active; 'I' for Inactive)
REMARK                            x       y       z     vdW  Elec       q    Type
REMARK                         _______ _______ _______ _____ _____    ______ ____
ROOT
ATOM      1  C   UNL     1      26.509  25.949  30.398  0.00  0.00    +0.000 C 
ATOM      2  C   UNL     1      27.104  24.903  29.462  0.00  0.00    +0.000 C 
ATOM      3  C   UNL     1      28.609  24.938  29.488  0.00  0.00    +0.000 C 
ATOM      4  C   UNL     1      26.538  23.615  29.741  0.00  0.00    +0.000 C 
ATOM      5  O   UNL     1      26.165  23.288  30.860  0.00  0.00    +0.000 OA
ATOM      6  C   UNL     1      26.430  22.684  28.573  0.00  0.00    +0.000 C 
ATOM      7  C   UNL     1      27.472  23.091  27.613  0.00  0.00    +0.000 C 
ATOM      8  C   UNL     1      27.541  24.446  27.130  0.00  0.00    +0.000 C 
ATOM      9  O   UNL     1      28.859  25.013  27.232  0.00  0.00    +0.000 OA
ATOM     10  C   UNL     1      29.816  24.532  26.343  0.00  0.00    +0.000 A 
ATOM     11  C   UNL     1      31.104  24.198  26.713  0.00  0.00    +0.000 A 
ATOM     12  C   UNL     1      32.010  23.726  25.788  0.00  0.00    +0.000 A 
ATOM     13  C   UNL     1      31.584  23.599  24.486  0.00  0.00    +0.000 A 
ATOM     14  C   UNL     1      30.315  23.922  24.088  0.00  0.00    +0.000 A 
ATOM     15  O   UNL     1      29.846  23.808  22.787  0.00  0.00    +0.000 OA
ATOM     16  C   UNL     1      29.421  24.395  25.035  0.00  0.00    +0.000 A 
ATOM     17  C   UNL     1      28.044  24.768  24.670  0.00  0.00    +0.000 C 
ATOM     18  C   UNL     1      27.014  24.528  25.723  0.00  0.00    +0.000 C 
ATOM     19  C   UNL     1      26.309  23.215  25.350  0.00  0.00    +0.000 C 
ATOM     20  C   UNL     1      25.913  25.591  25.645  0.00  0.00    +0.000 C 
ATOM     21  C   UNL     1      24.780  25.128  26.527  0.00  0.00    +0.000 C 
ATOM     22  C   UNL     1      25.287  24.638  27.857  0.00  0.00    +0.000 C 
ATOM     23  C   UNL     1      26.665  25.471  28.020  0.00  0.00    +0.000 C 
ENDROOT
TORSDOF 0
ENDMDL
MODEL 10
REMARK VINA RESULT:      -6.5     14.038     15.716
REMARK  Name = 
REMARK  0 active torsions:
REMARK  status: ('A' for Active; 'I' for Inactive)
REMARK                            x       y       z     vdW  Elec       q    Type
REMARK                         _______ _______ _______ _____ _____    ______ ____
ROOT
ATOM      1  C   UNL     1      22.347  22.509  38.241  0.00  0.00    +0.000 C 
ATOM      2  C   UNL     1      21.036  21.842  37.839  0.00  0.00    +0.000 C 
ATOM      3  C   UNL     1      21.155  21.159  36.503  0.00  0.00    +0.000 C 
ATOM      4  C   UNL     1      20.571  20.992  38.897  0.00  0.00    +0.000 C 
ATOM      5  O   UNL     1      21.335  20.420  39.665  0.00  0.00    +0.000 OA
ATOM      6  C   UNL     1      19.086  20.843  39.009  0.00  0.00    +0.000 C 
ATOM      7  C   UNL     1      18.536  21.095  37.666  0.00  0.00    +0.000 C 
ATOM      8  C   UNL     1      18.835  22.317  36.963  0.00  0.00    +0.000 C 
ATOM      9  O   UNL     1      19.287  22.096  35.617  0.00  0.00    +0.000 OA
ATOM     10  C   UNL     1      18.329  21.675  34.698  0.00  0.00    +0.000 A 
ATOM     11  C   UNL     1      18.538  20.658  33.788  0.00  0.00    +0.000 A 
ATOM     12  C   UNL     1      17.553  20.282  32.901  0.00  0.00    +0.000 A 
ATOM     13  C   UNL     1      16.354  20.958  32.957  0.00  0.00    +0.000 A 
ATOM     14  C   UNL     1      16.117  21.970  33.847  0.00  0.00    +0.000 A 
ATOM     15  O   UNL     1      14.925  22.674  33.936  0.00  0.00    +0.000 OA
ATOM     16  C   UNL     1      17.123  22.330  34.729  0.00  0.00    +0.000 A 
ATOM     17  C   UNL     1      16.934  23.417  35.704  0.00  0.00    +0.000 C 
ATOM     18  C   UNL     1      17.651  23.246  37.002  0.00  0.00    +0.000 C 
ATOM     19  C   UNL     1      16.611  22.729  38.008  0.00  0.00    +0.000 C 
ATOM     20  C   UNL     1      18.080  24.607  37.558  0.00  0.00    +0.000 C 
ATOM     21  C   UNL     1      18.531  24.388  38.982  0.00  0.00    +0.000 C 
ATOM     22  C   UNL     1      19.434  23.190  39.091  0.00  0.00    +0.000 C 
ATOM     23  C   UNL     1      20.081  23.119  37.609  0.00  0.00    +0.000 C 
ENDROOT
TORSDOF 0
ENDMDL
