MODEL 1
REMARK VINA RESULT:      -8.1      0.000      0.000
REMARK  Name = 
REMARK  9 active torsions:
REMARK  status: ('A' for Active; 'I' for Inactive)
REMARK    1  A    between atoms: O_2  and  C_3
REMARK    2  A    between atoms: C_8  and  C_9
REMARK    3  A    between atoms: C_9  and  C_10
REMARK    4  A    between atoms: C_10  and  N_11
REMARK    5  A    between atoms: C_12  and  C_14
REMARK    6  A    between atoms: C_17  and  C_18
REMARK    7  A    between atoms: C_18  and  O_19
REMARK    8  A    between atoms: O_19  and  C_20
REMARK    9  A    between atoms: C_23  and  C_24
REMARK                            x       y       z     vdW  Elec       q    Type
REMARK                         _______ _______ _______ _____ _____    ______ ____
ROOT
ATOM      1  C   UNL     1      36.126   1.999  16.804  0.00  0.00    +0.000 A 
ATOM      2  C   UNL     1      34.878   1.565  16.580  0.00  0.00    +0.000 A 
ATOM      3  C   UNL     1      34.805   0.263  17.107  0.00  0.00    +0.000 A 
ATOM      4  C   UNL     1      36.046   0.019  17.613  0.00  0.00    +0.000 A 
ATOM      5  O   UNL     1      36.856   1.068  17.435  0.00  0.00    +0.000 OA
ENDROOT
BRANCH   1   7
ATOM      6  N   UNL     1      37.803   3.823  17.245  0.00  0.00    +0.000 NA
ATOM      7  C   UNL     1      36.776   3.279  16.461  0.00  0.00    +0.000 C 
ATOM      8  O   UNL     1      36.406   3.908  15.428  0.00  0.00    +0.000 OA
BRANCH   6   9
ATOM      9  C   UNL     1      38.543   5.016  17.004  0.00  0.00    +0.000 C 
BRANCH   9  10
ATOM     10  C   UNL     1      39.356   5.262  18.264  0.00  0.00    +0.000 C 
BRANCH  10  16
ATOM     11  C   UNL     1      39.618   6.985  20.076  0.00  0.00    +0.000 A 
ATOM     12  C   UNL     1      39.167   8.145  20.651  0.00  0.00    +0.000 A 
ATOM     13  C   UNL     1      38.100   8.857  20.137  0.00  0.00    +0.000 A 
ATOM     14  C   UNL     1      37.466   8.371  18.999  0.00  0.00    +0.000 A 
ATOM     15  C   UNL     1      37.910   7.222  18.430  0.00  0.00    +0.000 A 
ATOM     16  C   UNL     1      38.999   6.497  18.952  0.00  0.00    +0.000 A 
BRANCH  11  18
ATOM     17  C   UNL     1      42.015   6.819  20.378  0.00  0.00    +0.000 C 
ATOM     18  O   UNL     1      40.716   6.283  20.626  0.00  0.00    +0.000 OA
ENDBRANCH  11  18
ENDBRANCH  10  16
ENDBRANCH   9  10
ENDBRANCH   6   9
ENDBRANCH   1   7
BRANCH   4  19
ATOM     19  C   UNL     1      36.537  -1.194  18.278  0.00  0.00    +0.000 C 
BRANCH  19  20
ATOM     20  O   UNL     1      36.852  -2.252  17.479  0.00  0.00    +0.000 OA
BRANCH  20  21
ATOM     21  C   UNL     1      37.634  -2.202  16.345  0.00  0.00    +0.000 A 
ATOM     22  C   UNL     1      37.195  -2.055  15.067  0.00  0.00    +0.000 A 
ATOM     23  C   UNL     1      38.017  -2.017  13.936  0.00  0.00    +0.000 A 
ATOM     24  C   UNL     1      39.412  -2.142  14.128  0.00  0.00    +0.000 A 
ATOM     25  C   UNL     1      39.839  -2.288  15.415  0.00  0.00    +0.000 A 
ATOM     26  C   UNL     1      39.040  -2.327  16.533  0.00  0.00    +0.000 A 
BRANCH  24  27
ATOM     27  C   UNL     1      40.372  -2.161  12.999  0.00  0.00    +0.000 C 
ATOM     28  C   UNL     1      40.840  -0.716  12.838  0.00  0.00    +0.000 C 
ATOM     29  C   UNL     1      41.547  -3.072  13.305  0.00  0.00    +0.000 C 
ATOM     30  C   UNL     1      39.743  -2.597  11.708  0.00  0.00    +0.000 C 
ENDBRANCH  24  27
ENDBRANCH  20  21
ENDBRANCH  19  20
ENDBRANCH   4  19
TORSDOF 9
ENDMDL
MODEL 2
REMARK VINA RESULT:      -7.9      2.351      9.086
REMARK  Name = 
REMARK  9 active torsions:
REMARK  status: ('A' for Active; 'I' for Inactive)
REMARK    1  A    between atoms: O_2  and  C_3
REMARK    2  A    between atoms: C_8  and  C_9
REMARK    3  A    between atoms: C_9  and  C_10
REMARK    4  A    between atoms: C_10  and  N_11
REMARK    5  A    between atoms: C_12  and  C_14
REMARK    6  A    between atoms: C_17  and  C_18
REMARK    7  A    between atoms: C_18  and  O_19
REMARK    8  A    between atoms: O_19  and  C_20
REMARK    9  A    between atoms: C_23  and  C_24
REMARK                            x       y       z     vdW  Elec       q    Type
REMARK                         _______ _______ _______ _____ _____    ______ ____
ROOT
ATOM      1  C   UNL     1      38.898   1.888  14.657  0.00  0.00    +0.000 A 
ATOM      2  C   UNL     1      39.457   2.869  13.934  0.00  0.00    +0.000 A 
ATOM      3  C   UNL     1      39.155   4.075  14.593  0.00  0.00    +0.000 A 
ATOM      4  C   UNL     1      38.421   3.707  15.680  0.00  0.00    +0.000 A 
ATOM      5  O   UNL     1      38.261   2.380  15.729  0.00  0.00    +0.000 OA
ENDROOT
BRANCH   1   7
ATOM      6  N   UNL     1      39.763  -0.432  15.105  0.00  0.00    +0.000 NA
ATOM      7  C   UNL     1      38.876   0.428  14.443  0.00  0.00    +0.000 C 
ATOM      8  O   UNL     1      38.032  -0.071  13.644  0.00  0.00    +0.000 OA
BRANCH   6   9
ATOM      9  C   UNL     1      39.818  -1.854  15.027  0.00  0.00    +0.000 C 
BRANCH   9  10
ATOM     10  C   UNL     1      39.124  -2.365  16.278  0.00  0.00    +0.000 C 
BRANCH  10  16
ATOM     11  C   UNL     1      36.748  -1.765  16.838  0.00  0.00    +0.000 A 
ATOM     12  C   UNL     1      35.411  -1.993  16.632  0.00  0.00    +0.000 A 
ATOM     13  C   UNL     1      34.955  -2.930  15.725  0.00  0.00    +0.000 A 
ATOM     14  C   UNL     1      35.889  -3.665  15.004  0.00  0.00    +0.000 A 
ATOM     15  C   UNL     1      37.211  -3.442  15.209  0.00  0.00    +0.000 A 
ATOM     16  C   UNL     1      37.679  -2.485  16.132  0.00  0.00    +0.000 A 
BRANCH  11  18
ATOM     17  C   UNL     1      37.015  -1.110  19.154  0.00  0.00    +0.000 C 
ATOM     18  O   UNL     1      37.181  -0.795  17.772  0.00  0.00    +0.000 OA
ENDBRANCH  11  18
ENDBRANCH  10  16
ENDBRANCH   9  10
ENDBRANCH   6   9
ENDBRANCH   1   7
BRANCH   4  19
ATOM     19  C   UNL     1      37.834   4.565  16.716  0.00  0.00    +0.000 C 
BRANCH  19  20
ATOM     20  O   UNL     1      38.427   5.773  16.928  0.00  0.00    +0.000 OA
BRANCH  20  21
ATOM     21  C   UNL     1      39.485   6.014  17.777  0.00  0.00    +0.000 A 
ATOM     22  C   UNL     1      39.436   6.063  19.135  0.00  0.00    +0.000 A 
ATOM     23  C   UNL     1      40.530   6.320  19.969  0.00  0.00    +0.000 A 
ATOM     24  C   UNL     1      41.785   6.548  19.360  0.00  0.00    +0.000 A 
ATOM     25  C   UNL     1      41.821   6.495  17.997  0.00  0.00    +0.000 A 
ATOM     26  C   UNL     1      40.753   6.244  17.170  0.00  0.00    +0.000 A 
BRANCH  24  27
ATOM     27  C   UNL     1      43.001   6.873  20.142  0.00  0.00    +0.000 C 
ATOM     28  C   UNL     1      42.783   8.291  20.665  0.00  0.00    +0.000 C 
ATOM     29  C   UNL     1      43.178   5.901  21.294  0.00  0.00    +0.000 C 
ATOM     30  C   UNL     1      44.248   6.868  19.307  0.00  0.00    +0.000 C 
ENDBRANCH  24  27
ENDBRANCH  20  21
ENDBRANCH  19  20
ENDBRANCH   4  19
TORSDOF 9
ENDMDL
MODEL 3
REMARK VINA RESULT:      -7.7      1.285      2.199
REMARK  Name = 
REMARK  9 active torsions:
REMARK  status: ('A' for Active; 'I' for Inactive)
REMARK    1  A    between atoms: O_2  and  C_3
REMARK    2  A    between atoms: C_8  and  C_9
REMARK    3  A    between atoms: C_9  and  C_10
REMARK    4  A    between atoms: C_10  and  N_11
REMARK    5  A    between atoms: C_12  and  C_14
REMARK    6  A    between atoms: C_17  and  C_18
REMARK    7  A    between atoms: C_18  and  O_19
REMARK    8  A    between atoms: O_19  and  C_20
REMARK    9  A    between atoms: C_23  and  C_24
REMARK                            x       y       z     vdW  Elec       q    Type
REMARK                         _______ _______ _______ _____ _____    ______ ____
ROOT
ATOM      1  C   UNL     1      36.486   2.894  16.811  0.00  0.00    +0.000 A 
ATOM      2  C   UNL     1      35.305   2.782  16.187  0.00  0.00    +0.000 A 
ATOM      3  C   UNL     1      34.752   1.554  16.595  0.00  0.00    +0.000 A 
ATOM      4  C   UNL     1      35.670   1.020  17.447  0.00  0.00    +0.000 A 
ATOM      5  O   UNL     1      36.728   1.827  17.586  0.00  0.00    +0.000 OA
ENDROOT
BRANCH   1   7
ATOM      6  N   UNL     1      38.368   4.217  17.831  0.00  0.00    +0.000 NA
ATOM      7  C   UNL     1      37.506   3.960  16.757  0.00  0.00    +0.000 C 
ATOM      8  O   UNL     1      37.615   4.664  15.711  0.00  0.00    +0.000 OA
BRANCH   6   9
ATOM      9  C   UNL     1      39.420   5.176  17.893  0.00  0.00    +0.000 C 
BRANCH   9  10
ATOM     10  C   UNL     1      39.003   6.182  18.952  0.00  0.00    +0.000 C 
BRANCH  10  16
ATOM     11  C   UNL     1      40.235   8.262  19.644  0.00  0.00    +0.000 A 
ATOM     12  C   UNL     1      41.360   8.818  20.197  0.00  0.00    +0.000 A 
ATOM     13  C   UNL     1      42.405   8.048  20.671  0.00  0.00    +0.000 A 
ATOM     14  C   UNL     1      42.306   6.665  20.576  0.00  0.00    +0.000 A 
ATOM     15  C   UNL     1      41.194   6.114  20.028  0.00  0.00    +0.000 A 
ATOM     16  C   UNL     1      40.126   6.898  19.546  0.00  0.00    +0.000 A 
BRANCH  11  18
ATOM     17  C   UNL     1      39.430   9.835  17.987  0.00  0.00    +0.000 C 
ATOM     18  O   UNL     1      39.181   9.079  19.172  0.00  0.00    +0.000 OA
ENDBRANCH  11  18
ENDBRANCH  10  16
ENDBRANCH   9  10
ENDBRANCH   6   9
ENDBRANCH   1   7
BRANCH   4  19
ATOM     19  C   UNL     1      35.613  -0.259  18.164  0.00  0.00    +0.000 C 
BRANCH  19  20
ATOM     20  O   UNL     1      35.939  -1.379  17.459  0.00  0.00    +0.000 OA
BRANCH  20  21
ATOM     21  C   UNL     1      36.901  -1.460  16.475  0.00  0.00    +0.000 A 
ATOM     22  C   UNL     1      36.696  -1.355  15.135  0.00  0.00    +0.000 A 
ATOM     23  C   UNL     1      37.696  -1.453  14.161  0.00  0.00    +0.000 A 
ATOM     24  C   UNL     1      39.022  -1.678  14.595  0.00  0.00    +0.000 A 
ATOM     25  C   UNL     1      39.213  -1.780  15.942  0.00  0.00    +0.000 A 
ATOM     26  C   UNL     1      38.239  -1.687  16.907  0.00  0.00    +0.000 A 
BRANCH  24  27
ATOM     27  C   UNL     1      40.151  -1.842  13.650  0.00  0.00    +0.000 C 
ATOM     28  C   UNL     1      41.294  -2.425  14.477  0.00  0.00    +0.000 C 
ATOM     29  C   UNL     1      39.777  -2.782  12.519  0.00  0.00    +0.000 C 
ATOM     30  C   UNL     1      40.614  -0.539  13.065  0.00  0.00    +0.000 C 
ENDBRANCH  24  27
ENDBRANCH  20  21
ENDBRANCH  19  20
ENDBRANCH   4  19
TORSDOF 9
ENDMDL
MODEL 4
REMARK VINA RESULT:      -7.7      3.199      4.301
REMARK  Name = 
REMARK  9 active torsions:
REMARK  status: ('A' for Active; 'I' for Inactive)
REMARK    1  A    between atoms: O_2  and  C_3
REMARK    2  A    between atoms: C_8  and  C_9
REMARK    3  A    between atoms: C_9  and  C_10
REMARK    4  A    between atoms: C_10  and  N_11
REMARK    5  A    between atoms: C_12  and  C_14
REMARK    6  A    between atoms: C_17  and  C_18
REMARK    7  A    between atoms: C_18  and  O_19
REMARK    8  A    between atoms: O_19  and  C_20
REMARK    9  A    between atoms: C_23  and  C_24
REMARK                            x       y       z     vdW  Elec       q    Type
REMARK                         _______ _______ _______ _____ _____    ______ ____
ROOT
ATOM      1  C   UNL     1      36.281   1.782  16.409  0.00  0.00    +0.000 A 
ATOM      2  C   UNL     1      35.105   1.427  16.947  0.00  0.00    +0.000 A 
ATOM      3  C   UNL     1      35.048   0.022  16.894  0.00  0.00    +0.000 A 
ATOM      4  C   UNL     1      36.220  -0.356  16.313  0.00  0.00    +0.000 A 
ATOM      5  O   UNL     1      36.977   0.706  16.015  0.00  0.00    +0.000 OA
ENDROOT
BRANCH   1   7
ATOM      6  N   UNL     1      37.654   3.750  17.166  0.00  0.00    +0.000 NA
ATOM      7  C   UNL     1      36.875   3.114  16.189  0.00  0.00    +0.000 C 
ATOM      8  O   UNL     1      36.685   3.706  15.087  0.00  0.00    +0.000 OA
BRANCH   6   9
ATOM      9  C   UNL     1      38.321   5.005  17.066  0.00  0.00    +0.000 C 
BRANCH   9  10
ATOM     10  C   UNL     1      39.168   5.125  18.322  0.00  0.00    +0.000 C 
BRANCH  10  16
ATOM     11  C   UNL     1      39.852   6.874  19.993  0.00  0.00    +0.000 A 
ATOM     12  C   UNL     1      39.609   8.098  20.562  0.00  0.00    +0.000 A 
ATOM     13  C   UNL     1      38.563   8.905  20.154  0.00  0.00    +0.000 A 
ATOM     14  C   UNL     1      37.733   8.451  19.136  0.00  0.00    +0.000 A 
ATOM     15  C   UNL     1      37.973   7.239  18.573  0.00  0.00    +0.000 A 
ATOM     16  C   UNL     1      39.040   6.416  18.986  0.00  0.00    +0.000 A 
BRANCH  11  18
ATOM     17  C   UNL     1      42.236   6.654  20.359  0.00  0.00    +0.000 C 
ATOM     18  O   UNL     1      40.934   6.075  20.432  0.00  0.00    +0.000 OA
ENDBRANCH  11  18
ENDBRANCH  10  16
ENDBRANCH   9  10
ENDBRANCH   6   9
ENDBRANCH   1   7
BRANCH   4  19
ATOM     19  C   UNL     1      36.689  -1.712  16.003  0.00  0.00    +0.000 C 
BRANCH  19  20
ATOM     20  O   UNL     1      35.946  -2.437  15.120  0.00  0.00    +0.000 OA
BRANCH  20  21
ATOM     21  C   UNL     1      35.503  -3.729  15.308  0.00  0.00    +0.000 A 
ATOM     22  C   UNL     1      36.106  -4.687  16.062  0.00  0.00    +0.000 A 
ATOM     23  C   UNL     1      35.634  -5.994  16.223  0.00  0.00    +0.000 A 
ATOM     24  C   UNL     1      34.441  -6.354  15.556  0.00  0.00    +0.000 A 
ATOM     25  C   UNL     1      33.847  -5.383  14.804  0.00  0.00    +0.000 A 
ATOM     26  C   UNL     1      34.302  -4.097  14.638  0.00  0.00    +0.000 A 
BRANCH  24  27
ATOM     27  C   UNL     1      33.875  -7.722  15.620  0.00  0.00    +0.000 C 
ATOM     28  C   UNL     1      33.660  -8.143  14.168  0.00  0.00    +0.000 C 
ATOM     29  C   UNL     1      34.835  -8.671  16.314  0.00  0.00    +0.000 C 
ATOM     30  C   UNL     1      32.551  -7.771  16.324  0.00  0.00    +0.000 C 
ENDBRANCH  24  27
ENDBRANCH  20  21
ENDBRANCH  19  20
ENDBRANCH   4  19
TORSDOF 9
ENDMDL
MODEL 5
REMARK VINA RESULT:      -7.6      3.666      7.548
REMARK  Name = 
REMARK  9 active torsions:
REMARK  status: ('A' for Active; 'I' for Inactive)
REMARK    1  A    between atoms: O_2  and  C_3
REMARK    2  A    between atoms: C_8  and  C_9
REMARK    3  A    between atoms: C_9  and  C_10
REMARK    4  A    between atoms: C_10  and  N_11
REMARK    5  A    between atoms: C_12  and  C_14
REMARK    6  A    between atoms: C_17  and  C_18
REMARK    7  A    between atoms: C_18  and  O_19
REMARK    8  A    between atoms: O_19  and  C_20
REMARK    9  A    between atoms: C_23  and  C_24
REMARK                            x       y       z     vdW  Elec       q    Type
REMARK                         _______ _______ _______ _____ _____    ______ ____
ROOT
ATOM      1  C   UNL     1      38.267  -2.318  18.000  0.00  0.00    +0.000 A 
ATOM      2  C   UNL     1      37.994  -2.714  19.251  0.00  0.00    +0.000 A 
ATOM      3  C   UNL     1      37.116  -1.757  19.792  0.00  0.00    +0.000 A 
ATOM      4  C   UNL     1      36.933  -0.846  18.796  0.00  0.00    +0.000 A 
ATOM      5  O   UNL     1      37.627  -1.178  17.702  0.00  0.00    +0.000 OA
ENDROOT
BRANCH   1   7
ATOM      6  N   UNL     1      39.722  -2.152  15.953  0.00  0.00    +0.000 NA
ATOM      7  C   UNL     1      39.133  -2.919  16.967  0.00  0.00    +0.000 C 
ATOM      8  O   UNL     1      39.361  -4.164  16.994  0.00  0.00    +0.000 OA
BRANCH   6   9
ATOM      9  C   UNL     1      40.610  -2.594  14.931  0.00  0.00    +0.000 C 
BRANCH   9  10
ATOM     10  C   UNL     1      40.038  -2.064  13.626  0.00  0.00    +0.000 C 
BRANCH  10  16
ATOM     11  C   UNL     1      38.325  -0.224  13.628  0.00  0.00    +0.000 A 
ATOM     12  C   UNL     1      38.063   1.121  13.678  0.00  0.00    +0.000 A 
ATOM     13  C   UNL     1      39.067   2.063  13.803  0.00  0.00    +0.000 A 
ATOM     14  C   UNL     1      40.383   1.623  13.876  0.00  0.00    +0.000 A 
ATOM     15  C   UNL     1      40.643   0.293  13.825  0.00  0.00    +0.000 A 
ATOM     16  C   UNL     1      39.621  -0.669  13.700  0.00  0.00    +0.000 A 
BRANCH  11  18
ATOM     17  C   UNL     1      36.425  -1.335  14.639  0.00  0.00    +0.000 C 
ATOM     18  O   UNL     1      37.273  -1.162  13.504  0.00  0.00    +0.000 OA
ENDBRANCH  11  18
ENDBRANCH  10  16
ENDBRANCH   9  10
ENDBRANCH   6   9
ENDBRANCH   1   7
BRANCH   4  19
ATOM     19  C   UNL     1      36.114   0.372  18.814  0.00  0.00    +0.000 C 
BRANCH  19  20
ATOM     20  O   UNL     1      35.431   0.676  17.675  0.00  0.00    +0.000 OA
BRANCH  20  21
ATOM     21  C   UNL     1      35.679   1.752  16.849  0.00  0.00    +0.000 A 
ATOM     22  C   UNL     1      36.671   2.669  16.994  0.00  0.00    +0.000 A 
ATOM     23  C   UNL     1      36.888   3.757  16.141  0.00  0.00    +0.000 A 
ATOM     24  C   UNL     1      36.013   3.922  15.044  0.00  0.00    +0.000 A 
ATOM     25  C   UNL     1      35.022   2.994  14.910  0.00  0.00    +0.000 A 
ATOM     26  C   UNL     1      34.800   1.923  15.742  0.00  0.00    +0.000 A 
BRANCH  24  27
ATOM     27  C   UNL     1      36.122   5.062  14.104  0.00  0.00    +0.000 C 
ATOM     28  C   UNL     1      37.165   5.995  14.714  0.00  0.00    +0.000 C 
ATOM     29  C   UNL     1      36.565   4.590  12.731  0.00  0.00    +0.000 C 
ATOM     30  C   UNL     1      34.837   5.824  13.963  0.00  0.00    +0.000 C 
ENDBRANCH  24  27
ENDBRANCH  20  21
ENDBRANCH  19  20
ENDBRANCH   4  19
TORSDOF 9
ENDMDL
MODEL 6
REMARK VINA RESULT:      -7.5      2.620      8.685
REMARK  Name = 
REMARK  9 active torsions:
REMARK  status: ('A' for Active; 'I' for Inactive)
REMARK    1  A    between atoms: O_2  and  C_3
REMARK    2  A    between atoms: C_8  and  C_9
REMARK    3  A    between atoms: C_9  and  C_10
REMARK    4  A    between atoms: C_10  and  N_11
REMARK    5  A    between atoms: C_12  and  C_14
REMARK    6  A    between atoms: C_17  and  C_18
REMARK    7  A    between atoms: C_18  and  O_19
REMARK    8  A    between atoms: O_19  and  C_20
REMARK    9  A    between atoms: C_23  and  C_24
REMARK                            x       y       z     vdW  Elec       q    Type
REMARK                         _______ _______ _______ _____ _____    ______ ____
ROOT
ATOM      1  C   UNL     1      37.654   0.546  14.628  0.00  0.00    +0.000 A 
ATOM      2  C   UNL     1      36.792   0.838  13.644  0.00  0.00    +0.000 A 
ATOM      3  C   UNL     1      36.472   2.201  13.784  0.00  0.00    +0.000 A 
ATOM      4  C   UNL     1      37.184   2.621  14.866  0.00  0.00    +0.000 A 
ATOM      5  O   UNL     1      37.908   1.623  15.386  0.00  0.00    +0.000 OA
ENDROOT
BRANCH   1   7
ATOM      6  N   UNL     1      38.516  -1.111  16.314  0.00  0.00    +0.000 NA
ATOM      7  C   UNL     1      38.316  -0.725  14.982  0.00  0.00    +0.000 C 
ATOM      8  O   UNL     1      38.713  -1.497  14.062  0.00  0.00    +0.000 OA
BRANCH   6   9
ATOM      9  C   UNL     1      39.094  -2.323  16.792  0.00  0.00    +0.000 C 
BRANCH   9  10
ATOM     10  C   UNL     1      38.179  -2.809  17.904  0.00  0.00    +0.000 C 
BRANCH  10  16
ATOM     11  C   UNL     1      35.857  -2.829  16.938  0.00  0.00    +0.000 A 
ATOM     12  C   UNL     1      34.611  -2.260  16.895  0.00  0.00    +0.000 A 
ATOM     13  C   UNL     1      34.268  -1.177  17.683  0.00  0.00    +0.000 A 
ATOM     14  C   UNL     1      35.225  -0.652  18.543  0.00  0.00    +0.000 A 
ATOM     15  C   UNL     1      36.460  -1.215  18.585  0.00  0.00    +0.000 A 
ATOM     16  C   UNL     1      36.811  -2.320  17.784  0.00  0.00    +0.000 A 
BRANCH  11  18
ATOM     17  C   UNL     1      36.018  -3.770  14.713  0.00  0.00    +0.000 C 
ATOM     18  O   UNL     1      36.175  -3.939  16.121  0.00  0.00    +0.000 OA
ENDBRANCH  11  18
ENDBRANCH  10  16
ENDBRANCH   9  10
ENDBRANCH   6   9
ENDBRANCH   1   7
BRANCH   4  19
ATOM     19  C   UNL     1      37.224   3.959  15.469  0.00  0.00    +0.000 C 
BRANCH  19  20
ATOM     20  O   UNL     1      37.677   4.047  16.750  0.00  0.00    +0.000 OA
BRANCH  20  21
ATOM     21  C   UNL     1      38.742   4.810  17.179  0.00  0.00    +0.000 A 
ATOM     22  C   UNL     1      39.711   5.355  16.396  0.00  0.00    +0.000 A 
ATOM     23  C   UNL     1      40.786   6.118  16.865  0.00  0.00    +0.000 A 
ATOM     24  C   UNL     1      40.879   6.343  18.257  0.00  0.00    +0.000 A 
ATOM     25  C   UNL     1      39.900   5.791  19.031  0.00  0.00    +0.000 A 
ATOM     26  C   UNL     1      38.841   5.039  18.581  0.00  0.00    +0.000 A 
BRANCH  24  27
ATOM     27  C   UNL     1      41.999   7.097  18.868  0.00  0.00    +0.000 C 
ATOM     28  C   UNL     1      43.211   6.815  17.984  0.00  0.00    +0.000 C 
ATOM     29  C   UNL     1      41.695   8.584  18.899  0.00  0.00    +0.000 C 
ATOM     30  C   UNL     1      42.318   6.639  20.261  0.00  0.00    +0.000 C 
ENDBRANCH  24  27
ENDBRANCH  20  21
ENDBRANCH  19  20
ENDBRANCH   4  19
TORSDOF 9
ENDMDL
MODEL 7
REMARK VINA RESULT:      -7.5     23.537     26.828
REMARK  Name = 
REMARK  9 active torsions:
REMARK  status: ('A' for Active; 'I' for Inactive)
REMARK    1  A    between atoms: O_2  and  C_3
REMARK    2  A    between atoms: C_8  and  C_9
REMARK    3  A    between atoms: C_9  and  C_10
REMARK    4  A    between atoms: C_10  and  N_11
REMARK    5  A    between atoms: C_12  and  C_14
REMARK    6  A    between atoms: C_17  and  C_18
REMARK    7  A    between atoms: C_18  and  O_19
REMARK    8  A    between atoms: O_19  and  C_20
REMARK    9  A    between atoms: C_23  and  C_24
REMARK                            x       y       z     vdW  Elec       q    Type
REMARK                         _______ _______ _______ _____ _____    ______ ____
ROOT
ATOM      1  C   UNL     1      13.291   0.429  27.087  0.00  0.00    +0.000 A 
ATOM      2  C   UNL     1      13.561  -0.685  26.392  0.00  0.00    +0.000 A 
ATOM      3  C   UNL     1      14.951  -0.884  26.477  0.00  0.00    +0.000 A 
ATOM      4  C   UNL     1      15.408   0.153  27.233  0.00  0.00    +0.000 A 
ATOM      5  O   UNL     1      14.407   0.956  27.610  0.00  0.00    +0.000 OA
ENDROOT
BRANCH   1   7
ATOM      6  N   UNL     1      11.051   1.287  26.325  0.00  0.00    +0.000 NA
ATOM      7  C   UNL     1      12.012   1.124  27.332  0.00  0.00    +0.000 C 
ATOM      8  O   UNL     1      11.767   1.586  28.484  0.00  0.00    +0.000 OA
BRANCH   6   9
ATOM      9  C   UNL     1       9.766   1.891  26.438  0.00  0.00    +0.000 C 
BRANCH   9  10
ATOM     10  C   UNL     1       9.250   2.039  25.017  0.00  0.00    +0.000 C 
BRANCH  10  16
ATOM     11  C   UNL     1       7.686   0.198  24.320  0.00  0.00    +0.000 A 
ATOM     12  C   UNL     1       6.394  -0.226  24.146  0.00  0.00    +0.000 A 
ATOM     13  C   UNL     1       5.308   0.571  24.457  0.00  0.00    +0.000 A 
ATOM     14  C   UNL     1       5.544   1.846  24.958  0.00  0.00    +0.000 A 
ATOM     15  C   UNL     1       6.822   2.267  25.129  0.00  0.00    +0.000 A 
ATOM     16  C   UNL     1       7.930   1.455  24.815  0.00  0.00    +0.000 A 
BRANCH  11  18
ATOM     17  C   UNL     1       9.136  -1.633  24.959  0.00  0.00    +0.000 C 
ATOM     18  O   UNL     1       8.775  -0.645  23.995  0.00  0.00    +0.000 OA
ENDBRANCH  11  18
ENDBRANCH  10  16
ENDBRANCH   9  10
ENDBRANCH   6   9
ENDBRANCH   1   7
BRANCH   4  19
ATOM     19  C   UNL     1      16.789   0.448  27.635  0.00  0.00    +0.000 C 
BRANCH  19  20
ATOM     20  O   UNL     1      17.751  -0.430  27.234  0.00  0.00    +0.000 OA
BRANCH  20  21
ATOM     21  C   UNL     1      18.394  -0.420  26.015  0.00  0.00    +0.000 A 
ATOM     22  C   UNL     1      18.809  -1.507  25.312  0.00  0.00    +0.000 A 
ATOM     23  C   UNL     1      19.469  -1.461  24.079  0.00  0.00    +0.000 A 
ATOM     24  C   UNL     1      19.729  -0.191  23.516  0.00  0.00    +0.000 A 
ATOM     25  C   UNL     1      19.307   0.891  24.231  0.00  0.00    +0.000 A 
ATOM     26  C   UNL     1      18.659   0.857  25.443  0.00  0.00    +0.000 A 
BRANCH  24  27
ATOM     27  C   UNL     1      20.460  -0.023  22.238  0.00  0.00    +0.000 C 
ATOM     28  C   UNL     1      20.641  -1.434  21.683  0.00  0.00    +0.000 C 
ATOM     29  C   UNL     1      19.666   0.834  21.270  0.00  0.00    +0.000 C 
ATOM     30  C   UNL     1      21.820   0.586  22.422  0.00  0.00    +0.000 C 
ENDBRANCH  24  27
ENDBRANCH  20  21
ENDBRANCH  19  20
ENDBRANCH   4  19
TORSDOF 9
ENDMDL
MODEL 8
REMARK VINA RESULT:      -7.3      2.511      8.609
REMARK  Name = 
REMARK  9 active torsions:
REMARK  status: ('A' for Active; 'I' for Inactive)
REMARK    1  A    between atoms: O_2  and  C_3
REMARK    2  A    between atoms: C_8  and  C_9
REMARK    3  A    between atoms: C_9  and  C_10
REMARK    4  A    between atoms: C_10  and  N_11
REMARK    5  A    between atoms: C_12  and  C_14
REMARK    6  A    between atoms: C_17  and  C_18
REMARK    7  A    between atoms: C_18  and  O_19
REMARK    8  A    between atoms: O_19  and  C_20
REMARK    9  A    between atoms: C_23  and  C_24
REMARK                            x       y       z     vdW  Elec       q    Type
REMARK                         _______ _______ _______ _____ _____    ______ ____
ROOT
ATOM      1  C   UNL     1      38.651   0.608  14.210  0.00  0.00    +0.000 A 
ATOM      2  C   UNL     1      39.819   1.243  14.033  0.00  0.00    +0.000 A 
ATOM      3  C   UNL     1      39.597   2.591  14.372  0.00  0.00    +0.000 A 
ATOM      4  C   UNL     1      38.285   2.652  14.730  0.00  0.00    +0.000 A 
ATOM      5  O   UNL     1      37.701   1.452  14.637  0.00  0.00    +0.000 OA
ENDROOT
BRANCH   1   7
ATOM      6  N   UNL     1      38.646  -1.810  14.907  0.00  0.00    +0.000 NA
ATOM      7  C   UNL     1      38.283  -0.806  14.000  0.00  0.00    +0.000 C 
ATOM      8  O   UNL     1      37.616  -1.129  12.974  0.00  0.00    +0.000 OA
BRANCH   6   9
ATOM      9  C   UNL     1      38.318  -3.195  14.851  0.00  0.00    +0.000 C 
BRANCH   9  10
ATOM     10  C   UNL     1      37.050  -3.355  15.673  0.00  0.00    +0.000 C 
BRANCH  10  16
ATOM     11  C   UNL     1      36.431  -1.571  17.332  0.00  0.00    +0.000 A 
ATOM     12  C   UNL     1      36.604  -1.035  18.582  0.00  0.00    +0.000 A 
ATOM     13  C   UNL     1      37.452  -1.600  19.515  0.00  0.00    +0.000 A 
ATOM     14  C   UNL     1      38.153  -2.748  19.165  0.00  0.00    +0.000 A 
ATOM     15  C   UNL     1      37.984  -3.278  17.927  0.00  0.00    +0.000 A 
ATOM     16  C   UNL     1      37.118  -2.704  16.975  0.00  0.00    +0.000 A 
BRANCH  11  18
ATOM     17  C   UNL     1      35.107   0.355  16.696  0.00  0.00    +0.000 C 
ATOM     18  O   UNL     1      35.551  -0.969  16.401  0.00  0.00    +0.000 OA
ENDBRANCH  11  18
ENDBRANCH  10  16
ENDBRANCH   9  10
ENDBRANCH   6   9
ENDBRANCH   1   7
BRANCH   4  19
ATOM     19  C   UNL     1      37.513   3.821  15.170  0.00  0.00    +0.000 C 
BRANCH  19  20
ATOM     20  O   UNL     1      37.633   4.184  16.478  0.00  0.00    +0.000 OA
BRANCH  20  21
ATOM     21  C   UNL     1      38.684   4.888  17.026  0.00  0.00    +0.000 A 
ATOM     22  C   UNL     1      39.671   5.526  16.343  0.00  0.00    +0.000 A 
ATOM     23  C   UNL     1      40.731   6.225  16.933  0.00  0.00    +0.000 A 
ATOM     24  C   UNL     1      40.785   6.276  18.344  0.00  0.00    +0.000 A 
ATOM     25  C   UNL     1      39.788   5.633  19.016  0.00  0.00    +0.000 A 
ATOM     26  C   UNL     1      38.744   4.943  18.448  0.00  0.00    +0.000 A 
BRANCH  24  27
ATOM     27  C   UNL     1      41.886   6.949  19.074  0.00  0.00    +0.000 C 
ATOM     28  C   UNL     1      41.485   8.421  19.148  0.00  0.00    +0.000 C 
ATOM     29  C   UNL     1      42.045   6.368  20.467  0.00  0.00    +0.000 C 
ATOM     30  C   UNL     1      43.201   6.857  18.356  0.00  0.00    +0.000 C 
ENDBRANCH  24  27
ENDBRANCH  20  21
ENDBRANCH  19  20
ENDBRANCH   4  19
TORSDOF 9
ENDMDL
MODEL 9
REMARK VINA RESULT:      -7.3      2.281      9.110
REMARK  Name = 
REMARK  9 active torsions:
REMARK  status: ('A' for Active; 'I' for Inactive)
REMARK    1  A    between atoms: O_2  and  C_3
REMARK    2  A    between atoms: C_8  and  C_9
REMARK    3  A    between atoms: C_9  and  C_10
REMARK    4  A    between atoms: C_10  and  N_11
REMARK    5  A    between atoms: C_12  and  C_14
REMARK    6  A    between atoms: C_17  and  C_18
REMARK    7  A    between atoms: C_18  and  O_19
REMARK    8  A    between atoms: O_19  and  C_20
REMARK    9  A    between atoms: C_23  and  C_24
REMARK                            x       y       z     vdW  Elec       q    Type
REMARK                         _______ _______ _______ _____ _____    ______ ____
ROOT
ATOM      1  C   UNL     1      35.841   0.687  16.046  0.00  0.00    +0.000 A 
ATOM      2  C   UNL     1      35.771   1.203  14.811  0.00  0.00    +0.000 A 
ATOM      3  C   UNL     1      36.268   2.517  14.898  0.00  0.00    +0.000 A 
ATOM      4  C   UNL     1      36.599   2.682  16.208  0.00  0.00    +0.000 A 
ATOM      5  O   UNL     1      36.345   1.575  16.915  0.00  0.00    +0.000 OA
ENDROOT
BRANCH   1   7
ATOM      6  N   UNL     1      35.590  -1.804  15.787  0.00  0.00    +0.000 NA
ATOM      7  C   UNL     1      35.450  -0.641  16.558  0.00  0.00    +0.000 C 
ATOM      8  O   UNL     1      34.977  -0.743  17.727  0.00  0.00    +0.000 OA
BRANCH   6   9
ATOM      9  C   UNL     1      35.299  -3.144  16.173  0.00  0.00    +0.000 C 
BRANCH   9  10
ATOM     10  C   UNL     1      36.141  -4.028  15.269  0.00  0.00    +0.000 C 
BRANCH  10  16
ATOM     11  C   UNL     1      38.472  -3.503  16.050  0.00  0.00    +0.000 A 
ATOM     12  C   UNL     1      39.708  -2.987  15.756  0.00  0.00    +0.000 A 
ATOM     13  C   UNL     1      40.022  -2.493  14.504  0.00  0.00    +0.000 A 
ATOM     14  C   UNL     1      39.046  -2.522  13.516  0.00  0.00    +0.000 A 
ATOM     15  C   UNL     1      37.822  -3.032  13.806  0.00  0.00    +0.000 A 
ATOM     16  C   UNL     1      37.501  -3.538  15.081  0.00  0.00    +0.000 A 
BRANCH  11  18
ATOM     17  C   UNL     1      38.362  -3.105  18.436  0.00  0.00    +0.000 C 
ATOM     18  O   UNL     1      38.185  -4.004  17.341  0.00  0.00    +0.000 OA
ENDBRANCH  11  18
ENDBRANCH  10  16
ENDBRANCH   9  10
ENDBRANCH   6   9
ENDBRANCH   1   7
BRANCH   4  19
ATOM     19  C   UNL     1      37.160   3.870  16.864  0.00  0.00    +0.000 C 
BRANCH  19  20
ATOM     20  O   UNL     1      38.312   4.377  16.344  0.00  0.00    +0.000 OA
BRANCH  20  21
ATOM     21  C   UNL     1      39.271   5.081  17.041  0.00  0.00    +0.000 A 
ATOM     22  C   UNL     1      40.364   5.694  16.515  0.00  0.00    +0.000 A 
ATOM     23  C   UNL     1      41.325   6.394  17.255  0.00  0.00    +0.000 A 
ATOM     24  C   UNL     1      41.151   6.473  18.655  0.00  0.00    +0.000 A 
ATOM     25  C   UNL     1      40.050   5.855  19.169  0.00  0.00    +0.000 A 
ATOM     26  C   UNL     1      39.102   5.164  18.453  0.00  0.00    +0.000 A 
BRANCH  24  27
ATOM     27  C   UNL     1      42.129   7.149  19.540  0.00  0.00    +0.000 C 
ATOM     28  C   UNL     1      42.357   6.189  20.705  0.00  0.00    +0.000 C 
ATOM     29  C   UNL     1      43.430   7.415  18.805  0.00  0.00    +0.000 C 
ATOM     30  C   UNL     1      41.612   8.445  20.094  0.00  0.00    +0.000 C 
ENDBRANCH  24  27
ENDBRANCH  20  21
ENDBRANCH  19  20
ENDBRANCH   4  19
TORSDOF 9
ENDMDL
MODEL 10
REMARK VINA RESULT:      -7.3      2.537      8.853
REMARK  Name = 
REMARK  9 active torsions:
REMARK  status: ('A' for Active; 'I' for Inactive)
REMARK    1  A    between atoms: O_2  and  C_3
REMARK    2  A    between atoms: C_8  and  C_9
REMARK    3  A    between atoms: C_9  and  C_10
REMARK    4  A    between atoms: C_10  and  N_11
REMARK    5  A    between atoms: C_12  and  C_14
REMARK    6  A    between atoms: C_17  and  C_18
REMARK    7  A    between atoms: C_18  and  O_19
REMARK    8  A    between atoms: O_19  and  C_20
REMARK    9  A    between atoms: C_23  and  C_24
REMARK                            x       y       z     vdW  Elec       q    Type
REMARK                         _______ _______ _______ _____ _____    ______ ____
ROOT
ATOM      1  C   UNL     1      39.029   1.266  14.559  0.00  0.00    +0.000 A 
ATOM      2  C   UNL     1      39.960   1.887  13.820  0.00  0.00    +0.000 A 
ATOM      3  C   UNL     1      39.774   3.267  14.021  0.00  0.00    +0.000 A 
ATOM      4  C   UNL     1      38.723   3.359  14.881  0.00  0.00    +0.000 A 
ATOM      5  O   UNL     1      38.263   2.149  15.216  0.00  0.00    +0.000 OA
ENDROOT
BRANCH   1   7
ATOM      6  N   UNL     1      37.611  -0.773  14.154  0.00  0.00    +0.000 NA
ATOM      7  C   UNL     1      38.738  -0.171  14.730  0.00  0.00    +0.000 C 
ATOM      8  O   UNL     1      39.526  -0.889  15.412  0.00  0.00    +0.000 OA
BRANCH   6   9
ATOM      9  C   UNL     1      37.240  -2.148  14.201  0.00  0.00    +0.000 C 
BRANCH   9  10
ATOM     10  C   UNL     1      35.948  -2.203  14.998  0.00  0.00    +0.000 C 
BRANCH  10  16
ATOM     11  C   UNL     1      36.905  -2.447  17.310  0.00  0.00    +0.000 A 
ATOM     12  C   UNL     1      36.949  -1.996  18.605  0.00  0.00    +0.000 A 
ATOM     13  C   UNL     1      36.216  -0.905  19.030  0.00  0.00    +0.000 A 
ATOM     14  C   UNL     1      35.407  -0.250  18.109  0.00  0.00    +0.000 A 
ATOM     15  C   UNL     1      35.362  -0.696  16.828  0.00  0.00    +0.000 A 
ATOM     16  C   UNL     1      36.110  -1.808  16.392  0.00  0.00    +0.000 A 
BRANCH  11  18
ATOM     17  C   UNL     1      38.381  -4.264  17.929  0.00  0.00    +0.000 C 
ATOM     18  O   UNL     1      37.672  -3.566  16.907  0.00  0.00    +0.000 OA
ENDBRANCH  11  18
ENDBRANCH  10  16
ENDBRANCH   9  10
ENDBRANCH   6   9
ENDBRANCH   1   7
BRANCH   4  19
ATOM     19  C   UNL     1      38.095   4.569  15.428  0.00  0.00    +0.000 C 
BRANCH  19  20
ATOM     20  O   UNL     1      38.101   4.710  16.783  0.00  0.00    +0.000 OA
BRANCH  20  21
ATOM     21  C   UNL     1      39.079   5.340  17.523  0.00  0.00    +0.000 A 
ATOM     22  C   UNL     1      39.031   5.618  18.853  0.00  0.00    +0.000 A 
ATOM     23  C   UNL     1      40.040   6.268  19.573  0.00  0.00    +0.000 A 
ATOM     24  C   UNL     1      41.199   6.669  18.871  0.00  0.00    +0.000 A 
ATOM     25  C   UNL     1      41.235   6.383  17.538  0.00  0.00    +0.000 A 
ATOM     26  C   UNL     1      40.250   5.746  16.821  0.00  0.00    +0.000 A 
BRANCH  24  27
ATOM     27  C   UNL     1      42.309   7.404  19.523  0.00  0.00    +0.000 C 
ATOM     28  C   UNL     1      42.926   6.417  20.511  0.00  0.00    +0.000 C 
ATOM     29  C   UNL     1      43.337   7.848  18.499  0.00  0.00    +0.000 C 
ATOM     30  C   UNL     1      41.839   8.605  20.291  0.00  0.00    +0.000 C 
ENDBRANCH  24  27
ENDBRANCH  20  21
ENDBRANCH  19  20
ENDBRANCH   4  19
TORSDOF 9
ENDMDL
