MODEL 1
REMARK VINA RESULT:      -6.2      0.000      0.000
REMARK  Name = 
REMARK  3 active torsions:
REMARK  status: ('A' for Active; 'I' for Inactive)
REMARK    1  A    between atoms: C_5  and  C_6
REMARK    2  A    between atoms: C_11  and  O_12
REMARK    3  A    between atoms: C_15  and  O_16
REMARK                            x       y       z     vdW  Elec       q    Type
REMARK                         _______ _______ _______ _____ _____    ______ ____
ROOT
ATOM      1  C   UNL     1      26.863  23.219  25.197  0.00  0.00    +0.000 A 
ATOM      2  C   UNL     1      25.669  22.893  24.541  0.00  0.00    +0.000 A 
ATOM      3  N   UNL     1      25.815  23.118  23.232  0.00  0.00    +0.000 NA
ATOM      4  C   UNL     1      27.060  23.581  22.984  0.00  0.00    +0.000 A 
ATOM      5  C   UNL     1      27.713  23.959  21.841  0.00  0.00    +0.000 A 
ATOM      6  C   UNL     1      29.019  24.410  21.839  0.00  0.00    +0.000 A 
ATOM      7  C   UNL     1      29.642  24.464  23.046  0.00  0.00    +0.000 A 
ATOM      8  C   UNL     1      29.009  24.088  24.235  0.00  0.00    +0.000 A 
ATOM      9  C   UNL     1      27.720  23.646  24.214  0.00  0.00    +0.000 A 
ENDROOT
BRANCH   1  14
ATOM     10  C   UNL     1      25.073  25.531  29.644  0.00  0.00    +0.000 C 
ATOM     11  N   UNL     1      26.033  24.501  29.871  0.00  0.00    +0.000 NA
ATOM     12  C   UNL     1      26.617  23.775  28.773  0.00  0.00    +0.000 A 
ATOM     13  N   UNL     1      26.428  23.878  27.492  0.00  0.00    +0.000 NA
ATOM     14  C   UNL     1      27.080  23.098  26.662  0.00  0.00    +0.000 A 
ATOM     15  C   UNL     1      27.944  22.201  27.238  0.00  0.00    +0.000 A 
ATOM     16  S   UNL     1      27.768  22.525  28.898  0.00  0.00    +0.000 S 
ENDBRANCH   1  14
BRANCH   6  17
ATOM     17  O   UNL     1      29.685  24.793  20.697  0.00  0.00    +0.000 OA
ATOM     18  C   UNL     1      29.618  26.149  20.240  0.00  0.00    +0.000 C 
ENDBRANCH   6  17
BRANCH   8  19
ATOM     19  O   UNL     1      29.713  24.172  25.428  0.00  0.00    +0.000 OA
ATOM     20  C   UNL     1      29.901  25.421  26.049  0.00  0.00    +0.000 C 
ENDBRANCH   8  19
TORSDOF 3
ENDMDL
MODEL 2
REMARK VINA RESULT:      -5.8     32.384     33.677
REMARK  Name = 
REMARK  3 active torsions:
REMARK  status: ('A' for Active; 'I' for Inactive)
REMARK    1  A    between atoms: C_5  and  C_6
REMARK    2  A    between atoms: C_11  and  O_12
REMARK    3  A    between atoms: C_15  and  O_16
REMARK                            x       y       z     vdW  Elec       q    Type
REMARK                         _______ _______ _______ _____ _____    ______ ____
ROOT
ATOM      1  C   UNL     1      18.008  -7.842  27.206  0.00  0.00    +0.000 A 
ATOM      2  C   UNL     1      17.387  -6.588  27.176  0.00  0.00    +0.000 A 
ATOM      3  N   UNL     1      18.183  -5.721  26.543  0.00  0.00    +0.000 NA
ATOM      4  C   UNL     1      19.314  -6.345  26.147  0.00  0.00    +0.000 A 
ATOM      5  C   UNL     1      20.434  -5.929  25.476  0.00  0.00    +0.000 A 
ATOM      6  C   UNL     1      21.485  -6.773  25.178  0.00  0.00    +0.000 A 
ATOM      7  C   UNL     1      21.361  -8.063  25.590  0.00  0.00    +0.000 A 
ATOM      8  C   UNL     1      20.236  -8.526  26.279  0.00  0.00    +0.000 A 
ATOM      9  C   UNL     1      19.208  -7.675  26.561  0.00  0.00    +0.000 A 
ENDROOT
BRANCH   1  14
ATOM     10  C   UNL     1      18.461 -10.533  31.775  0.00  0.00    +0.000 C 
ATOM     11  N   UNL     1      17.529 -11.101  30.857  0.00  0.00    +0.000 NA
ATOM     12  C   UNL     1      17.288 -10.494  29.573  0.00  0.00    +0.000 A 
ATOM     13  N   UNL     1      17.798  -9.431  29.029  0.00  0.00    +0.000 NA
ATOM     14  C   UNL     1      17.423  -9.058  27.827  0.00  0.00    +0.000 A 
ATOM     15  C   UNL     1      16.486  -9.855  27.219  0.00  0.00    +0.000 A 
ATOM     16  S   UNL     1      16.207 -11.061  28.385  0.00  0.00    +0.000 S 
ENDBRANCH   1  14
BRANCH   6  17
ATOM     17  O   UNL     1      22.615  -6.366  24.505  0.00  0.00    +0.000 OA
ATOM     18  C   UNL     1      23.034  -7.046  23.316  0.00  0.00    +0.000 C 
ENDBRANCH   6  17
BRANCH   8  19
ATOM     19  O   UNL     1      20.183  -9.858  26.665  0.00  0.00    +0.000 OA
ATOM     20  C   UNL     1      21.041 -10.332  27.675  0.00  0.00    +0.000 C 
ENDBRANCH   8  19
TORSDOF 3
ENDMDL
MODEL 3
REMARK VINA RESULT:      -5.7      2.145      3.041
REMARK  Name = 
REMARK  3 active torsions:
REMARK  status: ('A' for Active; 'I' for Inactive)
REMARK    1  A    between atoms: C_5  and  C_6
REMARK    2  A    between atoms: C_11  and  O_12
REMARK    3  A    between atoms: C_15  and  O_16
REMARK                            x       y       z     vdW  Elec       q    Type
REMARK                         _______ _______ _______ _____ _____    ______ ____
ROOT
ATOM      1  C   UNL     1      28.658  22.514  27.456  0.00  0.00    +0.000 A 
ATOM      2  C   UNL     1      30.039  22.290  27.526  0.00  0.00    +0.000 A 
ATOM      3  N   UNL     1      30.562  22.407  26.301  0.00  0.00    +0.000 NA
ATOM      4  C   UNL     1      29.586  22.700  25.414  0.00  0.00    +0.000 A 
ATOM      5  C   UNL     1      29.578  22.919  24.062  0.00  0.00    +0.000 A 
ATOM      6  C   UNL     1      28.427  23.211  23.357  0.00  0.00    +0.000 A 
ATOM      7  C   UNL     1      27.276  23.272  24.078  0.00  0.00    +0.000 A 
ATOM      8  C   UNL     1      27.242  23.054  25.458  0.00  0.00    +0.000 A 
ATOM      9  C   UNL     1      28.391  22.768  26.135  0.00  0.00    +0.000 A 
ENDROOT
BRANCH   1  14
ATOM     10  C   UNL     1      26.130  25.976  30.610  0.00  0.00    +0.000 C 
ATOM     11  N   UNL     1      25.887  24.609  30.937  0.00  0.00    +0.000 NA
ATOM     12  C   UNL     1      26.495  23.546  30.180  0.00  0.00    +0.000 A 
ATOM     13  N   UNL     1      27.300  23.583  29.160  0.00  0.00    +0.000 NA
ATOM     14  C   UNL     1      27.737  22.469  28.621  0.00  0.00    +0.000 A 
ATOM     15  C   UNL     1      27.291  21.308  29.202  0.00  0.00    +0.000 A 
ATOM     16  S   UNL     1      26.293  21.877  30.457  0.00  0.00    +0.000 S 
ENDBRANCH   1  14
BRANCH   6  17
ATOM     17  O   UNL     1      28.407  23.432  21.999  0.00  0.00    +0.000 OA
ATOM     18  C   UNL     1      28.900  24.663  21.458  0.00  0.00    +0.000 C 
ENDBRANCH   6  17
BRANCH   8  19
ATOM     19  O   UNL     1      26.027  23.135  26.124  0.00  0.00    +0.000 OA
ATOM     20  C   UNL     1      25.382  24.378  26.265  0.00  0.00    +0.000 C 
ENDBRANCH   8  19
TORSDOF 3
ENDMDL
MODEL 4
REMARK VINA RESULT:      -5.7     32.551     33.907
REMARK  Name = 
REMARK  3 active torsions:
REMARK  status: ('A' for Active; 'I' for Inactive)
REMARK    1  A    between atoms: C_5  and  C_6
REMARK    2  A    between atoms: C_11  and  O_12
REMARK    3  A    between atoms: C_15  and  O_16
REMARK                            x       y       z     vdW  Elec       q    Type
REMARK                         _______ _______ _______ _____ _____    ______ ____
ROOT
ATOM      1  C   UNL     1      18.010  -7.860  27.238  0.00  0.00    +0.000 A 
ATOM      2  C   UNL     1      17.373  -6.614  27.170  0.00  0.00    +0.000 A 
ATOM      3  N   UNL     1      18.160  -5.757  26.514  0.00  0.00    +0.000 NA
ATOM      4  C   UNL     1      19.299  -6.378  26.140  0.00  0.00    +0.000 A 
ATOM      5  C   UNL     1      20.416  -5.968  25.459  0.00  0.00    +0.000 A 
ATOM      6  C   UNL     1      21.479  -6.807  25.188  0.00  0.00    +0.000 A 
ATOM      7  C   UNL     1      21.369  -8.086  25.638  0.00  0.00    +0.000 A 
ATOM      8  C   UNL     1      20.248  -8.542  26.336  0.00  0.00    +0.000 A 
ATOM      9  C   UNL     1      19.209  -7.697  26.592  0.00  0.00    +0.000 A 
ENDROOT
BRANCH   1  14
ATOM     10  C   UNL     1      14.557 -11.727  26.037  0.00  0.00    +0.000 C 
ATOM     11  N   UNL     1      15.116 -11.834  27.345  0.00  0.00    +0.000 NA
ATOM     12  C   UNL     1      16.068 -10.867  27.826  0.00  0.00    +0.000 A 
ATOM     13  N   UNL     1      16.570  -9.813  27.255  0.00  0.00    +0.000 NA
ATOM     14  C   UNL     1      17.438  -9.064  27.893  0.00  0.00    +0.000 A 
ATOM     15  C   UNL     1      17.758  -9.471  29.165  0.00  0.00    +0.000 A 
ATOM     16  S   UNL     1      16.814 -10.873  29.358  0.00  0.00    +0.000 S 
ENDBRANCH   1  14
BRANCH   6  17
ATOM     17  O   UNL     1      22.605  -6.406  24.506  0.00  0.00    +0.000 OA
ATOM     18  C   UNL     1      23.033  -7.112  23.336  0.00  0.00    +0.000 C 
ENDBRANCH   6  17
BRANCH   8  19
ATOM     19  O   UNL     1      20.211  -9.863  26.762  0.00  0.00    +0.000 OA
ATOM     20  C   UNL     1      21.140 -10.322  27.714  0.00  0.00    +0.000 C 
ENDBRANCH   8  19
TORSDOF 3
ENDMDL
MODEL 5
REMARK VINA RESULT:      -5.5     17.614     19.236
REMARK  Name = 
REMARK  3 active torsions:
REMARK  status: ('A' for Active; 'I' for Inactive)
REMARK    1  A    between atoms: C_5  and  C_6
REMARK    2  A    between atoms: C_11  and  O_12
REMARK    3  A    between atoms: C_15  and  O_16
REMARK                            x       y       z     vdW  Elec       q    Type
REMARK                         _______ _______ _______ _____ _____    ______ ____
ROOT
ATOM      1  C   UNL     1      21.947  10.211  37.285  0.00  0.00    +0.000 A 
ATOM      2  C   UNL     1      22.842   9.419  36.555  0.00  0.00    +0.000 A 
ATOM      3  N   UNL     1      24.014  10.055  36.464  0.00  0.00    +0.000 NA
ATOM      4  C   UNL     1      23.940  11.242  37.103  0.00  0.00    +0.000 A 
ATOM      5  C   UNL     1      24.835  12.260  37.307  0.00  0.00    +0.000 A 
ATOM      6  C   UNL     1      24.520  13.404  38.012  0.00  0.00    +0.000 A 
ATOM      7  C   UNL     1      23.255  13.482  38.506  0.00  0.00    +0.000 A 
ATOM      8  C   UNL     1      22.313  12.467  38.319  0.00  0.00    +0.000 A 
ATOM      9  C   UNL     1      22.645  11.344  37.620  0.00  0.00    +0.000 A 
ENDROOT
BRANCH   1  14
ATOM     10  C   UNL     1      17.304   9.876  34.706  0.00  0.00    +0.000 C 
ATOM     11  N   UNL     1      17.230   9.511  36.083  0.00  0.00    +0.000 NA
ATOM     12  C   UNL     1      18.400   9.546  36.923  0.00  0.00    +0.000 A 
ATOM     13  N   UNL     1      19.627   9.876  36.655  0.00  0.00    +0.000 NA
ATOM     14  C   UNL     1      20.544   9.833  37.594  0.00  0.00    +0.000 A 
ATOM     15  C   UNL     1      20.113   9.426  38.832  0.00  0.00    +0.000 A 
ATOM     16  S   UNL     1      18.457   9.138  38.576  0.00  0.00    +0.000 S 
ENDBRANCH   1  14
BRANCH   6  17
ATOM     17  O   UNL     1      25.411  14.433  38.222  0.00  0.00    +0.000 OA
ATOM     18  C   UNL     1      26.718  14.164  38.743  0.00  0.00    +0.000 C 
ENDBRANCH   6  17
BRANCH   8  19
ATOM     19  O   UNL     1      21.042  12.620  38.854  0.00  0.00    +0.000 OA
ATOM     20  C   UNL     1      20.111  13.468  38.227  0.00  0.00    +0.000 C 
ENDBRANCH   8  19
TORSDOF 3
ENDMDL
MODEL 6
REMARK VINA RESULT:      -5.5     23.406     25.270
REMARK  Name = 
REMARK  3 active torsions:
REMARK  status: ('A' for Active; 'I' for Inactive)
REMARK    1  A    between atoms: C_5  and  C_6
REMARK    2  A    between atoms: C_11  and  O_12
REMARK    3  A    between atoms: C_15  and  O_16
REMARK                            x       y       z     vdW  Elec       q    Type
REMARK                         _______ _______ _______ _____ _____    ______ ____
ROOT
ATOM      1  C   UNL     1      33.985   3.527  35.142  0.00  0.00    +0.000 A 
ATOM      2  C   UNL     1      33.824   3.980  33.826  0.00  0.00    +0.000 A 
ATOM      3  N   UNL     1      33.532   2.940  33.039  0.00  0.00    +0.000 NA
ATOM      4  C   UNL     1      33.491   1.808  33.775  0.00  0.00    +0.000 A 
ATOM      5  C   UNL     1      33.243   0.495  33.471  0.00  0.00    +0.000 A 
ATOM      6  C   UNL     1      33.257  -0.509  34.419  0.00  0.00    +0.000 A 
ATOM      7  C   UNL     1      33.535  -0.132  35.695  0.00  0.00    +0.000 A 
ATOM      8  C   UNL     1      33.794   1.196  36.046  0.00  0.00    +0.000 A 
ATOM      9  C   UNL     1      33.775   2.172  35.094  0.00  0.00    +0.000 A 
ENDROOT
BRANCH   1  14
ATOM     10  C   UNL     1      38.353   5.354  37.572  0.00  0.00    +0.000 C 
ATOM     11  N   UNL     1      37.133   5.798  38.161  0.00  0.00    +0.000 NA
ATOM     12  C   UNL     1      35.859   5.394  37.624  0.00  0.00    +0.000 A 
ATOM     13  N   UNL     1      35.568   4.633  36.612  0.00  0.00    +0.000 NA
ATOM     14  C   UNL     1      34.315   4.399  36.299  0.00  0.00    +0.000 A 
ATOM     15  C   UNL     1      33.376   5.001  37.098  0.00  0.00    +0.000 A 
ATOM     16  S   UNL     1      34.330   5.847  38.223  0.00  0.00    +0.000 S 
ENDBRANCH   1  14
BRANCH   6  17
ATOM     17  O   UNL     1      33.010  -1.831  34.124  0.00  0.00    +0.000 OA
ATOM     18  C   UNL     1      32.070  -2.582  34.901  0.00  0.00    +0.000 C 
ENDBRANCH   6  17
BRANCH   8  19
ATOM     19  O   UNL     1      34.070   1.501  37.372  0.00  0.00    +0.000 OA
ATOM     20  C   UNL     1      35.327   1.187  37.920  0.00  0.00    +0.000 C 
ENDBRANCH   8  19
TORSDOF 3
ENDMDL
MODEL 7
REMARK VINA RESULT:      -5.5     32.173     33.466
REMARK  Name = 
REMARK  3 active torsions:
REMARK  status: ('A' for Active; 'I' for Inactive)
REMARK    1  A    between atoms: C_5  and  C_6
REMARK    2  A    between atoms: C_11  and  O_12
REMARK    3  A    between atoms: C_15  and  O_16
REMARK                            x       y       z     vdW  Elec       q    Type
REMARK                         _______ _______ _______ _____ _____    ______ ____
ROOT
ATOM      1  C   UNL     1      19.371  -7.616  26.374  0.00  0.00    +0.000 A 
ATOM      2  C   UNL     1      19.091  -6.261  26.154  0.00  0.00    +0.000 A 
ATOM      3  N   UNL     1      20.119  -5.702  25.510  0.00  0.00    +0.000 NA
ATOM      4  C   UNL     1      21.078  -6.627  25.290  0.00  0.00    +0.000 A 
ATOM      5  C   UNL     1      22.307  -6.584  24.686  0.00  0.00    +0.000 A 
ATOM      6  C   UNL     1      23.128  -7.690  24.578  0.00  0.00    +0.000 A 
ATOM      7  C   UNL     1      22.656  -8.848  25.110  0.00  0.00    +0.000 A 
ATOM      8  C   UNL     1      21.408  -8.932  25.736  0.00  0.00    +0.000 A 
ATOM      9  C   UNL     1      20.613  -7.829  25.830  0.00  0.00    +0.000 A 
ENDROOT
BRANCH   1  14
ATOM     10  C   UNL     1      18.807  -9.705  31.236  0.00  0.00    +0.000 C 
ATOM     11  N   UNL     1      17.832 -10.153  30.295  0.00  0.00    +0.000 NA
ATOM     12  C   UNL     1      17.844  -9.682  28.934  0.00  0.00    +0.000 A 
ATOM     13  N   UNL     1      18.641  -8.852  28.330  0.00  0.00    +0.000 NA
ATOM     14  C   UNL     1      18.459  -8.565  27.062  0.00  0.00    +0.000 A 
ATOM     15  C   UNL     1      17.400  -9.190  26.453  0.00  0.00    +0.000 A 
ATOM     16  S   UNL     1      16.746 -10.130  27.711  0.00  0.00    +0.000 S 
ENDBRANCH   1  14
BRANCH   6  17
ATOM     17  O   UNL     1      24.365  -7.658  23.974  0.00  0.00    +0.000 OA
ATOM     18  C   UNL     1      24.879  -8.821  23.315  0.00  0.00    +0.000 C 
ENDBRANCH   6  17
BRANCH   8  19
ATOM     19  O   UNL     1      20.995 -10.152  26.254  0.00  0.00    +0.000 OA
ATOM     20  C   UNL     1      20.696 -11.221  25.388  0.00  0.00    +0.000 C 
ENDBRANCH   8  19
TORSDOF 3
ENDMDL
MODEL 8
REMARK VINA RESULT:      -5.4     19.445     20.865
REMARK  Name = 
REMARK  3 active torsions:
REMARK  status: ('A' for Active; 'I' for Inactive)
REMARK    1  A    between atoms: C_5  and  C_6
REMARK    2  A    between atoms: C_11  and  O_12
REMARK    3  A    between atoms: C_15  and  O_16
REMARK                            x       y       z     vdW  Elec       q    Type
REMARK                         _______ _______ _______ _____ _____    ______ ____
ROOT
ATOM      1  C   UNL     1      16.906  10.457  38.022  0.00  0.00    +0.000 A 
ATOM      2  C   UNL     1      15.694  11.138  38.192  0.00  0.00    +0.000 A 
ATOM      3  N   UNL     1      15.184  11.430  36.992  0.00  0.00    +0.000 NA
ATOM      4  C   UNL     1      16.006  10.972  36.023  0.00  0.00    +0.000 A 
ATOM      5  C   UNL     1      15.959  11.004  34.654  0.00  0.00    +0.000 A 
ATOM      6  C   UNL     1      16.944  10.454  33.857  0.00  0.00    +0.000 A 
ATOM      7  C   UNL     1      17.986   9.865  34.503  0.00  0.00    +0.000 A 
ATOM      8  C   UNL     1      18.071   9.812  35.897  0.00  0.00    +0.000 A 
ATOM      9  C   UNL     1      17.087  10.361  36.665  0.00  0.00    +0.000 A 
ENDROOT
BRANCH   1  14
ATOM     10  C   UNL     1      21.448  11.878  40.403  0.00  0.00    +0.000 C 
ATOM     11  N   UNL     1      20.848  10.706  40.950  0.00  0.00    +0.000 NA
ATOM     12  C   UNL     1      19.614  10.187  40.420  0.00  0.00    +0.000 A 
ATOM     13  N   UNL     1      18.863  10.612  39.448  0.00  0.00    +0.000 NA
ATOM     14  C   UNL     1      17.762   9.970  39.133  0.00  0.00    +0.000 A 
ATOM     15  C   UNL     1      17.483   8.856  39.886  0.00  0.00    +0.000 A 
ATOM     16  S   UNL     1      18.789   8.804  40.974  0.00  0.00    +0.000 S 
ENDBRANCH   1  14
BRANCH   6  17
ATOM     17  O   UNL     1      16.907  10.482  32.482  0.00  0.00    +0.000 OA
ATOM     18  C   UNL     1      15.914  11.256  31.799  0.00  0.00    +0.000 C 
ENDBRANCH   6  17
BRANCH   8  19
ATOM     19  O   UNL     1      19.167   9.192  36.482  0.00  0.00    +0.000 OA
ATOM     20  C   UNL     1      20.429   9.814  36.447  0.00  0.00    +0.000 C 
ENDBRANCH   8  19
TORSDOF 3
ENDMDL
MODEL 9
REMARK VINA RESULT:      -5.4      2.964      6.868
REMARK  Name = 
REMARK  3 active torsions:
REMARK  status: ('A' for Active; 'I' for Inactive)
REMARK    1  A    between atoms: C_5  and  C_6
REMARK    2  A    between atoms: C_11  and  O_12
REMARK    3  A    between atoms: C_15  and  O_16
REMARK                            x       y       z     vdW  Elec       q    Type
REMARK                         _______ _______ _______ _____ _____    ______ ____
ROOT
ATOM      1  C   UNL     1      27.095  23.144  27.064  0.00  0.00    +0.000 A 
ATOM      2  C   UNL     1      27.934  22.171  27.622  0.00  0.00    +0.000 A 
ATOM      3  N   UNL     1      27.869  22.252  28.955  0.00  0.00    +0.000 NA
ATOM      4  C   UNL     1      27.021  23.241  29.312  0.00  0.00    +0.000 A 
ATOM      5  C   UNL     1      26.602  23.733  30.520  0.00  0.00    +0.000 A 
ATOM      6  C   UNL     1      25.705  24.776  30.634  0.00  0.00    +0.000 A 
ATOM      7  C   UNL     1      25.244  25.307  29.471  0.00  0.00    +0.000 A 
ATOM      8  C   UNL     1      25.647  24.834  28.218  0.00  0.00    +0.000 A 
ATOM      9  C   UNL     1      26.533  23.802  28.129  0.00  0.00    +0.000 A 
ENDROOT
BRANCH   1  14
ATOM     10  C   UNL     1      29.673  25.535  23.069  0.00  0.00    +0.000 C 
ATOM     11  N   UNL     1      28.452  24.910  22.679  0.00  0.00    +0.000 NA
ATOM     12  C   UNL     1      27.632  24.218  23.641  0.00  0.00    +0.000 A 
ATOM     13  N   UNL     1      27.797  24.030  24.916  0.00  0.00    +0.000 NA
ATOM     14  C   UNL     1      26.906  23.357  25.606  0.00  0.00    +0.000 A 
ATOM     15  C   UNL     1      25.829  22.888  24.895  0.00  0.00    +0.000 A 
ATOM     16  S   UNL     1      26.158  23.430  23.317  0.00  0.00    +0.000 S 
ENDBRANCH   1  14
BRANCH   6  17
ATOM     17  O   UNL     1      25.279  25.278  31.843  0.00  0.00    +0.000 OA
ATOM     18  C   UNL     1      24.325  26.346  31.887  0.00  0.00    +0.000 C 
ENDBRANCH   6  17
BRANCH   8  19
ATOM     19  O   UNL     1      25.130  25.429  27.076  0.00  0.00    +0.000 OA
ATOM     20  C   UNL     1      23.798  25.882  27.058  0.00  0.00    +0.000 C 
ENDBRANCH   8  19
TORSDOF 3
ENDMDL
MODEL 10
REMARK VINA RESULT:      -5.3     23.575     25.687
REMARK  Name = 
REMARK  3 active torsions:
REMARK  status: ('A' for Active; 'I' for Inactive)
REMARK    1  A    between atoms: C_5  and  C_6
REMARK    2  A    between atoms: C_11  and  O_12
REMARK    3  A    between atoms: C_15  and  O_16
REMARK                            x       y       z     vdW  Elec       q    Type
REMARK                         _______ _______ _______ _____ _____    ______ ____
ROOT
ATOM      1  C   UNL     1      33.619   1.490  34.435  0.00  0.00    +0.000 A 
ATOM      2  C   UNL     1      33.588   1.918  33.102  0.00  0.00    +0.000 A 
ATOM      3  N   UNL     1      33.818   3.234  33.061  0.00  0.00    +0.000 NA
ATOM      4  C   UNL     1      34.001   3.705  34.313  0.00  0.00    +0.000 A 
ATOM      5  C   UNL     1      34.262   4.950  34.823  0.00  0.00    +0.000 A 
ATOM      6  C   UNL     1      34.412   5.189  36.175  0.00  0.00    +0.000 A 
ATOM      7  C   UNL     1      34.287   4.114  36.997  0.00  0.00    +0.000 A 
ATOM      8  C   UNL     1      34.021   2.829  36.516  0.00  0.00    +0.000 A 
ATOM      9  C   UNL     1      33.877   2.614  35.178  0.00  0.00    +0.000 A 
ENDROOT
BRANCH   1  14
ATOM     10  C   UNL     1      36.575  -2.580  36.174  0.00  0.00    +0.000 C 
ATOM     11  N   UNL     1      35.181  -2.870  36.088  0.00  0.00    +0.000 NA
ATOM     12  C   UNL     1      34.242  -1.876  35.636  0.00  0.00    +0.000 A 
ATOM     13  N   UNL     1      34.426  -0.648  35.251  0.00  0.00    +0.000 NA
ATOM     14  C   UNL     1      33.406   0.087  34.874  0.00  0.00    +0.000 A 
ATOM     15  C   UNL     1      32.178  -0.526  34.918  0.00  0.00    +0.000 A 
ATOM     16  S   UNL     1      32.558  -2.084  35.486  0.00  0.00    +0.000 S 
ENDBRANCH   1  14
BRANCH   6  17
ATOM     17  O   UNL     1      34.673   6.436  36.697  0.00  0.00    +0.000 OA
ATOM     18  C   UNL     1      34.260   7.616  35.998  0.00  0.00    +0.000 C 
ENDBRANCH   6  17
BRANCH   8  19
ATOM     19  O   UNL     1      33.908   1.782  37.421  0.00  0.00    +0.000 OA
ATOM     20  C   UNL     1      34.388   1.931  38.735  0.00  0.00    +0.000 C 
ENDBRANCH   8  19
TORSDOF 3
ENDMDL
