MODEL 1
REMARK VINA RESULT:      -5.9      0.000      0.000
REMARK  Name = 
REMARK  4 active torsions:
REMARK  status: ('A' for Active; 'I' for Inactive)
REMARK    1  A    between atoms: O_2  and  C_3
REMARK    2  A    between atoms: C_8  and  S_9
REMARK    3  A    between atoms: S_9  and  C_10
REMARK    4  A    between atoms: C_10  and  C_11
REMARK                            x       y       z     vdW  Elec       q    Type
REMARK                         _______ _______ _______ _____ _____    ______ ____
ROOT
ATOM      1  C   UNL     1      28.157  24.553  14.058  0.00  0.00    +0.000 A 
ATOM      2  C   UNL     1      26.905  24.073  13.580  0.00  0.00    +0.000 A 
ATOM      3  C   UNL     1      26.766  23.218  12.581  0.00  0.00    +0.000 A 
ATOM      4  C   UNL     1      27.865  22.757  11.890  0.00  0.00    +0.000 A 
ATOM      5  N   UNL     1      28.105  21.859  10.976  0.00  0.00    +0.000 NA
ATOM      6  C   UNL     1      29.406  21.653  10.778  0.00  0.00    +0.000 A 
ATOM      7  N   UNL     1      30.066  22.530  11.649  0.00  0.00    +0.000 NA
ATOM      8  C   UNL     1      29.124  23.200  12.357  0.00  0.00    +0.000 A 
ATOM      9  C   UNL     1      29.244  24.066  13.403  0.00  0.00    +0.000 A 
ENDROOT
BRANCH   1  11
ATOM     10  C   UNL     1      29.371  26.271  15.106  0.00  0.00    +0.000 C 
ATOM     11  O   UNL     1      28.196  25.461  15.119  0.00  0.00    +0.000 OA
ENDBRANCH   1  11
BRANCH   6  12
ATOM     12  S   UNL     1      30.243  20.514   9.759  0.00  0.00    +0.000 S 
BRANCH  12  13
ATOM     13  C   UNL     1      31.774  20.868   9.092  0.00  0.00    +0.000 C 
BRANCH  13  14
ATOM     14  C   UNL     1      32.859  21.536   9.823  0.00  0.00    +0.000 A 
ATOM     15  C   UNL     1      33.332  22.692   9.060  0.00  0.00    +0.000 A 
ATOM     16  C   UNL     1      32.715  22.959   7.719  0.00  0.00    +0.000 C 
ATOM     17  N   UNL     1      34.253  23.248   9.781  0.00  0.00    +0.000 NA
ATOM     18  O   UNL     1      34.447  22.611  10.902  0.00  0.00    +0.000 OA
ATOM     19  C   UNL     1      33.597  21.568  10.907  0.00  0.00    +0.000 A 
ATOM     20  C   UNL     1      33.574  20.619  12.081  0.00  0.00    +0.000 C 
ENDBRANCH  13  14
ENDBRANCH  12  13
ENDBRANCH   6  12
TORSDOF 4
ENDMDL
MODEL 2
REMARK VINA RESULT:      -5.9      1.633      2.531
REMARK  Name = 
REMARK  4 active torsions:
REMARK  status: ('A' for Active; 'I' for Inactive)
REMARK    1  A    between atoms: O_2  and  C_3
REMARK    2  A    between atoms: C_8  and  S_9
REMARK    3  A    between atoms: S_9  and  C_10
REMARK    4  A    between atoms: C_10  and  C_11
REMARK                            x       y       z     vdW  Elec       q    Type
REMARK                         _______ _______ _______ _____ _____    ______ ____
ROOT
ATOM      1  C   UNL     1      28.191  24.033  13.507  0.00  0.00    +0.000 A 
ATOM      2  C   UNL     1      27.273  23.427  12.603  0.00  0.00    +0.000 A 
ATOM      3  C   UNL     1      27.620  22.606  11.626  0.00  0.00    +0.000 A 
ATOM      4  C   UNL     1      28.945  22.311  11.392  0.00  0.00    +0.000 A 
ATOM      5  N   UNL     1      29.616  21.489  10.634  0.00  0.00    +0.000 NA
ATOM      6  C   UNL     1      30.914  21.450  10.930  0.00  0.00    +0.000 A 
ATOM      7  N   UNL     1      31.091  22.362  11.980  0.00  0.00    +0.000 NA
ATOM      8  C   UNL     1      29.878  22.882  12.288  0.00  0.00    +0.000 A 
ATOM      9  C   UNL     1      29.495  23.710  13.300  0.00  0.00    +0.000 A 
ENDROOT
BRANCH   1  11
ATOM     10  C   UNL     1      28.743  25.746  15.018  0.00  0.00    +0.000 C 
ATOM     11  O   UNL     1      27.722  24.892  14.504  0.00  0.00    +0.000 OA
ENDBRANCH   1  11
BRANCH   6  12
ATOM     12  S   UNL     1      32.204  20.466  10.296  0.00  0.00    +0.000 S 
BRANCH  12  13
ATOM     13  C   UNL     1      33.686  20.290  11.126  0.00  0.00    +0.000 C 
BRANCH  13  14
ATOM     14  C   UNL     1      34.788  21.260  11.065  0.00  0.00    +0.000 A 
ATOM     15  C   UNL     1      35.986  20.687  11.681  0.00  0.00    +0.000 A 
ATOM     16  C   UNL     1      35.888  19.318  12.287  0.00  0.00    +0.000 C 
ATOM     17  N   UNL     1      36.918  21.577  11.553  0.00  0.00    +0.000 NA
ATOM     18  O   UNL     1      36.490  22.648  10.945  0.00  0.00    +0.000 OA
ATOM     19  C   UNL     1      35.191  22.441  10.662  0.00  0.00    +0.000 A 
ATOM     20  C   UNL     1      34.393  23.509   9.953  0.00  0.00    +0.000 C 
ENDBRANCH  13  14
ENDBRANCH  12  13
ENDBRANCH   6  12
TORSDOF 4
ENDMDL
MODEL 3
REMARK VINA RESULT:      -5.7      3.836      5.091
REMARK  Name = 
REMARK  4 active torsions:
REMARK  status: ('A' for Active; 'I' for Inactive)
REMARK    1  A    between atoms: O_2  and  C_3
REMARK    2  A    between atoms: C_8  and  S_9
REMARK    3  A    between atoms: S_9  and  C_10
REMARK    4  A    between atoms: C_10  and  C_11
REMARK                            x       y       z     vdW  Elec       q    Type
REMARK                         _______ _______ _______ _____ _____    ______ ____
ROOT
ATOM      1  C   UNL     1      30.190  22.422  12.551  0.00  0.00    +0.000 A 
ATOM      2  C   UNL     1      31.061  21.299  12.634  0.00  0.00    +0.000 A 
ATOM      3  C   UNL     1      31.725  20.792  11.609  0.00  0.00    +0.000 A 
ATOM      4  C   UNL     1      31.575  21.317  10.344  0.00  0.00    +0.000 A 
ATOM      5  N   UNL     1      32.135  21.160   9.178  0.00  0.00    +0.000 NA
ATOM      6  C   UNL     1      31.751  22.075   8.289  0.00  0.00    +0.000 A 
ATOM      7  N   UNL     1      30.831  22.892   8.959  0.00  0.00    +0.000 NA
ATOM      8  C   UNL     1      30.732  22.448  10.236  0.00  0.00    +0.000 A 
ATOM      9  C   UNL     1      30.073  22.964  11.311  0.00  0.00    +0.000 A 
ENDROOT
BRANCH   1  11
ATOM     10  C   UNL     1      28.444  23.751  13.391  0.00  0.00    +0.000 C 
ATOM     11  O   UNL     1      29.529  22.877  13.695  0.00  0.00    +0.000 OA
ENDBRANCH   1  11
BRANCH   6  12
ATOM     12  S   UNL     1      32.264  22.364   6.649  0.00  0.00    +0.000 S 
BRANCH  12  13
ATOM     13  C   UNL     1      31.321  21.866   5.316  0.00  0.00    +0.000 C 
BRANCH  13  14
ATOM     14  C   UNL     1      30.551  20.616   5.270  0.00  0.00    +0.000 A 
ATOM     15  C   UNL     1      29.248  20.859   4.648  0.00  0.00    +0.000 A 
ATOM     16  C   UNL     1      28.908  22.262   4.238  0.00  0.00    +0.000 C 
ATOM     17  N   UNL     1      28.648  19.713   4.606  0.00  0.00    +0.000 NA
ATOM     18  O   UNL     1      29.377  18.761   5.119  0.00  0.00    +0.000 OA
ATOM     19  C   UNL     1      30.527  19.329   5.524  0.00  0.00    +0.000 A 
ATOM     20  C   UNL     1      31.598  18.486   6.174  0.00  0.00    +0.000 C 
ENDBRANCH  13  14
ENDBRANCH  12  13
ENDBRANCH   6  12
TORSDOF 4
ENDMDL
MODEL 4
REMARK VINA RESULT:      -5.7     11.402     14.535
REMARK  Name = 
REMARK  4 active torsions:
REMARK  status: ('A' for Active; 'I' for Inactive)
REMARK    1  A    between atoms: O_2  and  C_3
REMARK    2  A    between atoms: C_8  and  S_9
REMARK    3  A    between atoms: S_9  and  C_10
REMARK    4  A    between atoms: C_10  and  C_11
REMARK                            x       y       z     vdW  Elec       q    Type
REMARK                         _______ _______ _______ _____ _____    ______ ____
ROOT
ATOM      1  C   UNL     1      29.319  25.984  20.621  0.00  0.00    +0.000 A 
ATOM      2  C   UNL     1      28.599  27.108  21.113  0.00  0.00    +0.000 A 
ATOM      3  C   UNL     1      27.777  27.073  22.149  0.00  0.00    +0.000 A 
ATOM      4  C   UNL     1      27.530  25.891  22.811  0.00  0.00    +0.000 A 
ATOM      5  N   UNL     1      26.905  25.520  23.894  0.00  0.00    +0.000 NA
ATOM      6  C   UNL     1      27.131  24.247  24.216  0.00  0.00    +0.000 A 
ATOM      7  N   UNL     1      27.978  23.748  23.216  0.00  0.00    +0.000 NA
ATOM      8  C   UNL     1      28.249  24.760  22.357  0.00  0.00    +0.000 A 
ATOM      9  C   UNL     1      29.105  24.826  21.299  0.00  0.00    +0.000 A 
ENDROOT
BRANCH   1  11
ATOM     10  C   UNL     1      30.093  27.430  18.938  0.00  0.00    +0.000 C 
ATOM     11  O   UNL     1      30.160  26.126  19.514  0.00  0.00    +0.000 OA
ENDBRANCH   1  11
BRANCH   6  12
ATOM     12  S   UNL     1      26.625  23.307  25.592  0.00  0.00    +0.000 S 
BRANCH  12  13
ATOM     13  C   UNL     1      27.697  22.251  26.398  0.00  0.00    +0.000 C 
BRANCH  13  14
ATOM     14  C   UNL     1      28.190  22.460  27.766  0.00  0.00    +0.000 A 
ATOM     15  C   UNL     1      29.651  22.546  27.758  0.00  0.00    +0.000 A 
ATOM     16  C   UNL     1      30.367  22.361  26.452  0.00  0.00    +0.000 C 
ATOM     17  N   UNL     1      30.007  22.769  28.983  0.00  0.00    +0.000 NA
ATOM     18  O   UNL     1      28.980  22.835  29.785  0.00  0.00    +0.000 OA
ATOM     19  C   UNL     1      27.885  22.637  29.029  0.00  0.00    +0.000 A 
ATOM     20  C   UNL     1      26.516  22.649  29.666  0.00  0.00    +0.000 C 
ENDBRANCH  13  14
ENDBRANCH  12  13
ENDBRANCH   6  12
TORSDOF 4
ENDMDL
MODEL 5
REMARK VINA RESULT:      -5.5      4.146      5.480
REMARK  Name = 
REMARK  4 active torsions:
REMARK  status: ('A' for Active; 'I' for Inactive)
REMARK    1  A    between atoms: O_2  and  C_3
REMARK    2  A    between atoms: C_8  and  S_9
REMARK    3  A    between atoms: S_9  and  C_10
REMARK    4  A    between atoms: C_10  and  C_11
REMARK                            x       y       z     vdW  Elec       q    Type
REMARK                         _______ _______ _______ _____ _____    ______ ____
ROOT
ATOM      1  C   UNL     1      29.840  22.153  12.409  0.00  0.00    +0.000 A 
ATOM      2  C   UNL     1      31.000  21.550  12.974  0.00  0.00    +0.000 A 
ATOM      3  C   UNL     1      31.955  20.967  12.270  0.00  0.00    +0.000 A 
ATOM      4  C   UNL     1      31.860  20.867  10.900  0.00  0.00    +0.000 A 
ATOM      5  N   UNL     1      32.629  20.486   9.919  0.00  0.00    +0.000 NA
ATOM      6  C   UNL     1      32.127  20.778   8.720  0.00  0.00    +0.000 A 
ATOM      7  N   UNL     1      30.892  21.395   8.966  0.00  0.00    +0.000 NA
ATOM      8  C   UNL     1      30.728  21.476  10.309  0.00  0.00    +0.000 A 
ATOM      9  C   UNL     1      29.766  22.090  11.054  0.00  0.00    +0.000 A 
ENDROOT
BRANCH   1  11
ATOM     10  C   UNL     1      27.651  22.992  12.571  0.00  0.00    +0.000 C 
ATOM     11  O   UNL     1      28.885  22.740  13.242  0.00  0.00    +0.000 OA
ENDBRANCH   1  11
BRANCH   6  12
ATOM     12  S   UNL     1      32.788  20.575   7.121  0.00  0.00    +0.000 S 
BRANCH  12  13
ATOM     13  C   UNL     1      32.872  19.042   6.376  0.00  0.00    +0.000 C 
BRANCH  13  14
ATOM     14  C   UNL     1      31.706  18.301   5.876  0.00  0.00    +0.000 A 
ATOM     15  C   UNL     1      32.050  16.887   5.713  0.00  0.00    +0.000 A 
ATOM     16  C   UNL     1      33.458  16.461   6.006  0.00  0.00    +0.000 C 
ATOM     17  N   UNL     1      30.970  16.296   5.312  0.00  0.00    +0.000 NA
ATOM     18  O   UNL     1      29.975  17.130   5.188  0.00  0.00    +0.000 OA
ATOM     19  C   UNL     1      30.442  18.345   5.527  0.00  0.00    +0.000 A 
ATOM     20  C   UNL     1      29.527  19.545   5.484  0.00  0.00    +0.000 C 
ENDBRANCH  13  14
ENDBRANCH  12  13
ENDBRANCH   6  12
TORSDOF 4
ENDMDL
MODEL 6
REMARK VINA RESULT:      -5.5      2.666      3.856
REMARK  Name = 
REMARK  4 active torsions:
REMARK  status: ('A' for Active; 'I' for Inactive)
REMARK    1  A    between atoms: O_2  and  C_3
REMARK    2  A    between atoms: C_8  and  S_9
REMARK    3  A    between atoms: S_9  and  C_10
REMARK    4  A    between atoms: C_10  and  C_11
REMARK                            x       y       z     vdW  Elec       q    Type
REMARK                         _______ _______ _______ _____ _____    ______ ____
ROOT
ATOM      1  C   UNL     1      28.281  22.738  11.920  0.00  0.00    +0.000 A 
ATOM      2  C   UNL     1      29.143  23.084  12.999  0.00  0.00    +0.000 A 
ATOM      3  C   UNL     1      30.401  22.692  13.105  0.00  0.00    +0.000 A 
ATOM      4  C   UNL     1      30.961  21.859  12.162  0.00  0.00    +0.000 A 
ATOM      5  N   UNL     1      32.147  21.391  11.891  0.00  0.00    +0.000 NA
ATOM      6  C   UNL     1      32.203  20.763  10.717  0.00  0.00    +0.000 A 
ATOM      7  N   UNL     1      30.904  20.821  10.194  0.00  0.00    +0.000 NA
ATOM      8  C   UNL     1      30.134  21.515  11.066  0.00  0.00    +0.000 A 
ATOM      9  C   UNL     1      28.846  21.948  10.969  0.00  0.00    +0.000 A 
ENDROOT
BRANCH   1  11
ATOM     10  C   UNL     1      26.108  22.394  11.096  0.00  0.00    +0.000 C 
ATOM     11  O   UNL     1      26.963  23.200  11.905  0.00  0.00    +0.000 OA
ENDBRANCH   1  11
BRANCH   6  12
ATOM     12  S   UNL     1      33.545  20.056   9.860  0.00  0.00    +0.000 S 
BRANCH  12  13
ATOM     13  C   UNL     1      33.524  19.870   8.163  0.00  0.00    +0.000 C 
BRANCH  13  14
ATOM     14  C   UNL     1      32.614  20.592   7.264  0.00  0.00    +0.000 A 
ATOM     15  C   UNL     1      33.303  21.748   6.685  0.00  0.00    +0.000 A 
ATOM     16  C   UNL     1      34.712  22.024   7.118  0.00  0.00    +0.000 C 
ATOM     17  N   UNL     1      32.457  22.306   5.879  0.00  0.00    +0.000 NA
ATOM     18  O   UNL     1      31.315  21.677   5.858  0.00  0.00    +0.000 OA
ATOM     19  C   UNL     1      31.426  20.643   6.712  0.00  0.00    +0.000 A 
ATOM     20  C   UNL     1      30.258  19.709   6.922  0.00  0.00    +0.000 C 
ENDBRANCH  13  14
ENDBRANCH  12  13
ENDBRANCH   6  12
TORSDOF 4
ENDMDL
MODEL 7
REMARK VINA RESULT:      -5.4     33.083     34.109
REMARK  Name = 
REMARK  4 active torsions:
REMARK  status: ('A' for Active; 'I' for Inactive)
REMARK    1  A    between atoms: O_2  and  C_3
REMARK    2  A    between atoms: C_8  and  S_9
REMARK    3  A    between atoms: S_9  and  C_10
REMARK    4  A    between atoms: C_10  and  C_11
REMARK                            x       y       z     vdW  Elec       q    Type
REMARK                         _______ _______ _______ _____ _____    ______ ____
ROOT
ATOM      1  C   UNL     1      19.126  -6.600  26.310  0.00  0.00    +0.000 A 
ATOM      2  C   UNL     1      19.447  -7.937  26.681  0.00  0.00    +0.000 A 
ATOM      3  C   UNL     1      20.555  -8.565  26.324  0.00  0.00    +0.000 A 
ATOM      4  C   UNL     1      21.479  -7.953  25.506  0.00  0.00    +0.000 A 
ATOM      5  N   UNL     1      22.681  -8.210  25.072  0.00  0.00    +0.000 NA
ATOM      6  C   UNL     1      23.240  -7.175  24.445  0.00  0.00    +0.000 A 
ATOM      7  N   UNL     1      22.278  -6.155  24.466  0.00  0.00    +0.000 NA
ATOM      8  C   UNL     1      21.196  -6.616  25.139  0.00  0.00    +0.000 A 
ATOM      9  C   UNL     1      20.057  -5.983  25.536  0.00  0.00    +0.000 A 
ENDROOT
BRANCH   1  11
ATOM     10  C   UNL     1      16.955  -7.007  27.112  0.00  0.00    +0.000 C 
ATOM     11  O   UNL     1      17.924  -6.029  26.735  0.00  0.00    +0.000 OA
ENDBRANCH   1  11
BRANCH   6  12
ATOM     12  S   UNL     1      24.834  -6.967  23.776  0.00  0.00    +0.000 S 
BRANCH  12  13
ATOM     13  C   UNL     1      25.629  -8.231  22.948  0.00  0.00    +0.000 C 
BRANCH  13  14
ATOM     14  C   UNL     1      27.081  -8.450  22.972  0.00  0.00    +0.000 A 
ATOM     15  C   UNL     1      27.398  -9.576  23.853  0.00  0.00    +0.000 A 
ATOM     16  C   UNL     1      26.271 -10.244  24.586  0.00  0.00    +0.000 C 
ATOM     17  N   UNL     1      28.682  -9.733  23.791  0.00  0.00    +0.000 NA
ATOM     18  O   UNL     1      29.242  -8.864  22.998  0.00  0.00    +0.000 OA
ATOM     19  C   UNL     1      28.255  -8.087  22.515  0.00  0.00    +0.000 A 
ATOM     20  C   UNL     1      28.578  -6.965  21.557  0.00  0.00    +0.000 C 
ENDBRANCH  13  14
ENDBRANCH  12  13
ENDBRANCH   6  12
TORSDOF 4
ENDMDL
MODEL 8
REMARK VINA RESULT:      -5.3     34.289     35.255
REMARK  Name = 
REMARK  4 active torsions:
REMARK  status: ('A' for Active; 'I' for Inactive)
REMARK    1  A    between atoms: O_2  and  C_3
REMARK    2  A    between atoms: C_8  and  S_9
REMARK    3  A    between atoms: S_9  and  C_10
REMARK    4  A    between atoms: C_10  and  C_11
REMARK                            x       y       z     vdW  Elec       q    Type
REMARK                         _______ _______ _______ _____ _____    ______ ____
ROOT
ATOM      1  C   UNL     1      18.022  -8.335  27.466  0.00  0.00    +0.000 A 
ATOM      2  C   UNL     1      17.562  -7.044  27.081  0.00  0.00    +0.000 A 
ATOM      3  C   UNL     1      18.278  -6.173  26.391  0.00  0.00    +0.000 A 
ATOM      4  C   UNL     1      19.576  -6.458  26.028  0.00  0.00    +0.000 A 
ATOM      5  N   UNL     1      20.494  -5.915  25.279  0.00  0.00    +0.000 NA
ATOM      6  C   UNL     1      21.548  -6.709  25.090  0.00  0.00    +0.000 A 
ATOM      7  N   UNL     1      21.277  -7.877  25.816  0.00  0.00    +0.000 NA
ATOM      8  C   UNL     1      20.052  -7.742  26.380  0.00  0.00    +0.000 A 
ATOM      9  C   UNL     1      19.288  -8.632  27.074  0.00  0.00    +0.000 A 
ENDROOT
BRANCH   1  11
ATOM     10  C   UNL     1      17.788  -9.629  29.414  0.00  0.00    +0.000 C 
ATOM     11  O   UNL     1      17.186  -9.181  28.201  0.00  0.00    +0.000 OA
ENDBRANCH   1  11
BRANCH   6  12
ATOM     12  S   UNL     1      22.975  -6.505  24.112  0.00  0.00    +0.000 S 
BRANCH  12  13
ATOM     13  C   UNL     1      23.661  -7.807  23.249  0.00  0.00    +0.000 C 
BRANCH  13  14
ATOM     14  C   UNL     1      24.403  -8.912  23.871  0.00  0.00    +0.000 A 
ATOM     15  C   UNL     1      25.842  -8.687  23.722  0.00  0.00    +0.000 A 
ATOM     16  C   UNL     1      26.298  -7.478  22.959  0.00  0.00    +0.000 C 
ATOM     17  N   UNL     1      26.426  -9.673  24.326  0.00  0.00    +0.000 NA
ATOM     18  O   UNL     1      25.567 -10.508  24.840  0.00  0.00    +0.000 OA
ATOM     19  C   UNL     1      24.342 -10.033  24.548  0.00  0.00    +0.000 A 
ATOM     20  C   UNL     1      23.113 -10.782  25.004  0.00  0.00    +0.000 C 
ENDBRANCH  13  14
ENDBRANCH  12  13
ENDBRANCH   6  12
TORSDOF 4
ENDMDL
MODEL 9
REMARK VINA RESULT:      -5.2     12.718     15.189
REMARK  Name = 
REMARK  4 active torsions:
REMARK  status: ('A' for Active; 'I' for Inactive)
REMARK    1  A    between atoms: O_2  and  C_3
REMARK    2  A    between atoms: C_8  and  S_9
REMARK    3  A    between atoms: S_9  and  C_10
REMARK    4  A    between atoms: C_10  and  C_11
REMARK                            x       y       z     vdW  Elec       q    Type
REMARK                         _______ _______ _______ _____ _____    ______ ____
ROOT
ATOM      1  C   UNL     1      21.166  27.020  26.638  0.00  0.00    +0.000 A 
ATOM      2  C   UNL     1      21.603  27.473  25.361  0.00  0.00    +0.000 A 
ATOM      3  C   UNL     1      22.780  27.185  24.829  0.00  0.00    +0.000 A 
ATOM      4  C   UNL     1      23.702  26.436  25.525  0.00  0.00    +0.000 A 
ATOM      5  N   UNL     1      24.857  25.882  25.280  0.00  0.00    +0.000 NA
ATOM      6  C   UNL     1      25.264  25.072  26.256  0.00  0.00    +0.000 A 
ATOM      7  N   UNL     1      24.267  25.134  27.240  0.00  0.00    +0.000 NA
ATOM      8  C   UNL     1      23.287  25.955  26.789  0.00  0.00    +0.000 A 
ATOM      9  C   UNL     1      22.062  26.248  27.307  0.00  0.00    +0.000 A 
ENDROOT
BRANCH   1  11
ATOM     10  C   UNL     1      19.406  26.485  28.100  0.00  0.00    +0.000 C 
ATOM     11  O   UNL     1      19.904  27.386  27.112  0.00  0.00    +0.000 OA
ENDBRANCH   1  11
BRANCH   6  12
ATOM     12  S   UNL     1      26.660  24.037  26.379  0.00  0.00    +0.000 S 
BRANCH  12  13
ATOM     13  C   UNL     1      27.192  23.094  25.059  0.00  0.00    +0.000 C 
BRANCH  13  14
ATOM     14  C   UNL     1      28.510  23.230  24.425  0.00  0.00    +0.000 A 
ATOM     15  C   UNL     1      28.353  23.736  23.060  0.00  0.00    +0.000 A 
ATOM     16  C   UNL     1      26.963  23.964  22.543  0.00  0.00    +0.000 C 
ATOM     17  N   UNL     1      29.549  23.868  22.583  0.00  0.00    +0.000 NA
ATOM     18  O   UNL     1      30.460  23.513  23.446  0.00  0.00    +0.000 OA
ATOM     19  C   UNL     1      29.810  23.121  24.557  0.00  0.00    +0.000 A 
ATOM     20  C   UNL     1      30.589  22.640  25.758  0.00  0.00    +0.000 C 
ENDBRANCH  13  14
ENDBRANCH  12  13
ENDBRANCH   6  12
TORSDOF 4
ENDMDL
MODEL 10
REMARK VINA RESULT:      -5.1     33.861     34.807
REMARK  Name = 
REMARK  4 active torsions:
REMARK  status: ('A' for Active; 'I' for Inactive)
REMARK    1  A    between atoms: O_2  and  C_3
REMARK    2  A    between atoms: C_8  and  S_9
REMARK    3  A    between atoms: S_9  and  C_10
REMARK    4  A    between atoms: C_10  and  C_11
REMARK                            x       y       z     vdW  Elec       q    Type
REMARK                         _______ _______ _______ _____ _____    ______ ____
ROOT
ATOM      1  C   UNL     1      18.137  -8.235  27.694  0.00  0.00    +0.000 A 
ATOM      2  C   UNL     1      17.672  -6.945  27.312  0.00  0.00    +0.000 A 
ATOM      3  C   UNL     1      18.347  -6.107  26.542  0.00  0.00    +0.000 A 
ATOM      4  C   UNL     1      19.605  -6.429  26.084  0.00  0.00    +0.000 A 
ATOM      5  N   UNL     1      20.469  -5.926  25.248  0.00  0.00    +0.000 NA
ATOM      6  C   UNL     1      21.489  -6.746  24.996  0.00  0.00    +0.000 A 
ATOM      7  N   UNL     1      21.256  -7.889  25.774  0.00  0.00    +0.000 NA
ATOM      8  C   UNL     1      20.084  -7.714  26.431  0.00  0.00    +0.000 A 
ATOM      9  C   UNL     1      19.362  -8.568  27.209  0.00  0.00    +0.000 A 
ENDROOT
BRANCH   1  11
ATOM     10  C   UNL     1      17.341 -10.408  28.101  0.00  0.00    +0.000 C 
ATOM     11  O   UNL     1      17.348  -9.043  28.517  0.00  0.00    +0.000 OA
ENDBRANCH   1  11
BRANCH   6  12
ATOM     12  S   UNL     1      22.835  -6.598  23.901  0.00  0.00    +0.000 S 
BRANCH  12  13
ATOM     13  C   UNL     1      22.931  -7.525  22.471  0.00  0.00    +0.000 C 
BRANCH  13  14
ATOM     14  C   UNL     1      24.091  -8.344  22.094  0.00  0.00    +0.000 A 
ATOM     15  C   UNL     1      23.792  -9.092  20.871  0.00  0.00    +0.000 A 
ATOM     16  C   UNL     1      22.423  -8.956  20.272  0.00  0.00    +0.000 C 
ATOM     17  N   UNL     1      24.867  -9.753  20.580  0.00  0.00    +0.000 NA
ATOM     18  O   UNL     1      25.818  -9.544  21.447  0.00  0.00    +0.000 OA
ATOM     19  C   UNL     1      25.327  -8.690  22.364  0.00  0.00    +0.000 A 
ATOM     20  C   UNL     1      26.190  -8.245  23.520  0.00  0.00    +0.000 C 
ENDBRANCH  13  14
ENDBRANCH  12  13
ENDBRANCH   6  12
TORSDOF 4
ENDMDL
