MODEL 1
REMARK VINA RESULT:      -8.4      0.000      0.000
REMARK  Name = 
REMARK  6 active torsions:
REMARK  status: ('A' for Active; 'I' for Inactive)
REMARK    1  A    between atoms: O_2  and  C_3
REMARK    2  A    between atoms: C_7  and  C_8
REMARK    3  A    between atoms: N_10  and  C_11
REMARK    4  A    between atoms: C_11  and  C_12
REMARK    5  A    between atoms: C_19  and  C_20
REMARK    6  A    between atoms: C_29  and  O_30
REMARK                            x       y       z     vdW  Elec       q    Type
REMARK                         _______ _______ _______ _____ _____    ______ ____
ROOT
ATOM      1  C   UNL     1      34.540  -1.547  17.080  0.00  0.00    +0.000 A 
ATOM      2  C   UNL     1      34.769  -0.184  17.220  0.00  0.00    +0.000 A 
ATOM      3  C   UNL     1      35.795   0.448  16.570  0.00  0.00    +0.000 A 
ATOM      4  C   UNL     1      36.045   1.800  16.689  0.00  0.00    +0.000 A 
ATOM      5  C   UNL     1      37.095   2.379  16.008  0.00  0.00    +0.000 A 
ATOM      6  C   UNL     1      37.909   1.592  15.192  0.00  0.00    +0.000 A 
ATOM      7  C   UNL     1      37.668   0.240  15.064  0.00  0.00    +0.000 A 
ATOM      8  C   UNL     1      36.612  -0.328  15.754  0.00  0.00    +0.000 A 
ATOM      9  C   UNL     1      36.401  -1.686  15.601  0.00  0.00    +0.000 A 
ATOM     10  C   UNL     1      35.361  -2.301  16.267  0.00  0.00    +0.000 A 
ENDROOT
BRANCH   7  11
ATOM     11  C   UNL     1      38.502  -0.616  14.216  0.00  0.00    +0.000 A 
ATOM     12  C   UNL     1      38.235  -0.811  12.869  0.00  0.00    +0.000 A 
ATOM     13  C   UNL     1      39.020  -1.616  12.074  0.00  0.00    +0.000 A 
ATOM     14  C   UNL     1      40.117  -2.265  12.599  0.00  0.00    +0.000 A 
ATOM     15  C   UNL     1      40.969  -3.138  11.734  0.00  0.00    +0.000 C 
ATOM     16  C   UNL     1      40.397  -2.083  13.935  0.00  0.00    +0.000 A 
ATOM     17  C   UNL     1      39.602  -1.274  14.725  0.00  0.00    +0.000 A 
ENDBRANCH   7  11
BRANCH   5  18
ATOM     18  C   UNL     1      37.334   3.809  16.155  0.00  0.00    +0.000 C 
ATOM     19  O   UNL     1      36.876   4.605  15.315  0.00  0.00    +0.000 OA
ATOM     20  N   UNL     1      38.104   4.246  17.290  0.00  0.00    +0.000 NA
BRANCH  20  21
ATOM     21  C   UNL     1      38.325   5.673  17.410  0.00  0.00    +0.000 C 
BRANCH  21  22
ATOM     22  C   UNL     1      39.622   5.988  18.016  0.00  0.00    +0.000 A 
ATOM     23  C   UNL     1      39.727   6.094  19.378  0.00  0.00    +0.000 A 
ATOM     24  C   UNL     1      40.946   6.389  19.943  0.00  0.00    +0.000 A 
ATOM     25  C   UNL     1      42.054   6.576  19.129  0.00  0.00    +0.000 A 
ATOM     26  C   UNL     1      41.941   6.468  17.774  0.00  0.00    +0.000 A 
ATOM     27  C   UNL     1      40.721   6.174  17.223  0.00  0.00    +0.000 A 
ENDBRANCH  21  22
ENDBRANCH  20  21
ENDBRANCH   5  18
BRANCH   1  29
ATOM     28  C   UNL     1      32.151  -1.911  17.332  0.00  0.00    +0.000 C 
ATOM     29  O   UNL     1      33.476  -2.150  17.767  0.00  0.00    +0.000 OA
ENDBRANCH   1  29
BRANCH  10  30
ATOM     30  O   UNL     1      35.106  -3.663  16.148  0.00  0.00    +0.000 OA
ATOM     31  C   UNL     1      34.383  -4.190  15.052  0.00  0.00    +0.000 C 
ENDBRANCH  10  30
TORSDOF 6
ENDMDL
MODEL 2
REMARK VINA RESULT:      -7.9      2.690      9.385
REMARK  Name = 
REMARK  6 active torsions:
REMARK  status: ('A' for Active; 'I' for Inactive)
REMARK    1  A    between atoms: O_2  and  C_3
REMARK    2  A    between atoms: C_7  and  C_8
REMARK    3  A    between atoms: N_10  and  C_11
REMARK    4  A    between atoms: C_11  and  C_12
REMARK    5  A    between atoms: C_19  and  C_20
REMARK    6  A    between atoms: C_29  and  O_30
REMARK                            x       y       z     vdW  Elec       q    Type
REMARK                         _______ _______ _______ _____ _____    ______ ____
ROOT
ATOM      1  C   UNL     1      40.739   4.631  13.659  0.00  0.00    +0.000 A 
ATOM      2  C   UNL     1      39.724   3.703  13.858  0.00  0.00    +0.000 A 
ATOM      3  C   UNL     1      38.919   3.737  14.965  0.00  0.00    +0.000 A 
ATOM      4  C   UNL     1      37.904   2.829  15.188  0.00  0.00    +0.000 A 
ATOM      5  C   UNL     1      37.126   2.915  16.323  0.00  0.00    +0.000 A 
ATOM      6  C   UNL     1      37.368   3.928  17.253  0.00  0.00    +0.000 A 
ATOM      7  C   UNL     1      38.380   4.842  17.041  0.00  0.00    +0.000 A 
ATOM      8  C   UNL     1      39.152   4.743  15.897  0.00  0.00    +0.000 A 
ATOM      9  C   UNL     1      40.157   5.676  15.718  0.00  0.00    +0.000 A 
ATOM     10  C   UNL     1      40.956   5.622  14.594  0.00  0.00    +0.000 A 
ENDROOT
BRANCH   7  11
ATOM     11  C   UNL     1      38.661   5.917  17.995  0.00  0.00    +0.000 A 
ATOM     12  C   UNL     1      39.554   5.762  19.045  0.00  0.00    +0.000 A 
ATOM     13  C   UNL     1      39.817   6.775  19.940  0.00  0.00    +0.000 A 
ATOM     14  C   UNL     1      39.192   7.998  19.819  0.00  0.00    +0.000 A 
ATOM     15  C   UNL     1      39.480   9.096  20.793  0.00  0.00    +0.000 C 
ATOM     16  C   UNL     1      38.303   8.169  18.783  0.00  0.00    +0.000 A 
ATOM     17  C   UNL     1      38.045   7.147  17.889  0.00  0.00    +0.000 A 
ENDBRANCH   7  11
BRANCH   5  18
ATOM     18  C   UNL     1      36.062   1.941  16.530  0.00  0.00    +0.000 C 
ATOM     19  O   UNL     1      34.888   2.232  16.237  0.00  0.00    +0.000 OA
ATOM     20  N   UNL     1      36.425   0.660  17.076  0.00  0.00    +0.000 NA
BRANCH  20  21
ATOM     21  C   UNL     1      35.345  -0.288  17.272  0.00  0.00    +0.000 C 
BRANCH  21  22
ATOM     22  C   UNL     1      35.451  -1.445  16.379  0.00  0.00    +0.000 A 
ATOM     23  C   UNL     1      36.437  -1.481  15.428  0.00  0.00    +0.000 A 
ATOM     24  C   UNL     1      36.532  -2.570  14.592  0.00  0.00    +0.000 A 
ATOM     25  C   UNL     1      35.630  -3.616  14.720  0.00  0.00    +0.000 A 
ATOM     26  C   UNL     1      34.652  -3.572  15.668  0.00  0.00    +0.000 A 
ATOM     27  C   UNL     1      34.567  -2.483  16.496  0.00  0.00    +0.000 A 
ENDBRANCH  21  22
ENDBRANCH  20  21
ENDBRANCH   5  18
BRANCH   1  29
ATOM     28  C   UNL     1      42.532   3.555  12.424  0.00  0.00    +0.000 C 
ATOM     29  O   UNL     1      41.537   4.556  12.509  0.00  0.00    +0.000 OA
ENDBRANCH   1  29
BRANCH  10  30
ATOM     30  O   UNL     1      41.978   6.536  14.367  0.00  0.00    +0.000 OA
ATOM     31  C   UNL     1      43.103   6.619  15.221  0.00  0.00    +0.000 C 
ENDBRANCH  10  30
TORSDOF 6
ENDMDL
MODEL 3
REMARK VINA RESULT:      -7.9      3.238      8.996
REMARK  Name = 
REMARK  6 active torsions:
REMARK  status: ('A' for Active; 'I' for Inactive)
REMARK    1  A    between atoms: O_2  and  C_3
REMARK    2  A    between atoms: C_7  and  C_8
REMARK    3  A    between atoms: N_10  and  C_11
REMARK    4  A    between atoms: C_11  and  C_12
REMARK    5  A    between atoms: C_19  and  C_20
REMARK    6  A    between atoms: C_29  and  O_30
REMARK                            x       y       z     vdW  Elec       q    Type
REMARK                         _______ _______ _______ _____ _____    ______ ____
ROOT
ATOM      1  C   UNL     1      36.391   8.592  15.034  0.00  0.00    +0.000 A 
ATOM      2  C   UNL     1      36.290   7.299  14.534  0.00  0.00    +0.000 A 
ATOM      3  C   UNL     1      37.076   6.280  14.998  0.00  0.00    +0.000 A 
ATOM      4  C   UNL     1      36.997   4.988  14.521  0.00  0.00    +0.000 A 
ATOM      5  C   UNL     1      37.818   4.004  15.030  0.00  0.00    +0.000 A 
ATOM      6  C   UNL     1      38.735   4.317  16.034  0.00  0.00    +0.000 A 
ATOM      7  C   UNL     1      38.824   5.606  16.520  0.00  0.00    +0.000 A 
ATOM      8  C   UNL     1      37.994   6.583  15.999  0.00  0.00    +0.000 A 
ATOM      9  C   UNL     1      38.111   7.863  16.511  0.00  0.00    +0.000 A 
ATOM     10  C   UNL     1      37.307   8.874  16.026  0.00  0.00    +0.000 A 
ENDROOT
BRANCH   7  11
ATOM     11  C   UNL     1      39.775   5.970  17.573  0.00  0.00    +0.000 A 
ATOM     12  C   UNL     1      39.411   6.034  18.910  0.00  0.00    +0.000 A 
ATOM     13  C   UNL     1      40.307   6.377  19.898  0.00  0.00    +0.000 A 
ATOM     14  C   UNL     1      41.617   6.672  19.586  0.00  0.00    +0.000 A 
ATOM     15  C   UNL     1      42.587   7.044  20.662  0.00  0.00    +0.000 C 
ATOM     16  C   UNL     1      41.994   6.614  18.264  0.00  0.00    +0.000 A 
ATOM     17  C   UNL     1      41.089   6.269  17.279  0.00  0.00    +0.000 A 
ENDBRANCH   7  11
BRANCH   5  18
ATOM     18  C   UNL     1      37.710   2.648  14.505  0.00  0.00    +0.000 C 
ATOM     19  O   UNL     1      37.186   2.453  13.393  0.00  0.00    +0.000 OA
ATOM     20  N   UNL     1      38.226   1.575  15.313  0.00  0.00    +0.000 NA
BRANCH  20  21
ATOM     21  C   UNL     1      38.104   0.238  14.765  0.00  0.00    +0.000 C 
BRANCH  21  22
ATOM     22  C   UNL     1      39.397  -0.444  14.667  0.00  0.00    +0.000 A 
ATOM     23  C   UNL     1      39.505  -1.754  15.053  0.00  0.00    +0.000 A 
ATOM     24  C   UNL     1      40.721  -2.391  14.960  0.00  0.00    +0.000 A 
ATOM     25  C   UNL     1      41.823  -1.700  14.477  0.00  0.00    +0.000 A 
ATOM     26  C   UNL     1      41.707  -0.397  14.094  0.00  0.00    +0.000 A 
ATOM     27  C   UNL     1      40.491   0.227  14.192  0.00  0.00    +0.000 A 
ENDBRANCH  21  22
ENDBRANCH  20  21
ENDBRANCH   5  18
BRANCH   1  29
ATOM     28  C   UNL     1      34.166   9.523  14.740  0.00  0.00    +0.000 C 
ATOM     29  O   UNL     1      35.562   9.604  14.527  0.00  0.00    +0.000 OA
ENDBRANCH   1  29
BRANCH  10  30
ATOM     30  O   UNL     1      37.384  10.177  16.506  0.00  0.00    +0.000 OA
ATOM     31  C   UNL     1      37.191  10.478  17.875  0.00  0.00    +0.000 C 
ENDBRANCH  10  30
TORSDOF 6
ENDMDL
MODEL 4
REMARK VINA RESULT:      -7.8      3.022      8.809
REMARK  Name = 
REMARK  6 active torsions:
REMARK  status: ('A' for Active; 'I' for Inactive)
REMARK    1  A    between atoms: O_2  and  C_3
REMARK    2  A    between atoms: C_7  and  C_8
REMARK    3  A    between atoms: N_10  and  C_11
REMARK    4  A    between atoms: C_11  and  C_12
REMARK    5  A    between atoms: C_19  and  C_20
REMARK    6  A    between atoms: C_29  and  O_30
REMARK                            x       y       z     vdW  Elec       q    Type
REMARK                         _______ _______ _______ _____ _____    ______ ____
ROOT
ATOM      1  C   UNL     1      36.520   7.952  13.950  0.00  0.00    +0.000 A 
ATOM      2  C   UNL     1      36.128   6.621  13.868  0.00  0.00    +0.000 A 
ATOM      3  C   UNL     1      36.685   5.653  14.658  0.00  0.00    +0.000 A 
ATOM      4  C   UNL     1      36.315   4.325  14.598  0.00  0.00    +0.000 A 
ATOM      5  C   UNL     1      36.913   3.394  15.421  0.00  0.00    +0.000 A 
ATOM      6  C   UNL     1      37.900   3.799  16.321  0.00  0.00    +0.000 A 
ATOM      7  C   UNL     1      38.278   5.124  16.391  0.00  0.00    +0.000 A 
ATOM      8  C   UNL     1      37.669   6.047  15.559  0.00  0.00    +0.000 A 
ATOM      9  C   UNL     1      38.074   7.366  15.657  0.00  0.00    +0.000 A 
ATOM     10  C   UNL     1      37.498   8.325  14.849  0.00  0.00    +0.000 A 
ENDROOT
BRANCH   7  11
ATOM     11  C   UNL     1      39.310   5.585  17.324  0.00  0.00    +0.000 A 
ATOM     12  C   UNL     1      40.584   5.937  16.905  0.00  0.00    +0.000 A 
ATOM     13  C   UNL     1      41.552   6.369  17.784  0.00  0.00    +0.000 A 
ATOM     14  C   UNL     1      41.281   6.471  19.132  0.00  0.00    +0.000 A 
ATOM     15  C   UNL     1      42.335   6.941  20.084  0.00  0.00    +0.000 C 
ATOM     16  C   UNL     1      40.022   6.125  19.565  0.00  0.00    +0.000 A 
ATOM     17  C   UNL     1      39.056   5.691  18.676  0.00  0.00    +0.000 A 
ENDBRANCH   7  11
BRANCH   5  18
ATOM     18  C   UNL     1      36.501   1.999  15.333  0.00  0.00    +0.000 C 
ATOM     19  O   UNL     1      35.808   1.616  14.373  0.00  0.00    +0.000 OA
ATOM     20  N   UNL     1      36.922   1.110  16.383  0.00  0.00    +0.000 NA
BRANCH  20  21
ATOM     21  C   UNL     1      36.496  -0.271  16.269  0.00  0.00    +0.000 C 
BRANCH  21  22
ATOM     22  C   UNL     1      37.190  -1.149  17.216  0.00  0.00    +0.000 A 
ATOM     23  C   UNL     1      36.879  -1.091  18.548  0.00  0.00    +0.000 A 
ATOM     24  C   UNL     1      37.533  -1.917  19.434  0.00  0.00    +0.000 A 
ATOM     25  C   UNL     1      38.499  -2.796  18.968  0.00  0.00    +0.000 A 
ATOM     26  C   UNL     1      38.803  -2.848  17.640  0.00  0.00    +0.000 A 
ATOM     27  C   UNL     1      38.145  -2.021  16.767  0.00  0.00    +0.000 A 
ENDBRANCH  21  22
ENDBRANCH  20  21
ENDBRANCH   5  18
BRANCH   1  29
ATOM     28  C   UNL     1      35.046   8.481  12.093  0.00  0.00    +0.000 C 
ATOM     29  O   UNL     1      35.920   8.910  13.120  0.00  0.00    +0.000 OA
ENDBRANCH   1  29
BRANCH  10  30
ATOM     30  O   UNL     1      37.869   9.663  14.909  0.00  0.00    +0.000 OA
ATOM     31  C   UNL     1      37.467  10.499  15.977  0.00  0.00    +0.000 C 
ENDBRANCH  10  30
TORSDOF 6
ENDMDL
MODEL 5
REMARK VINA RESULT:      -7.6      3.245      5.690
REMARK  Name = 
REMARK  6 active torsions:
REMARK  status: ('A' for Active; 'I' for Inactive)
REMARK    1  A    between atoms: O_2  and  C_3
REMARK    2  A    between atoms: C_7  and  C_8
REMARK    3  A    between atoms: N_10  and  C_11
REMARK    4  A    between atoms: C_11  and  C_12
REMARK    5  A    between atoms: C_19  and  C_20
REMARK    6  A    between atoms: C_29  and  O_30
REMARK                            x       y       z     vdW  Elec       q    Type
REMARK                         _______ _______ _______ _____ _____    ______ ____
ROOT
ATOM      1  C   UNL     1      42.581  -0.947  11.849  0.00  0.00    +0.000 A 
ATOM      2  C   UNL     1      42.175   0.328  12.226  0.00  0.00    +0.000 A 
ATOM      3  C   UNL     1      41.133   0.529  13.091  0.00  0.00    +0.000 A 
ATOM      4  C   UNL     1      40.708   1.782  13.482  0.00  0.00    +0.000 A 
ATOM      5  C   UNL     1      39.652   1.920  14.357  0.00  0.00    +0.000 A 
ATOM      6  C   UNL     1      39.007   0.784  14.850  0.00  0.00    +0.000 A 
ATOM      7  C   UNL     1      39.423  -0.475  14.466  0.00  0.00    +0.000 A 
ATOM      8  C   UNL     1      40.484  -0.598  13.587  0.00  0.00    +0.000 A 
ATOM      9  C   UNL     1      40.873  -1.875  13.225  0.00  0.00    +0.000 A 
ATOM     10  C   UNL     1      41.926  -2.052  12.351  0.00  0.00    +0.000 A 
ENDROOT
BRANCH   7  11
ATOM     11  C   UNL     1      38.770  -1.689  14.963  0.00  0.00    +0.000 A 
ATOM     12  C   UNL     1      37.755  -2.324  14.263  0.00  0.00    +0.000 A 
ATOM     13  C   UNL     1      37.143  -3.465  14.732  0.00  0.00    +0.000 A 
ATOM     14  C   UNL     1      37.527  -4.024  15.932  0.00  0.00    +0.000 A 
ATOM     15  C   UNL     1      36.861  -5.264  16.439  0.00  0.00    +0.000 C 
ATOM     16  C   UNL     1      38.533  -3.407  16.639  0.00  0.00    +0.000 A 
ATOM     17  C   UNL     1      39.141  -2.261  16.161  0.00  0.00    +0.000 A 
ENDBRANCH   7  11
BRANCH   5  18
ATOM     18  C   UNL     1      39.227   3.257  14.752  0.00  0.00    +0.000 C 
ATOM     19  O   UNL     1      39.266   4.189  13.928  0.00  0.00    +0.000 OA
ATOM     20  N   UNL     1      38.772   3.442  16.105  0.00  0.00    +0.000 NA
BRANCH  20  21
ATOM     21  C   UNL     1      38.356   4.783  16.468  0.00  0.00    +0.000 C 
BRANCH  21  22
ATOM     22  C   UNL     1      39.322   5.447  17.348  0.00  0.00    +0.000 A 
ATOM     23  C   UNL     1      40.475   5.966  16.821  0.00  0.00    +0.000 A 
ATOM     24  C   UNL     1      41.379   6.589  17.652  0.00  0.00    +0.000 A 
ATOM     25  C   UNL     1      41.113   6.683  19.010  0.00  0.00    +0.000 A 
ATOM     26  C   UNL     1      39.963   6.164  19.526  0.00  0.00    +0.000 A 
ATOM     27  C   UNL     1      39.070   5.546  18.690  0.00  0.00    +0.000 A 
ENDBRANCH  21  22
ENDBRANCH  20  21
ENDBRANCH   5  18
BRANCH   1  29
ATOM     28  C   UNL     1      44.976  -0.952  11.442  0.00  0.00    +0.000 C 
ATOM     29  O   UNL     1      43.655  -1.103  10.960  0.00  0.00    +0.000 OA
ENDBRANCH   1  29
BRANCH  10  30
ATOM     30  O   UNL     1      42.356  -3.314  11.955  0.00  0.00    +0.000 OA
ATOM     31  C   UNL     1      41.801  -3.970  10.831  0.00  0.00    +0.000 C 
ENDBRANCH  10  30
TORSDOF 6
ENDMDL
MODEL 6
REMARK VINA RESULT:      -7.6      1.538      2.149
REMARK  Name = 
REMARK  6 active torsions:
REMARK  status: ('A' for Active; 'I' for Inactive)
REMARK    1  A    between atoms: O_2  and  C_3
REMARK    2  A    between atoms: C_7  and  C_8
REMARK    3  A    between atoms: N_10  and  C_11
REMARK    4  A    between atoms: C_11  and  C_12
REMARK    5  A    between atoms: C_19  and  C_20
REMARK    6  A    between atoms: C_29  and  O_30
REMARK                            x       y       z     vdW  Elec       q    Type
REMARK                         _______ _______ _______ _____ _____    ______ ____
ROOT
ATOM      1  C   UNL     1      36.138  -2.203  16.148  0.00  0.00    +0.000 A 
ATOM      2  C   UNL     1      36.144  -0.813  16.156  0.00  0.00    +0.000 A 
ATOM      3  C   UNL     1      37.180  -0.091  15.628  0.00  0.00    +0.000 A 
ATOM      4  C   UNL     1      37.212   1.288  15.622  0.00  0.00    +0.000 A 
ATOM      5  C   UNL     1      38.285   1.960  15.074  0.00  0.00    +0.000 A 
ATOM      6  C   UNL     1      39.345   1.239  14.523  0.00  0.00    +0.000 A 
ATOM      7  C   UNL     1      39.325  -0.141  14.523  0.00  0.00    +0.000 A 
ATOM      8  C   UNL     1      38.241  -0.801  15.076  0.00  0.00    +0.000 A 
ATOM      9  C   UNL     1      38.255  -2.184  15.058  0.00  0.00    +0.000 A 
ATOM     10  C   UNL     1      37.199  -2.891  15.597  0.00  0.00    +0.000 A 
ENDROOT
BRANCH   7  11
ATOM     11  C   UNL     1      40.419  -0.930  13.953  0.00  0.00    +0.000 A 
ATOM     12  C   UNL     1      40.375  -1.435  12.663  0.00  0.00    +0.000 A 
ATOM     13  C   UNL     1      41.406  -2.177  12.129  0.00  0.00    +0.000 A 
ATOM     14  C   UNL     1      42.536  -2.444  12.872  0.00  0.00    +0.000 A 
ATOM     15  C   UNL     1      43.654  -3.250  12.290  0.00  0.00    +0.000 C 
ATOM     16  C   UNL     1      42.596  -1.950  14.155  0.00  0.00    +0.000 A 
ATOM     17  C   UNL     1      41.557  -1.208  14.683  0.00  0.00    +0.000 A 
ENDBRANCH   7  11
BRANCH   5  18
ATOM     18  C   UNL     1      38.290   3.417  15.083  0.00  0.00    +0.000 C 
ATOM     19  O   UNL     1      38.351   4.044  14.010  0.00  0.00    +0.000 OA
ATOM     20  N   UNL     1      38.221   4.079  16.359  0.00  0.00    +0.000 NA
BRANCH  20  21
ATOM     21  C   UNL     1      38.228   5.528  16.336  0.00  0.00    +0.000 C 
BRANCH  21  22
ATOM     22  C   UNL     1      38.645   6.104  17.617  0.00  0.00    +0.000 A 
ATOM     23  C   UNL     1      38.028   7.233  18.088  0.00  0.00    +0.000 A 
ATOM     24  C   UNL     1      38.424   7.771  19.291  0.00  0.00    +0.000 A 
ATOM     25  C   UNL     1      39.441   7.165  20.013  0.00  0.00    +0.000 A 
ATOM     26  C   UNL     1      40.050   6.041  19.538  0.00  0.00    +0.000 A 
ATOM     27  C   UNL     1      39.648   5.515  18.338  0.00  0.00    +0.000 A 
ENDBRANCH  21  22
ENDBRANCH  20  21
ENDBRANCH   5  18
BRANCH   1  29
ATOM     28  C   UNL     1      34.041  -3.392  15.844  0.00  0.00    +0.000 C 
ATOM     29  O   UNL     1      35.053  -2.900  16.701  0.00  0.00    +0.000 OA
ENDBRANCH   1  29
BRANCH  10  30
ATOM     30  O   UNL     1      37.164  -4.281  15.604  0.00  0.00    +0.000 OA
ATOM     31  C   UNL     1      37.673  -5.031  16.690  0.00  0.00    +0.000 C 
ENDBRANCH  10  30
TORSDOF 6
ENDMDL
MODEL 7
REMARK VINA RESULT:      -7.6      2.608      5.073
REMARK  Name = 
REMARK  6 active torsions:
REMARK  status: ('A' for Active; 'I' for Inactive)
REMARK    1  A    between atoms: O_2  and  C_3
REMARK    2  A    between atoms: C_7  and  C_8
REMARK    3  A    between atoms: N_10  and  C_11
REMARK    4  A    between atoms: C_11  and  C_12
REMARK    5  A    between atoms: C_19  and  C_20
REMARK    6  A    between atoms: C_29  and  O_30
REMARK                            x       y       z     vdW  Elec       q    Type
REMARK                         _______ _______ _______ _____ _____    ______ ____
ROOT
ATOM      1  C   UNL     1      39.870  -0.085  10.895  0.00  0.00    +0.000 A 
ATOM      2  C   UNL     1      39.532   1.075  11.581  0.00  0.00    +0.000 A 
ATOM      3  C   UNL     1      38.992   1.042  12.838  0.00  0.00    +0.000 A 
ATOM      4  C   UNL     1      38.648   2.178  13.542  0.00  0.00    +0.000 A 
ATOM      5  C   UNL     1      38.108   2.079  14.807  0.00  0.00    +0.000 A 
ATOM      6  C   UNL     1      37.908   0.822  15.379  0.00  0.00    +0.000 A 
ATOM      7  C   UNL     1      38.248  -0.321  14.685  0.00  0.00    +0.000 A 
ATOM      8  C   UNL     1      38.789  -0.207  13.416  0.00  0.00    +0.000 A 
ATOM      9  C   UNL     1      39.119  -1.374  12.752  0.00  0.00    +0.000 A 
ATOM     10  C   UNL     1      39.661  -1.315  11.484  0.00  0.00    +0.000 A 
ENDROOT
BRANCH   7  11
ATOM     11  C   UNL     1      38.053  -1.657  15.254  0.00  0.00    +0.000 A 
ATOM     12  C   UNL     1      38.996  -2.259  16.074  0.00  0.00    +0.000 A 
ATOM     13  C   UNL     1      38.810  -3.515  16.607  0.00  0.00    +0.000 A 
ATOM     14  C   UNL     1      37.660  -4.227  16.341  0.00  0.00    +0.000 A 
ATOM     15  C   UNL     1      37.461  -5.591  16.922  0.00  0.00    +0.000 C 
ATOM     16  C   UNL     1      36.714  -3.645  15.529  0.00  0.00    +0.000 A 
ATOM     17  C   UNL     1      36.909  -2.384  14.997  0.00  0.00    +0.000 A 
ENDBRANCH   7  11
BRANCH   5  18
ATOM     18  C   UNL     1      37.754   3.298  15.525  0.00  0.00    +0.000 C 
ATOM     19  O   UNL     1      36.643   3.826  15.341  0.00  0.00    +0.000 OA
ATOM     20  N   UNL     1      38.727   3.845  16.433  0.00  0.00    +0.000 NA
BRANCH  20  21
ATOM     21  C   UNL     1      38.347   5.057  17.132  0.00  0.00    +0.000 C 
BRANCH  21  22
ATOM     22  C   UNL     1      39.474   5.666  17.844  0.00  0.00    +0.000 A 
ATOM     23  C   UNL     1      40.608   6.006  17.156  0.00  0.00    +0.000 A 
ATOM     24  C   UNL     1      41.664   6.578  17.828  0.00  0.00    +0.000 A 
ATOM     25  C   UNL     1      41.568   6.803  19.194  0.00  0.00    +0.000 A 
ATOM     26  C   UNL     1      40.435   6.462  19.872  0.00  0.00    +0.000 A 
ATOM     27  C   UNL     1      39.390   5.893  19.191  0.00  0.00    +0.000 A 
ENDBRANCH  21  22
ENDBRANCH  20  21
ENDBRANCH   5  18
BRANCH   1  29
ATOM     28  C   UNL     1      41.581   0.783   9.405  0.00  0.00    +0.000 C 
ATOM     29  O   UNL     1      40.421  -0.001   9.608  0.00  0.00    +0.000 OA
ENDBRANCH   1  29
BRANCH  10  30
ATOM     30  O   UNL     1      40.010  -2.458  10.773  0.00  0.00    +0.000 OA
ATOM     31  C   UNL     1      41.218  -3.151  11.025  0.00  0.00    +0.000 C 
ENDBRANCH  10  30
TORSDOF 6
ENDMDL
MODEL 8
REMARK VINA RESULT:      -7.4      2.986      9.603
REMARK  Name = 
REMARK  6 active torsions:
REMARK  status: ('A' for Active; 'I' for Inactive)
REMARK    1  A    between atoms: O_2  and  C_3
REMARK    2  A    between atoms: C_7  and  C_8
REMARK    3  A    between atoms: N_10  and  C_11
REMARK    4  A    between atoms: C_11  and  C_12
REMARK    5  A    between atoms: C_19  and  C_20
REMARK    6  A    between atoms: C_29  and  O_30
REMARK                            x       y       z     vdW  Elec       q    Type
REMARK                         _______ _______ _______ _____ _____    ______ ____
ROOT
ATOM      1  C   UNL     1      41.341   6.029  13.900  0.00  0.00    +0.000 A 
ATOM      2  C   UNL     1      40.547   4.889  13.951  0.00  0.00    +0.000 A 
ATOM      3  C   UNL     1      39.673   4.660  14.979  0.00  0.00    +0.000 A 
ATOM      4  C   UNL     1      38.874   3.538  15.055  0.00  0.00    +0.000 A 
ATOM      5  C   UNL     1      38.012   3.364  16.117  0.00  0.00    +0.000 A 
ATOM      6  C   UNL     1      37.948   4.330  17.122  0.00  0.00    +0.000 A 
ATOM      7  C   UNL     1      38.742   5.457  17.058  0.00  0.00    +0.000 A 
ATOM      8  C   UNL     1      39.603   5.618  15.986  0.00  0.00    +0.000 A 
ATOM      9  C   UNL     1      40.383   6.759  15.954  0.00  0.00    +0.000 A 
ATOM     10  C   UNL     1      41.257   6.968  14.907  0.00  0.00    +0.000 A 
ENDROOT
BRANCH   7  11
ATOM     11  C   UNL     1      38.702   6.491  18.094  0.00  0.00    +0.000 A 
ATOM     12  C   UNL     1      37.962   7.655  17.951  0.00  0.00    +0.000 A 
ATOM     13  C   UNL     1      37.925   8.626  18.927  0.00  0.00    +0.000 A 
ATOM     14  C   UNL     1      38.633   8.469  20.100  0.00  0.00    +0.000 A 
ATOM     15  C   UNL     1      38.591   9.525  21.158  0.00  0.00    +0.000 C 
ATOM     16  C   UNL     1      39.373   7.320  20.258  0.00  0.00    +0.000 A 
ATOM     17  C   UNL     1      39.405   6.351  19.273  0.00  0.00    +0.000 A 
ENDBRANCH   7  11
BRANCH   5  18
ATOM     18  C   UNL     1      37.181   2.168  16.168  0.00  0.00    +0.000 C 
ATOM     19  O   UNL     1      36.012   2.242  16.590  0.00  0.00    +0.000 OA
ATOM     20  N   UNL     1      37.761   0.930  15.719  0.00  0.00    +0.000 NA
BRANCH  20  21
ATOM     21  C   UNL     1      36.911  -0.242  15.782  0.00  0.00    +0.000 C 
BRANCH  21  22
ATOM     22  C   UNL     1      37.526  -1.338  16.536  0.00  0.00    +0.000 A 
ATOM     23  C   UNL     1      37.026  -1.682  17.764  0.00  0.00    +0.000 A 
ATOM     24  C   UNL     1      37.607  -2.712  18.468  0.00  0.00    +0.000 A 
ATOM     25  C   UNL     1      38.692  -3.387  17.929  0.00  0.00    +0.000 A 
ATOM     26  C   UNL     1      39.184  -3.038  16.706  0.00  0.00    +0.000 A 
ATOM     27  C   UNL     1      38.597  -2.011  16.014  0.00  0.00    +0.000 A 
ENDBRANCH  21  22
ENDBRANCH  20  21
ENDBRANCH   5  18
BRANCH   1  29
ATOM     28  C   UNL     1      43.473   5.562  12.835  0.00  0.00    +0.000 C 
ATOM     29  O   UNL     1      42.221   6.219  12.825  0.00  0.00    +0.000 OA
ENDBRANCH   1  29
BRANCH  10  30
ATOM     30  O   UNL     1      42.063   8.098  14.829  0.00  0.00    +0.000 OA
ATOM     31  C   UNL     1      41.556   9.343  14.387  0.00  0.00    +0.000 C 
ENDBRANCH  10  30
TORSDOF 6
ENDMDL
MODEL 9
REMARK VINA RESULT:      -7.3      3.507      8.494
REMARK  Name = 
REMARK  6 active torsions:
REMARK  status: ('A' for Active; 'I' for Inactive)
REMARK    1  A    between atoms: O_2  and  C_3
REMARK    2  A    between atoms: C_7  and  C_8
REMARK    3  A    between atoms: N_10  and  C_11
REMARK    4  A    between atoms: C_11  and  C_12
REMARK    5  A    between atoms: C_19  and  C_20
REMARK    6  A    between atoms: C_29  and  O_30
REMARK                            x       y       z     vdW  Elec       q    Type
REMARK                         _______ _______ _______ _____ _____    ______ ____
ROOT
ATOM      1  C   UNL     1      38.945   6.235  17.301  0.00  0.00    +0.000 A 
ATOM      2  C   UNL     1      38.531   4.928  17.533  0.00  0.00    +0.000 A 
ATOM      3  C   UNL     1      37.629   4.300  16.719  0.00  0.00    +0.000 A 
ATOM      4  C   UNL     1      37.200   3.004  16.925  0.00  0.00    +0.000 A 
ATOM      5  C   UNL     1      36.288   2.425  16.068  0.00  0.00    +0.000 A 
ATOM      6  C   UNL     1      35.796   3.154  14.985  0.00  0.00    +0.000 A 
ATOM      7  C   UNL     1      36.216   4.451  14.768  0.00  0.00    +0.000 A 
ATOM      8  C   UNL     1      37.132   5.019  15.636  0.00  0.00    +0.000 A 
ATOM      9  C   UNL     1      37.531   6.320  15.387  0.00  0.00    +0.000 A 
ATOM     10  C   UNL     1      38.442   6.933  16.223  0.00  0.00    +0.000 A 
ENDROOT
BRANCH   7  11
ATOM     11  C   UNL     1      35.721   5.245  13.641  0.00  0.00    +0.000 A 
ATOM     12  C   UNL     1      34.621   6.082  13.752  0.00  0.00    +0.000 A 
ATOM     13  C   UNL     1      34.156   6.829  12.692  0.00  0.00    +0.000 A 
ATOM     14  C   UNL     1      34.782   6.769  11.465  0.00  0.00    +0.000 A 
ATOM     15  C   UNL     1      34.276   7.581  10.315  0.00  0.00    +0.000 C 
ATOM     16  C   UNL     1      35.875   5.943  11.337  0.00  0.00    +0.000 A 
ATOM     17  C   UNL     1      36.334   5.197  12.407  0.00  0.00    +0.000 A 
ENDBRANCH   7  11
BRANCH   5  18
ATOM     18  C   UNL     1      35.855   1.055  16.313  0.00  0.00    +0.000 C 
ATOM     19  O   UNL     1      34.718   0.835  16.766  0.00  0.00    +0.000 OA
ATOM     20  N   UNL     1      36.783  -0.003  16.012  0.00  0.00    +0.000 NA
BRANCH  20  21
ATOM     21  C   UNL     1      36.324  -1.355  16.266  0.00  0.00    +0.000 C 
BRANCH  21  22
ATOM     22  C   UNL     1      37.084  -2.010  17.335  0.00  0.00    +0.000 A 
ATOM     23  C   UNL     1      36.969  -1.560  18.624  0.00  0.00    +0.000 A 
ATOM     24  C   UNL     1      37.684  -2.178  19.624  0.00  0.00    +0.000 A 
ATOM     25  C   UNL     1      38.512  -3.247  19.317  0.00  0.00    +0.000 A 
ATOM     26  C   UNL     1      38.620  -3.690  18.032  0.00  0.00    +0.000 A 
ATOM     27  C   UNL     1      37.903  -3.067  17.044  0.00  0.00    +0.000 A 
ENDBRANCH  21  22
ENDBRANCH  20  21
ENDBRANCH   5  18
BRANCH   1  29
ATOM     28  C   UNL     1      39.848   6.509  19.540  0.00  0.00    +0.000 C 
ATOM     29  O   UNL     1      39.872   6.837  18.164  0.00  0.00    +0.000 OA
ENDBRANCH   1  29
BRANCH  10  30
ATOM     30  O   UNL     1      38.875   8.238  16.017  0.00  0.00    +0.000 OA
ATOM     31  C   UNL     1      38.092   9.351  16.403  0.00  0.00    +0.000 C 
ENDBRANCH  10  30
TORSDOF 6
ENDMDL
MODEL 10
REMARK VINA RESULT:      -7.2     25.432     29.468
REMARK  Name = 
REMARK  6 active torsions:
REMARK  status: ('A' for Active; 'I' for Inactive)
REMARK    1  A    between atoms: O_2  and  C_3
REMARK    2  A    between atoms: C_7  and  C_8
REMARK    3  A    between atoms: N_10  and  C_11
REMARK    4  A    between atoms: C_11  and  C_12
REMARK    5  A    between atoms: C_19  and  C_20
REMARK    6  A    between atoms: C_29  and  O_30
REMARK                            x       y       z     vdW  Elec       q    Type
REMARK                         _______ _______ _______ _____ _____    ______ ____
ROOT
ATOM      1  C   UNL     1      10.312   5.433   8.544  0.00  0.00    +0.000 A 
ATOM      2  C   UNL     1      10.842   4.170   8.306  0.00  0.00    +0.000 A 
ATOM      3  C   UNL     1      10.422   3.067   8.999  0.00  0.00    +0.000 A 
ATOM      4  C   UNL     1      10.929   1.802   8.784  0.00  0.00    +0.000 A 
ATOM      5  C   UNL     1      10.465   0.729   9.515  0.00  0.00    +0.000 A 
ATOM      6  C   UNL     1       9.476   0.925  10.479  0.00  0.00    +0.000 A 
ATOM      7  C   UNL     1       8.960   2.184  10.704  0.00  0.00    +0.000 A 
ATOM      8  C   UNL     1       9.436   3.252   9.963  0.00  0.00    +0.000 A 
ATOM      9  C   UNL     1       8.896   4.500  10.216  0.00  0.00    +0.000 A 
ATOM     10  C   UNL     1       9.335   5.598   9.504  0.00  0.00    +0.000 A 
ENDROOT
BRANCH   7  11
ATOM     11  C   UNL     1       7.921   2.426  11.708  0.00  0.00    +0.000 A 
ATOM     12  C   UNL     1       8.207   2.528  13.061  0.00  0.00    +0.000 A 
ATOM     13  C   UNL     1       7.229   2.756  14.003  0.00  0.00    +0.000 A 
ATOM     14  C   UNL     1       5.910   2.894  13.626  0.00  0.00    +0.000 A 
ATOM     15  C   UNL     1       4.849   3.141  14.651  0.00  0.00    +0.000 C 
ATOM     16  C   UNL     1       5.608   2.795  12.287  0.00  0.00    +0.000 A 
ATOM     17  C   UNL     1       6.597   2.566  11.348  0.00  0.00    +0.000 A 
ENDBRANCH   7  11
BRANCH   5  18
ATOM     18  C   UNL     1      11.021  -0.595   9.263  0.00  0.00    +0.000 C 
ATOM     19  O   UNL     1      10.264  -1.546   8.998  0.00  0.00    +0.000 OA
ATOM     20  N   UNL     1      12.450  -0.745   9.335  0.00  0.00    +0.000 NA
BRANCH  20  21
ATOM     21  C   UNL     1      12.974  -2.072   9.081  0.00  0.00    +0.000 C 
BRANCH  21  22
ATOM     22  C   UNL     1      13.868  -2.107   7.920  0.00  0.00    +0.000 A 
ATOM     23  C   UNL     1      14.551  -3.256   7.624  0.00  0.00    +0.000 A 
ATOM     24  C   UNL     1      15.390  -3.284   6.533  0.00  0.00    +0.000 A 
ATOM     25  C   UNL     1      15.533  -2.149   5.748  0.00  0.00    +0.000 A 
ATOM     26  C   UNL     1      14.849  -1.010   6.050  0.00  0.00    +0.000 A 
ATOM     27  C   UNL     1      14.017  -0.993   7.138  0.00  0.00    +0.000 A 
ENDBRANCH  21  22
ENDBRANCH  20  21
ENDBRANCH   5  18
BRANCH   1  29
ATOM     28  C   UNL     1      10.430   6.642   6.440  0.00  0.00    +0.000 C 
ATOM     29  O   UNL     1      10.774   6.534   7.808  0.00  0.00    +0.000 OA
ENDBRANCH   1  29
BRANCH  10  30
ATOM     30  O   UNL     1       8.825   6.873   9.719  0.00  0.00    +0.000 OA
ATOM     31  C   UNL     1       7.634   7.312   9.095  0.00  0.00    +0.000 C 
ENDBRANCH  10  30
TORSDOF 6
ENDMDL
