MODEL 1
REMARK VINA RESULT:      -6.2      0.000      0.000
REMARK  Name = 
REMARK  4 active torsions:
REMARK  status: ('A' for Active; 'I' for Inactive)
REMARK    1  A    between atoms: C_2  and  O_3
REMARK    2  A    between atoms: O_3  and  C_4
REMARK    3  A    between atoms: C_7  and  C_8
REMARK    4  A    between atoms: C_13  and  C_14
REMARK                            x       y       z     vdW  Elec       q    Type
REMARK                         _______ _______ _______ _____ _____    ______ ____
ROOT
ATOM      1  C   UNL     1      26.654  23.495  26.013  0.00  0.00    +0.000 A 
ATOM      2  C   UNL     1      26.024  23.702  27.226  0.00  0.00    +0.000 A 
ATOM      3  C   UNL     1      25.076  24.724  27.333  0.00  0.00    +0.000 A 
ATOM      4  C   UNL     1      24.762  25.536  26.264  0.00  0.00    +0.000 A 
ATOM      5  C   UNL     1      25.397  25.323  25.062  0.00  0.00    +0.000 A 
ATOM      6  C   UNL     1      26.342  24.304  24.938  0.00  0.00    +0.000 A 
ENDROOT
BRANCH   6   7
ATOM      7  C   UNL     1      27.027  24.053  23.676  0.00  0.00    +0.000 A 
ATOM      8  C   UNL     1      28.199  24.591  23.213  0.00  0.00    +0.000 A 
ATOM      9  C   UNL     1      28.475  24.062  21.976  0.00  0.00    +0.000 A 
ATOM     10  N   UNL     1      29.591  24.354  21.139  0.00  0.00    +0.000 NA
ATOM     11  O   UNL     1      27.478  23.225  21.721  0.00  0.00    +0.000 OA
ATOM     12  N   UNL     1      26.635  23.215  22.703  0.00  0.00    +0.000 NA
ENDBRANCH   6   7
BRANCH   4  13
ATOM     13  C   UNL     1      23.770  26.624  26.390  0.00  0.00    +0.000 C 
ATOM     14  C   UNL     1      22.776  26.342  27.509  0.00  0.00    +0.000 C 
ATOM     15  C   UNL     1      22.935  26.708  25.100  0.00  0.00    +0.000 C 
ATOM     16  C   UNL     1      24.385  27.947  26.678  0.00  0.00    +0.000 C 
ENDBRANCH   4  13
BRANCH   1  17
ATOM     17  O   UNL     1      27.605  22.505  25.813  0.00  0.00    +0.000 OA
BRANCH  17  19
ATOM     18  C   UNL     1      29.974  22.369  25.741  0.00  0.00    +0.000 C 
ATOM     19  C   UNL     1      28.748  22.507  26.645  0.00  0.00    +0.000 C 
ENDBRANCH  17  19
ENDBRANCH   1  17
TORSDOF 4
ENDMDL
MODEL 2
REMARK VINA RESULT:      -6.0     28.512     30.717
REMARK  Name = 
REMARK  4 active torsions:
REMARK  status: ('A' for Active; 'I' for Inactive)
REMARK    1  A    between atoms: C_2  and  O_3
REMARK    2  A    between atoms: O_3  and  C_4
REMARK    3  A    between atoms: C_7  and  C_8
REMARK    4  A    between atoms: C_13  and  C_14
REMARK                            x       y       z     vdW  Elec       q    Type
REMARK                         _______ _______ _______ _____ _____    ______ ____
ROOT
ATOM      1  C   UNL     1      32.426  -5.274  33.479  0.00  0.00    +0.000 A 
ATOM      2  C   UNL     1      32.007  -4.683  34.656  0.00  0.00    +0.000 A 
ATOM      3  C   UNL     1      32.401  -3.370  34.935  0.00  0.00    +0.000 A 
ATOM      4  C   UNL     1      33.203  -2.656  34.071  0.00  0.00    +0.000 A 
ATOM      5  C   UNL     1      33.616  -3.255  32.903  0.00  0.00    +0.000 A 
ATOM      6  C   UNL     1      33.228  -4.562  32.609  0.00  0.00    +0.000 A 
ENDROOT
BRANCH   6   7
ATOM      7  C   UNL     1      33.648  -5.220  31.377  0.00  0.00    +0.000 A 
ATOM      8  C   UNL     1      32.996  -5.287  30.174  0.00  0.00    +0.000 A 
ATOM      9  C   UNL     1      33.764  -6.002  29.289  0.00  0.00    +0.000 A 
ATOM     10  N   UNL     1      33.457  -6.315  27.933  0.00  0.00    +0.000 NA
ATOM     11  O   UNL     1      34.851  -6.346  29.966  0.00  0.00    +0.000 OA
ATOM     12  N   UNL     1      34.790  -5.896  31.177  0.00  0.00    +0.000 NA
ENDBRANCH   6   7
BRANCH   4  13
ATOM     13  C   UNL     1      33.628  -1.275  34.380  0.00  0.00    +0.000 C 
ATOM     14  C   UNL     1      34.747  -1.256  35.412  0.00  0.00    +0.000 C 
ATOM     15  C   UNL     1      32.456  -0.510  35.021  0.00  0.00    +0.000 C 
ATOM     16  C   UNL     1      34.121  -0.533  33.190  0.00  0.00    +0.000 C 
ENDBRANCH   4  13
BRANCH   1  17
ATOM     17  O   UNL     1      32.084  -6.569  33.119  0.00  0.00    +0.000 OA
BRANCH  17  19
ATOM     18  C   UNL     1      30.098  -6.804  31.841  0.00  0.00    +0.000 C 
ATOM     19  C   UNL     1      30.728  -6.950  33.227  0.00  0.00    +0.000 C 
ENDBRANCH  17  19
ENDBRANCH   1  17
TORSDOF 4
ENDMDL
MODEL 3
REMARK VINA RESULT:      -5.9     19.770     21.542
REMARK  Name = 
REMARK  4 active torsions:
REMARK  status: ('A' for Active; 'I' for Inactive)
REMARK    1  A    between atoms: C_2  and  O_3
REMARK    2  A    between atoms: O_3  and  C_4
REMARK    3  A    between atoms: C_7  and  C_8
REMARK    4  A    between atoms: C_13  and  C_14
REMARK                            x       y       z     vdW  Elec       q    Type
REMARK                         _______ _______ _______ _____ _____    ______ ____
ROOT
ATOM      1  C   UNL     1      19.307  10.617  38.709  0.00  0.00    +0.000 A 
ATOM      2  C   UNL     1      19.676  10.277  39.996  0.00  0.00    +0.000 A 
ATOM      3  C   UNL     1      18.722   9.715  40.850  0.00  0.00    +0.000 A 
ATOM      4  C   UNL     1      17.422   9.500  40.443  0.00  0.00    +0.000 A 
ATOM      5  C   UNL     1      17.065   9.845  39.160  0.00  0.00    +0.000 A 
ATOM      6  C   UNL     1      18.007  10.402  38.295  0.00  0.00    +0.000 A 
ENDROOT
BRANCH   6   7
ATOM      7  C   UNL     1      17.657  10.772  36.928  0.00  0.00    +0.000 A 
ATOM      8  C   UNL     1      17.666   9.997  35.800  0.00  0.00    +0.000 A 
ATOM      9  C   UNL     1      17.254  10.756  34.732  0.00  0.00    +0.000 A 
ATOM     10  N   UNL     1      17.125  10.343  33.375  0.00  0.00    +0.000 NA
ATOM     11  O   UNL     1      17.006  11.959  35.232  0.00  0.00    +0.000 OA
ATOM     12  N   UNL     1      17.237  11.975  36.505  0.00  0.00    +0.000 NA
ENDBRANCH   6   7
BRANCH   4  13
ATOM     13  C   UNL     1      16.416   8.920  41.357  0.00  0.00    +0.000 C 
ATOM     14  C   UNL     1      15.000   9.233  40.894  0.00  0.00    +0.000 C 
ATOM     15  C   UNL     1      16.553   9.566  42.747  0.00  0.00    +0.000 C 
ATOM     16  C   UNL     1      16.517   7.442  41.478  0.00  0.00    +0.000 C 
ENDBRANCH   4  13
BRANCH   1  17
ATOM     17  O   UNL     1      20.184  11.177  37.792  0.00  0.00    +0.000 OA
BRANCH  17  19
ATOM     18  C   UNL     1      20.052  13.508  38.222  0.00  0.00    +0.000 C 
ATOM     19  C   UNL     1      20.963  12.280  38.211  0.00  0.00    +0.000 C 
ENDBRANCH  17  19
ENDBRANCH   1  17
TORSDOF 4
ENDMDL
MODEL 4
REMARK VINA RESULT:      -5.7      4.152      5.964
REMARK  Name = 
REMARK  4 active torsions:
REMARK  status: ('A' for Active; 'I' for Inactive)
REMARK    1  A    between atoms: C_2  and  O_3
REMARK    2  A    between atoms: O_3  and  C_4
REMARK    3  A    between atoms: C_7  and  C_8
REMARK    4  A    between atoms: C_13  and  C_14
REMARK                            x       y       z     vdW  Elec       q    Type
REMARK                         _______ _______ _______ _____ _____    ______ ____
ROOT
ATOM      1  C   UNL     1      29.794  22.375  26.661  0.00  0.00    +0.000 A 
ATOM      2  C   UNL     1      30.372  22.397  25.406  0.00  0.00    +0.000 A 
ATOM      3  C   UNL     1      29.644  22.917  24.331  0.00  0.00    +0.000 A 
ATOM      4  C   UNL     1      28.362  23.399  24.490  0.00  0.00    +0.000 A 
ATOM      5  C   UNL     1      27.795  23.370  25.744  0.00  0.00    +0.000 A 
ATOM      6  C   UNL     1      28.511  22.858  26.826  0.00  0.00    +0.000 A 
ENDROOT
BRANCH   6   7
ATOM      7  C   UNL     1      27.936  22.820  28.166  0.00  0.00    +0.000 A 
ATOM      8  C   UNL     1      27.101  21.883  28.716  0.00  0.00    +0.000 A 
ATOM      9  C   UNL     1      26.816  22.243  30.010  0.00  0.00    +0.000 A 
ATOM     10  N   UNL     1      25.982  21.553  30.937  0.00  0.00    +0.000 NA
ATOM     11  O   UNL     1      27.478  23.374  30.213  0.00  0.00    +0.000 OA
ATOM     12  N   UNL     1      28.129  23.714  29.148  0.00  0.00    +0.000 NA
ENDBRANCH   6   7
BRANCH   4  13
ATOM     13  C   UNL     1      27.595  23.933  23.347  0.00  0.00    +0.000 C 
ATOM     14  C   UNL     1      28.308  23.671  22.027  0.00  0.00    +0.000 C 
ATOM     15  C   UNL     1      27.492  25.464  23.468  0.00  0.00    +0.000 C 
ATOM     16  C   UNL     1      26.233  23.346  23.229  0.00  0.00    +0.000 C 
ENDBRANCH   4  13
BRANCH   1  17
ATOM     17  O   UNL     1      30.439  21.879  27.784  0.00  0.00    +0.000 OA
BRANCH  17  19
ATOM     18  C   UNL     1      32.366  21.537  29.127  0.00  0.00    +0.000 C 
ATOM     19  C   UNL     1      31.645  22.500  28.182  0.00  0.00    +0.000 C 
ENDBRANCH  17  19
ENDBRANCH   1  17
TORSDOF 4
ENDMDL
MODEL 5
REMARK VINA RESULT:      -5.7      2.410      5.158
REMARK  Name = 
REMARK  4 active torsions:
REMARK  status: ('A' for Active; 'I' for Inactive)
REMARK    1  A    between atoms: C_2  and  O_3
REMARK    2  A    between atoms: O_3  and  C_4
REMARK    3  A    between atoms: C_7  and  C_8
REMARK    4  A    between atoms: C_13  and  C_14
REMARK                            x       y       z     vdW  Elec       q    Type
REMARK                         _______ _______ _______ _____ _____    ______ ____
ROOT
ATOM      1  C   UNL     1      27.943  23.197  24.366  0.00  0.00    +0.000 A 
ATOM      2  C   UNL     1      27.776  22.579  25.591  0.00  0.00    +0.000 A 
ATOM      3  C   UNL     1      28.805  22.655  26.535  0.00  0.00    +0.000 A 
ATOM      4  C   UNL     1      29.982  23.322  26.272  0.00  0.00    +0.000 A 
ATOM      5  C   UNL     1      30.138  23.932  25.048  0.00  0.00    +0.000 A 
ATOM      6  C   UNL     1      29.119  23.869  24.098  0.00  0.00    +0.000 A 
ENDROOT
BRANCH   6   7
ATOM      7  C   UNL     1      29.256  24.509  22.795  0.00  0.00    +0.000 A 
ATOM      8  C   UNL     1      29.161  25.838  22.477  0.00  0.00    +0.000 A 
ATOM      9  C   UNL     1      29.368  25.991  21.128  0.00  0.00    +0.000 A 
ATOM     10  N   UNL     1      29.349  27.204  20.381  0.00  0.00    +0.000 NA
ATOM     11  O   UNL     1      29.582  24.767  20.665  0.00  0.00    +0.000 OA
ATOM     12  N   UNL     1      29.519  23.903  21.626  0.00  0.00    +0.000 NA
ENDBRANCH   6   7
BRANCH   4  13
ATOM     13  C   UNL     1      31.070  23.385  27.270  0.00  0.00    +0.000 C 
ATOM     14  C   UNL     1      30.727  24.340  28.406  0.00  0.00    +0.000 C 
ATOM     15  C   UNL     1      32.337  23.958  26.611  0.00  0.00    +0.000 C 
ATOM     16  C   UNL     1      31.377  22.068  27.887  0.00  0.00    +0.000 C 
ENDBRANCH   4  13
BRANCH   1  17
ATOM     17  O   UNL     1      26.978  23.176  23.370  0.00  0.00    +0.000 OA
BRANCH  17  19
ATOM     18  C   UNL     1      25.499  24.768  24.325  0.00  0.00    +0.000 C 
ATOM     19  C   UNL     1      25.629  23.356  23.750  0.00  0.00    +0.000 C 
ENDBRANCH  17  19
ENDBRANCH   1  17
TORSDOF 4
ENDMDL
MODEL 6
REMARK VINA RESULT:      -5.5      3.326      4.711
REMARK  Name = 
REMARK  4 active torsions:
REMARK  status: ('A' for Active; 'I' for Inactive)
REMARK    1  A    between atoms: C_2  and  O_3
REMARK    2  A    between atoms: O_3  and  C_4
REMARK    3  A    between atoms: C_7  and  C_8
REMARK    4  A    between atoms: C_13  and  C_14
REMARK                            x       y       z     vdW  Elec       q    Type
REMARK                         _______ _______ _______ _____ _____    ______ ____
ROOT
ATOM      1  C   UNL     1      29.908  22.726  26.066  0.00  0.00    +0.000 A 
ATOM      2  C   UNL     1      30.693  22.399  27.156  0.00  0.00    +0.000 A 
ATOM      3  C   UNL     1      30.129  22.440  28.435  0.00  0.00    +0.000 A 
ATOM      4  C   UNL     1      28.816  22.806  28.637  0.00  0.00    +0.000 A 
ATOM      5  C   UNL     1      28.044  23.132  27.545  0.00  0.00    +0.000 A 
ATOM      6  C   UNL     1      28.591  23.092  26.262  0.00  0.00    +0.000 A 
ENDROOT
BRANCH   6   7
ATOM      7  C   UNL     1      27.795  23.428  25.087  0.00  0.00    +0.000 A 
ATOM      8  C   UNL     1      26.926  22.637  24.384  0.00  0.00    +0.000 A 
ATOM      9  C   UNL     1      26.389  23.369  23.353  0.00  0.00    +0.000 A 
ATOM     10  N   UNL     1      25.449  22.930  22.377  0.00  0.00    +0.000 NA
ATOM     11  O   UNL     1      26.937  24.572  23.455  0.00  0.00    +0.000 OA
ATOM     12  N   UNL     1      27.753  24.613  24.458  0.00  0.00    +0.000 NA
ENDBRANCH   6   7
BRANCH   4  13
ATOM     13  C   UNL     1      28.232  22.861  29.993  0.00  0.00    +0.000 C 
ATOM     14  C   UNL     1      27.042  21.920  30.124  0.00  0.00    +0.000 C 
ATOM     15  C   UNL     1      27.680  24.273  30.256  0.00  0.00    +0.000 C 
ATOM     16  C   UNL     1      29.198  22.492  31.062  0.00  0.00    +0.000 C 
ENDBRANCH   4  13
BRANCH   1  17
ATOM     17  O   UNL     1      30.380  22.713  24.762  0.00  0.00    +0.000 OA
BRANCH  17  19
ATOM     18  C   UNL     1      31.421  24.842  24.623  0.00  0.00    +0.000 C 
ATOM     19  C   UNL     1      31.624  23.331  24.502  0.00  0.00    +0.000 C 
ENDBRANCH  17  19
ENDBRANCH   1  17
TORSDOF 4
ENDMDL
MODEL 7
REMARK VINA RESULT:      -5.5     18.955     20.978
REMARK  Name = 
REMARK  4 active torsions:
REMARK  status: ('A' for Active; 'I' for Inactive)
REMARK    1  A    between atoms: C_2  and  O_3
REMARK    2  A    between atoms: O_3  and  C_4
REMARK    3  A    between atoms: C_7  and  C_8
REMARK    4  A    between atoms: C_13  and  C_14
REMARK                            x       y       z     vdW  Elec       q    Type
REMARK                         _______ _______ _______ _____ _____    ______ ____
ROOT
ATOM      1  C   UNL     1      19.249   9.365  38.595  0.00  0.00    +0.000 A 
ATOM      2  C   UNL     1      20.287   9.219  39.496  0.00  0.00    +0.000 A 
ATOM      3  C   UNL     1      21.595   9.473  39.071  0.00  0.00    +0.000 A 
ATOM      4  C   UNL     1      21.875   9.855  37.776  0.00  0.00    +0.000 A 
ATOM      5  C   UNL     1      20.833   9.995  36.887  0.00  0.00    +0.000 A 
ATOM      6  C   UNL     1      19.523   9.750  37.297  0.00  0.00    +0.000 A 
ENDROOT
BRANCH   6   7
ATOM      7  C   UNL     1      18.400   9.894  36.378  0.00  0.00    +0.000 A 
ATOM      8  C   UNL     1      17.544  10.953  36.228  0.00  0.00    +0.000 A 
ATOM      9  C   UNL     1      16.640  10.659  35.237  0.00  0.00    +0.000 A 
ATOM     10  N   UNL     1      15.574  11.480  34.767  0.00  0.00    +0.000 NA
ATOM     11  O   UNL     1      16.966   9.446  34.813  0.00  0.00    +0.000 OA
ATOM     12  N   UNL     1      17.986   8.997  35.470  0.00  0.00    +0.000 NA
ENDBRANCH   6   7
BRANCH   4  13
ATOM     13  C   UNL     1      23.261  10.106  37.331  0.00  0.00    +0.000 C 
ATOM     14  C   UNL     1      23.344  10.231  35.816  0.00  0.00    +0.000 C 
ATOM     15  C   UNL     1      24.144   8.901  37.699  0.00  0.00    +0.000 C 
ATOM     16  C   UNL     1      23.844  11.349  37.902  0.00  0.00    +0.000 C 
ENDBRANCH   4  13
BRANCH   1  17
ATOM     17  O   UNL     1      17.921   9.136  38.927  0.00  0.00    +0.000 OA
BRANCH  17  19
ATOM     18  C   UNL     1      16.294   9.427  40.631  0.00  0.00    +0.000 C 
ATOM     19  C   UNL     1      17.625   8.771  40.259  0.00  0.00    +0.000 C 
ENDBRANCH  17  19
ENDBRANCH   1  17
TORSDOF 4
ENDMDL
MODEL 8
REMARK VINA RESULT:      -5.5      2.150      4.511
REMARK  Name = 
REMARK  4 active torsions:
REMARK  status: ('A' for Active; 'I' for Inactive)
REMARK    1  A    between atoms: C_2  and  O_3
REMARK    2  A    between atoms: O_3  and  C_4
REMARK    3  A    between atoms: C_7  and  C_8
REMARK    4  A    between atoms: C_13  and  C_14
REMARK                            x       y       z     vdW  Elec       q    Type
REMARK                         _______ _______ _______ _____ _____    ______ ____
ROOT
ATOM      1  C   UNL     1      24.965  25.203  26.578  0.00  0.00    +0.000 A 
ATOM      2  C   UNL     1      24.672  25.608  27.866  0.00  0.00    +0.000 A 
ATOM      3  C   UNL     1      25.325  24.989  28.937  0.00  0.00    +0.000 A 
ATOM      4  C   UNL     1      26.244  23.981  28.741  0.00  0.00    +0.000 A 
ATOM      5  C   UNL     1      26.526  23.584  27.454  0.00  0.00    +0.000 A 
ATOM      6  C   UNL     1      25.886  24.194  26.375  0.00  0.00    +0.000 A 
ENDROOT
BRANCH   6   7
ATOM      7  C   UNL     1      26.169  23.796  25.001  0.00  0.00    +0.000 A 
ATOM      8  C   UNL     1      27.282  24.051  24.244  0.00  0.00    +0.000 A 
ATOM      9  C   UNL     1      27.122  23.477  23.007  0.00  0.00    +0.000 A 
ATOM     10  N   UNL     1      28.037  23.507  21.915  0.00  0.00    +0.000 NA
ATOM     11  O   UNL     1      25.932  22.893  23.042  0.00  0.00    +0.000 OA
ATOM     12  N   UNL     1      25.374  23.074  24.194  0.00  0.00    +0.000 NA
ENDBRANCH   6   7
BRANCH   4  13
ATOM     13  C   UNL     1      26.918  23.322  29.879  0.00  0.00    +0.000 C 
ATOM     14  C   UNL     1      26.852  24.180  31.135  0.00  0.00    +0.000 C 
ATOM     15  C   UNL     1      28.416  23.160  29.563  0.00  0.00    +0.000 C 
ATOM     16  C   UNL     1      26.331  22.000  30.223  0.00  0.00    +0.000 C 
ENDBRANCH   4  13
BRANCH   1  17
ATOM     17  O   UNL     1      24.368  25.758  25.455  0.00  0.00    +0.000 OA
BRANCH  17  19
ATOM     18  C   UNL     1      22.219  26.752  25.286  0.00  0.00    +0.000 C 
ATOM     19  C   UNL     1      23.696  26.992  25.606  0.00  0.00    +0.000 C 
ENDBRANCH  17  19
ENDBRANCH   1  17
TORSDOF 4
ENDMDL
MODEL 9
REMARK VINA RESULT:      -5.4      5.028      7.075
REMARK  Name = 
REMARK  4 active torsions:
REMARK  status: ('A' for Active; 'I' for Inactive)
REMARK    1  A    between atoms: C_2  and  O_3
REMARK    2  A    between atoms: O_3  and  C_4
REMARK    3  A    between atoms: C_7  and  C_8
REMARK    4  A    between atoms: C_13  and  C_14
REMARK                            x       y       z     vdW  Elec       q    Type
REMARK                         _______ _______ _______ _____ _____    ______ ____
ROOT
ATOM      1  C   UNL     1      30.093  22.683  29.364  0.00  0.00    +0.000 A 
ATOM      2  C   UNL     1      31.254  22.457  28.648  0.00  0.00    +0.000 A 
ATOM      3  C   UNL     1      31.279  22.759  27.283  0.00  0.00    +0.000 A 
ATOM      4  C   UNL     1      30.174  23.267  26.632  0.00  0.00    +0.000 A 
ATOM      5  C   UNL     1      29.023  23.485  27.355  0.00  0.00    +0.000 A 
ATOM      6  C   UNL     1      28.984  23.193  28.718  0.00  0.00    +0.000 A 
ENDROOT
BRANCH   6   7
ATOM      7  C   UNL     1      27.780  23.418  29.508  0.00  0.00    +0.000 A 
ATOM      8  C   UNL     1      27.330  24.581  30.076  0.00  0.00    +0.000 A 
ATOM      9  C   UNL     1      26.145  24.333  30.724  0.00  0.00    +0.000 A 
ATOM     10  N   UNL     1      25.345  25.261  31.451  0.00  0.00    +0.000 NA
ATOM     11  O   UNL     1      25.905  23.043  30.535  0.00  0.00    +0.000 OA
ATOM     12  N   UNL     1      26.849  22.507  29.831  0.00  0.00    +0.000 NA
ENDBRANCH   6   7
BRANCH   4  13
ATOM     13  C   UNL     1      30.204  23.569  25.187  0.00  0.00    +0.000 C 
ATOM     14  C   UNL     1      29.062  22.880  24.451  0.00  0.00    +0.000 C 
ATOM     15  C   UNL     1      31.497  23.004  24.572  0.00  0.00    +0.000 C 
ATOM     16  C   UNL     1      30.100  25.022  24.888  0.00  0.00    +0.000 C 
ENDBRANCH   4  13
BRANCH   1  17
ATOM     17  O   UNL     1      29.976  22.415  30.720  0.00  0.00    +0.000 OA
BRANCH  17  19
ATOM     18  C   UNL     1      30.626  21.449  32.788  0.00  0.00    +0.000 C 
ATOM     19  C   UNL     1      31.078  21.821  31.375  0.00  0.00    +0.000 C 
ENDBRANCH  17  19
ENDBRANCH   1  17
TORSDOF 4
ENDMDL
MODEL 10
REMARK VINA RESULT:      -5.4      3.213      6.593
REMARK  Name = 
REMARK  4 active torsions:
REMARK  status: ('A' for Active; 'I' for Inactive)
REMARK    1  A    between atoms: C_2  and  O_3
REMARK    2  A    between atoms: O_3  and  C_4
REMARK    3  A    between atoms: C_7  and  C_8
REMARK    4  A    between atoms: C_13  and  C_14
REMARK                            x       y       z     vdW  Elec       q    Type
REMARK                         _______ _______ _______ _____ _____    ______ ____
ROOT
ATOM      1  C   UNL     1      27.874  23.026  25.383  0.00  0.00    +0.000 A 
ATOM      2  C   UNL     1      28.672  23.080  24.255  0.00  0.00    +0.000 A 
ATOM      3  C   UNL     1      29.990  23.531  24.377  0.00  0.00    +0.000 A 
ATOM      4  C   UNL     1      30.510  23.931  25.589  0.00  0.00    +0.000 A 
ATOM      5  C   UNL     1      29.706  23.876  26.704  0.00  0.00    +0.000 A 
ATOM      6  C   UNL     1      28.391  23.424  26.600  0.00  0.00    +0.000 A 
ENDROOT
BRANCH   6   7
ATOM      7  C   UNL     1      27.518  23.351  27.766  0.00  0.00    +0.000 A 
ATOM      8  C   UNL     1      27.395  22.343  28.685  0.00  0.00    +0.000 A 
ATOM      9  C   UNL     1      26.459  22.704  29.622  0.00  0.00    +0.000 A 
ATOM     10  N   UNL     1      26.021  21.944  30.745  0.00  0.00    +0.000 NA
ATOM     11  O   UNL     1      26.042  23.908  29.256  0.00  0.00    +0.000 OA
ATOM     12  N   UNL     1      26.652  24.289  28.181  0.00  0.00    +0.000 NA
ENDBRANCH   6   7
BRANCH   4  13
ATOM     13  C   UNL     1      31.899  24.420  25.706  0.00  0.00    +0.000 C 
ATOM     14  C   UNL     1      32.500  24.069  27.060  0.00  0.00    +0.000 C 
ATOM     15  C   UNL     1      31.909  25.957  25.631  0.00  0.00    +0.000 C 
ATOM     16  C   UNL     1      32.807  23.862  24.670  0.00  0.00    +0.000 C 
ENDBRANCH   4  13
BRANCH   1  17
ATOM     17  O   UNL     1      26.557  22.593  25.359  0.00  0.00    +0.000 OA
BRANCH  17  19
ATOM     18  C   UNL     1      25.400  24.567  24.727  0.00  0.00    +0.000 C 
ATOM     19  C   UNL     1      25.707  23.114  24.358  0.00  0.00    +0.000 C 
ENDBRANCH  17  19
ENDBRANCH   1  17
TORSDOF 4
ENDMDL
