MODEL 1
REMARK VINA RESULT:      -8.1      0.000      0.000
REMARK  Name = 
REMARK  8 active torsions:
REMARK  status: ('A' for Active; 'I' for Inactive)
REMARK    1  A    between atoms: C_2  and  C_17
REMARK    2  A    between atoms: N_3  and  C_4
REMARK    3  A    between atoms: C_4  and  C_5
REMARK    4  A    between atoms: C_5  and  O_6
REMARK    5  A    between atoms: O_6  and  C_7
REMARK    6  A    between atoms: C_22  and  S_23
REMARK    7  A    between atoms: S_23  and  C_24
REMARK    8  A    between atoms: C_24  and  C_25
REMARK                            x       y       z     vdW  Elec       q    Type
REMARK                         _______ _______ _______ _____ _____    ______ ____
ROOT
ATOM      1  O   UNL     1      34.935  -0.233  16.850  0.00  0.00    +0.000 OA
ATOM      2  C   UNL     1      36.204  -0.134  16.870  0.00  0.00    +0.000 C 
ATOM      3  N   UNL     1      36.741   1.109  16.428  0.00  0.00    +0.000 NA
ENDROOT
BRANCH   2   4
ATOM      4  C   UNL     1      37.055  -1.236  17.320  0.00  0.00    +0.000 A 
ATOM      5  C   UNL     1      37.486  -1.356  18.616  0.00  0.00    +0.000 A 
ATOM      6  C   UNL     1      38.294  -2.412  19.015  0.00  0.00    +0.000 A 
ATOM      7  C   UNL     1      38.658  -3.350  18.077  0.00  0.00    +0.000 A 
ATOM      8  C   UNL     1      38.225  -3.228  16.789  0.00  0.00    +0.000 A 
ATOM      9  C   UNL     1      37.424  -2.178  16.392  0.00  0.00    +0.000 A 
BRANCH   9  10
ATOM     10  S   UNL     1      36.859  -2.022  14.703  0.00  0.00    +0.000 S 
BRANCH  10  11
ATOM     11  C   UNL     1      37.956  -1.005  13.715  0.00  0.00    +0.000 C 
BRANCH  11  12
ATOM     12  C   UNL     1      39.375  -1.397  13.831  0.00  0.00    +0.000 A 
ATOM     13  C   UNL     1      39.849  -2.635  13.464  0.00  0.00    +0.000 A 
ATOM     14  C   UNL     1      41.197  -2.898  13.615  0.00  0.00    +0.000 A 
ATOM     15  C   UNL     1      42.089  -1.986  14.112  0.00  0.00    +0.000 A 
ATOM     16  C   UNL     1      41.604  -0.744  14.477  0.00  0.00    +0.000 A 
ATOM     17  C   UNL     1      40.264  -0.469  14.333  0.00  0.00    +0.000 A 
ENDBRANCH  11  12
ENDBRANCH  10  11
ENDBRANCH   9  10
ENDBRANCH   2   4
BRANCH   3  18
ATOM     18  C   UNL     1      35.839   2.183  15.985  0.00  0.00    +0.000 C 
BRANCH  18  19
ATOM     19  C   UNL     1      36.617   3.477  15.975  0.00  0.00    +0.000 C 
BRANCH  19  20
ATOM     20  O   UNL     1      37.456   3.503  17.111  0.00  0.00    +0.000 OA
BRANCH  20  21
ATOM     21  C   UNL     1      38.496   4.421  17.195  0.00  0.00    +0.000 A 
ATOM     22  C   UNL     1      39.222   4.874  16.120  0.00  0.00    +0.000 A 
ATOM     23  C   UNL     1      40.255   5.797  16.269  0.00  0.00    +0.000 A 
ATOM     24  C   UNL     1      40.594   6.295  17.508  0.00  0.00    +0.000 A 
ATOM     25  C   UNL     1      39.870   5.844  18.593  0.00  0.00    +0.000 A 
ATOM     26  C   UNL     1      38.846   4.932  18.451  0.00  0.00    +0.000 A 
ATOM     27  C   UNL     1      40.253   6.395  19.927  0.00  0.00    +0.000 C 
ATOM     28  C   UNL     1      40.488   7.876  19.872  0.00  0.00    +0.000 C 
ATOM     29  C   UNL     1      41.108   8.368  18.608  0.00  0.00    +0.000 C 
ATOM     30  C   UNL     1      41.684   7.281  17.731  0.00  0.00    +0.000 C 
ENDBRANCH  20  21
ENDBRANCH  19  20
ENDBRANCH  18  19
ENDBRANCH   3  18
TORSDOF 8
ENDMDL
MODEL 2
REMARK VINA RESULT:      -8.0     23.585     26.523
REMARK  Name = 
REMARK  8 active torsions:
REMARK  status: ('A' for Active; 'I' for Inactive)
REMARK    1  A    between atoms: C_2  and  C_17
REMARK    2  A    between atoms: N_3  and  C_4
REMARK    3  A    between atoms: C_4  and  C_5
REMARK    4  A    between atoms: C_5  and  O_6
REMARK    5  A    between atoms: O_6  and  C_7
REMARK    6  A    between atoms: C_22  and  S_23
REMARK    7  A    between atoms: S_23  and  C_24
REMARK    8  A    between atoms: C_24  and  C_25
REMARK                            x       y       z     vdW  Elec       q    Type
REMARK                         _______ _______ _______ _____ _____    ______ ____
ROOT
ATOM      1  O   UNL     1      13.576   1.566  27.484  0.00  0.00    +0.000 OA
ATOM      2  C   UNL     1      14.115   0.513  27.954  0.00  0.00    +0.000 C 
ATOM      3  N   UNL     1      15.474   0.291  27.592  0.00  0.00    +0.000 NA
ENDROOT
BRANCH   2   4
ATOM      4  C   UNL     1      13.375  -0.412  28.814  0.00  0.00    +0.000 A 
ATOM      5  C   UNL     1      13.382  -0.317  30.182  0.00  0.00    +0.000 A 
ATOM      6  C   UNL     1      12.672  -1.209  30.973  0.00  0.00    +0.000 A 
ATOM      7  C   UNL     1      11.948  -2.202  30.353  0.00  0.00    +0.000 A 
ATOM      8  C   UNL     1      11.941  -2.292  28.992  0.00  0.00    +0.000 A 
ATOM      9  C   UNL     1      12.649  -1.406  28.206  0.00  0.00    +0.000 A 
BRANCH   9  10
ATOM     10  S   UNL     1      12.637  -1.527  26.422  0.00  0.00    +0.000 S 
BRANCH  10  11
ATOM     11  C   UNL     1      10.999  -1.875  25.780  0.00  0.00    +0.000 C 
BRANCH  11  12
ATOM     12  C   UNL     1      10.219  -0.656  25.489  0.00  0.00    +0.000 A 
ATOM     13  C   UNL     1       9.057  -0.660  24.753  0.00  0.00    +0.000 A 
ATOM     14  C   UNL     1       8.404   0.539  24.540  0.00  0.00    +0.000 A 
ATOM     15  C   UNL     1       8.857   1.737  25.025  0.00  0.00    +0.000 A 
ATOM     16  C   UNL     1      10.025   1.732  25.765  0.00  0.00    +0.000 A 
ATOM     17  C   UNL     1      10.685   0.545  25.984  0.00  0.00    +0.000 A 
ENDBRANCH  11  12
ENDBRANCH  10  11
ENDBRANCH   9  10
ENDBRANCH   2   4
BRANCH   3  18
ATOM     18  C   UNL     1      16.169   1.253  26.724  0.00  0.00    +0.000 C 
BRANCH  18  19
ATOM     19  C   UNL     1      17.654   1.119  26.966  0.00  0.00    +0.000 C 
BRANCH  19  20
ATOM     20  O   UNL     1      18.018  -0.232  26.772  0.00  0.00    +0.000 OA
BRANCH  20  21
ATOM     21  C   UNL     1      18.687  -0.621  25.618  0.00  0.00    +0.000 A 
ATOM     22  C   UNL     1      18.867  -1.926  25.228  0.00  0.00    +0.000 A 
ATOM     23  C   UNL     1      19.548  -2.255  24.057  0.00  0.00    +0.000 A 
ATOM     24  C   UNL     1      20.072  -1.278  23.239  0.00  0.00    +0.000 A 
ATOM     25  C   UNL     1      19.896   0.035  23.624  0.00  0.00    +0.000 A 
ATOM     26  C   UNL     1      19.223   0.365  24.781  0.00  0.00    +0.000 A 
ATOM     27  C   UNL     1      20.472   1.079  22.726  0.00  0.00    +0.000 C 
ATOM     28  C   UNL     1      20.197   0.782  21.280  0.00  0.00    +0.000 C 
ATOM     29  C   UNL     1      20.213  -0.664  20.920  0.00  0.00    +0.000 C 
ATOM     30  C   UNL     1      20.807  -1.564  21.978  0.00  0.00    +0.000 C 
ENDBRANCH  20  21
ENDBRANCH  19  20
ENDBRANCH  18  19
ENDBRANCH   3  18
TORSDOF 8
ENDMDL
MODEL 3
REMARK VINA RESULT:      -7.8      1.877      3.361
REMARK  Name = 
REMARK  8 active torsions:
REMARK  status: ('A' for Active; 'I' for Inactive)
REMARK    1  A    between atoms: C_2  and  C_17
REMARK    2  A    between atoms: N_3  and  C_4
REMARK    3  A    between atoms: C_4  and  C_5
REMARK    4  A    between atoms: C_5  and  O_6
REMARK    5  A    between atoms: O_6  and  C_7
REMARK    6  A    between atoms: C_22  and  S_23
REMARK    7  A    between atoms: S_23  and  C_24
REMARK    8  A    between atoms: C_24  and  C_25
REMARK                            x       y       z     vdW  Elec       q    Type
REMARK                         _______ _______ _______ _____ _____    ______ ____
ROOT
ATOM      1  O   UNL     1      36.513   0.401  13.931  0.00  0.00    +0.000 OA
ATOM      2  C   UNL     1      36.667   0.892  15.095  0.00  0.00    +0.000 C 
ATOM      3  N   UNL     1      37.112   2.244  15.150  0.00  0.00    +0.000 NA
ENDROOT
BRANCH   2   4
ATOM      4  C   UNL     1      36.401   0.108  16.302  0.00  0.00    +0.000 A 
ATOM      5  C   UNL     1      35.288   0.299  17.078  0.00  0.00    +0.000 A 
ATOM      6  C   UNL     1      35.062  -0.459  18.219  0.00  0.00    +0.000 A 
ATOM      7  C   UNL     1      35.985  -1.420  18.560  0.00  0.00    +0.000 A 
ATOM      8  C   UNL     1      37.091  -1.609  17.784  0.00  0.00    +0.000 A 
ATOM      9  C   UNL     1      37.316  -0.854  16.652  0.00  0.00    +0.000 A 
BRANCH   9  10
ATOM     10  S   UNL     1      38.766  -1.105  15.637  0.00  0.00    +0.000 S 
BRANCH  10  11
ATOM     11  C   UNL     1      38.683  -2.637  14.708  0.00  0.00    +0.000 C 
BRANCH  11  12
ATOM     12  C   UNL     1      37.516  -3.468  15.062  0.00  0.00    +0.000 A 
ATOM     13  C   UNL     1      37.549  -4.447  16.028  0.00  0.00    +0.000 A 
ATOM     14  C   UNL     1      36.398  -5.168  16.280  0.00  0.00    +0.000 A 
ATOM     15  C   UNL     1      35.219  -4.957  15.614  0.00  0.00    +0.000 A 
ATOM     16  C   UNL     1      35.194  -3.971  14.646  0.00  0.00    +0.000 A 
ATOM     17  C   UNL     1      36.334  -3.246  14.384  0.00  0.00    +0.000 A 
ENDBRANCH  11  12
ENDBRANCH  10  11
ENDBRANCH   9  10
ENDBRANCH   2   4
BRANCH   3  18
ATOM     18  C   UNL     1      37.364   2.985  13.906  0.00  0.00    +0.000 C 
BRANCH  18  19
ATOM     19  C   UNL     1      37.743   4.401  14.269  0.00  0.00    +0.000 C 
BRANCH  19  20
ATOM     20  O   UNL     1      39.048   4.390  14.809  0.00  0.00    +0.000 OA
BRANCH  20  21
ATOM     21  C   UNL     1      39.282   4.875  16.090  0.00  0.00    +0.000 A 
ATOM     22  C   UNL     1      38.523   4.560  17.191  0.00  0.00    +0.000 A 
ATOM     23  C   UNL     1      38.809   5.080  18.452  0.00  0.00    +0.000 A 
ATOM     24  C   UNL     1      39.871   5.935  18.647  0.00  0.00    +0.000 A 
ATOM     25  C   UNL     1      40.639   6.256  17.546  0.00  0.00    +0.000 A 
ATOM     26  C   UNL     1      40.360   5.744  16.297  0.00  0.00    +0.000 A 
ATOM     27  C   UNL     1      41.784   7.184  17.777  0.00  0.00    +0.000 C 
ATOM     28  C   UNL     1      42.547   6.830  19.021  0.00  0.00    +0.000 C 
ATOM     29  C   UNL     1      41.714   6.310  20.143  0.00  0.00    +0.000 C 
ATOM     30  C   UNL     1      40.228   6.520  19.967  0.00  0.00    +0.000 C 
ENDBRANCH  20  21
ENDBRANCH  19  20
ENDBRANCH  18  19
ENDBRANCH   3  18
TORSDOF 8
ENDMDL
MODEL 4
REMARK VINA RESULT:      -7.7      1.667      3.309
REMARK  Name = 
REMARK  8 active torsions:
REMARK  status: ('A' for Active; 'I' for Inactive)
REMARK    1  A    between atoms: C_2  and  C_17
REMARK    2  A    between atoms: N_3  and  C_4
REMARK    3  A    between atoms: C_4  and  C_5
REMARK    4  A    between atoms: C_5  and  O_6
REMARK    5  A    between atoms: O_6  and  C_7
REMARK    6  A    between atoms: C_22  and  S_23
REMARK    7  A    between atoms: S_23  and  C_24
REMARK    8  A    between atoms: C_24  and  C_25
REMARK                            x       y       z     vdW  Elec       q    Type
REMARK                         _______ _______ _______ _____ _____    ______ ____
ROOT
ATOM      1  O   UNL     1      35.460   1.945  14.630  0.00  0.00    +0.000 OA
ATOM      2  C   UNL     1      35.893   1.370  15.680  0.00  0.00    +0.000 C 
ATOM      3  N   UNL     1      36.891   2.075  16.412  0.00  0.00    +0.000 NA
ENDROOT
BRANCH   2   4
ATOM      4  C   UNL     1      35.392   0.062  16.104  0.00  0.00    +0.000 A 
ATOM      5  C   UNL     1      34.438  -0.085  17.077  0.00  0.00    +0.000 A 
ATOM      6  C   UNL     1      33.981  -1.338  17.460  0.00  0.00    +0.000 A 
ATOM      7  C   UNL     1      34.508  -2.446  16.837  0.00  0.00    +0.000 A 
ATOM      8  C   UNL     1      35.456  -2.296  15.867  0.00  0.00    +0.000 A 
ATOM      9  C   UNL     1      35.910  -1.050  15.488  0.00  0.00    +0.000 A 
BRANCH   9  10
ATOM     10  S   UNL     1      37.152  -0.858  14.216  0.00  0.00    +0.000 S 
BRANCH  10  11
ATOM     11  C   UNL     1      38.687  -1.679  14.642  0.00  0.00    +0.000 C 
BRANCH  11  12
ATOM     12  C   UNL     1      38.643  -2.349  15.958  0.00  0.00    +0.000 A 
ATOM     13  C   UNL     1      38.570  -1.668  17.151  0.00  0.00    +0.000 A 
ATOM     14  C   UNL     1      38.533  -2.394  18.326  0.00  0.00    +0.000 A 
ATOM     15  C   UNL     1      38.565  -3.763  18.364  0.00  0.00    +0.000 A 
ATOM     16  C   UNL     1      38.637  -4.439  17.161  0.00  0.00    +0.000 A 
ATOM     17  C   UNL     1      38.674  -3.729  15.983  0.00  0.00    +0.000 A 
ENDBRANCH  11  12
ENDBRANCH  10  11
ENDBRANCH   9  10
ENDBRANCH   2   4
BRANCH   3  18
ATOM     18  C   UNL     1      37.359   3.386  15.939  0.00  0.00    +0.000 C 
BRANCH  18  19
ATOM     19  C   UNL     1      37.861   4.165  17.132  0.00  0.00    +0.000 C 
BRANCH  19  20
ATOM     20  O   UNL     1      39.000   4.901  16.738  0.00  0.00    +0.000 OA
BRANCH  20  21
ATOM     21  C   UNL     1      39.786   5.542  17.688  0.00  0.00    +0.000 A 
ATOM     22  C   UNL     1      39.416   5.741  18.997  0.00  0.00    +0.000 A 
ATOM     23  C   UNL     1      40.249   6.392  19.904  0.00  0.00    +0.000 A 
ATOM     24  C   UNL     1      41.485   6.867  19.523  0.00  0.00    +0.000 A 
ATOM     25  C   UNL     1      41.864   6.672  18.210  0.00  0.00    +0.000 A 
ATOM     26  C   UNL     1      41.043   6.028  17.309  0.00  0.00    +0.000 A 
ATOM     27  C   UNL     1      43.206   7.195  17.817  0.00  0.00    +0.000 C 
ATOM     28  C   UNL     1      44.250   6.881  18.848  0.00  0.00    +0.000 C 
ATOM     29  C   UNL     1      43.772   6.920  20.260  0.00  0.00    +0.000 C 
ATOM     30  C   UNL     1      42.420   7.568  20.444  0.00  0.00    +0.000 C 
ENDBRANCH  20  21
ENDBRANCH  19  20
ENDBRANCH  18  19
ENDBRANCH   3  18
TORSDOF 8
ENDMDL
MODEL 5
REMARK VINA RESULT:      -7.7      1.476      3.433
REMARK  Name = 
REMARK  8 active torsions:
REMARK  status: ('A' for Active; 'I' for Inactive)
REMARK    1  A    between atoms: C_2  and  C_17
REMARK    2  A    between atoms: N_3  and  C_4
REMARK    3  A    between atoms: C_4  and  C_5
REMARK    4  A    between atoms: C_5  and  O_6
REMARK    5  A    between atoms: O_6  and  C_7
REMARK    6  A    between atoms: C_22  and  S_23
REMARK    7  A    between atoms: S_23  and  C_24
REMARK    8  A    between atoms: C_24  and  C_25
REMARK                            x       y       z     vdW  Elec       q    Type
REMARK                         _______ _______ _______ _____ _____    ______ ____
ROOT
ATOM      1  O   UNL     1      38.049   1.323  13.067  0.00  0.00    +0.000 OA
ATOM      2  C   UNL     1      38.365   0.770  14.169  0.00  0.00    +0.000 C 
ATOM      3  N   UNL     1      37.682   1.244  15.325  0.00  0.00    +0.000 NA
ENDROOT
BRANCH   2   4
ATOM      4  C   UNL     1      39.373  -0.289  14.236  0.00  0.00    +0.000 A 
ATOM      5  C   UNL     1      40.701  -0.032  14.457  0.00  0.00    +0.000 A 
ATOM      6  C   UNL     1      41.636  -1.056  14.515  0.00  0.00    +0.000 A 
ATOM      7  C   UNL     1      41.201  -2.351  14.347  0.00  0.00    +0.000 A 
ATOM      8  C   UNL     1      39.879  -2.602  14.130  0.00  0.00    +0.000 A 
ATOM      9  C   UNL     1      38.950  -1.584  14.070  0.00  0.00    +0.000 A 
BRANCH   9  10
ATOM     10  S   UNL     1      37.217  -1.918  13.785  0.00  0.00    +0.000 S 
BRANCH  10  11
ATOM     11  C   UNL     1      36.320  -2.183  15.315  0.00  0.00    +0.000 C 
BRANCH  11  12
ATOM     12  C   UNL     1      37.164  -2.730  16.396  0.00  0.00    +0.000 A 
ATOM     13  C   UNL     1      37.703  -1.959  17.399  0.00  0.00    +0.000 A 
ATOM     14  C   UNL     1      38.479  -2.574  18.363  0.00  0.00    +0.000 A 
ATOM     15  C   UNL     1      38.740  -3.919  18.370  0.00  0.00    +0.000 A 
ATOM     16  C   UNL     1      38.194  -4.687  17.360  0.00  0.00    +0.000 A 
ATOM     17  C   UNL     1      37.419  -4.087  16.394  0.00  0.00    +0.000 A 
ENDBRANCH  11  12
ENDBRANCH  10  11
ENDBRANCH   9  10
ENDBRANCH   2   4
BRANCH   3  18
ATOM     18  C   UNL     1      36.679   2.312  15.199  0.00  0.00    +0.000 C 
BRANCH  18  19
ATOM     19  C   UNL     1      36.518   2.969  16.549  0.00  0.00    +0.000 C 
BRANCH  19  20
ATOM     20  O   UNL     1      37.801   3.283  17.049  0.00  0.00    +0.000 OA
BRANCH  20  21
ATOM     21  C   UNL     1      38.170   4.607  17.260  0.00  0.00    +0.000 A 
ATOM     22  C   UNL     1      37.913   5.634  16.383  0.00  0.00    +0.000 A 
ATOM     23  C   UNL     1      38.308   6.943  16.652  0.00  0.00    +0.000 A 
ATOM     24  C   UNL     1      38.976   7.262  17.814  0.00  0.00    +0.000 A 
ATOM     25  C   UNL     1      39.238   6.236  18.699  0.00  0.00    +0.000 A 
ATOM     26  C   UNL     1      38.848   4.940  18.438  0.00  0.00    +0.000 A 
ATOM     27  C   UNL     1      39.963   6.602  19.951  0.00  0.00    +0.000 C 
ATOM     28  C   UNL     1      39.423   7.864  20.559  0.00  0.00    +0.000 C 
ATOM     29  C   UNL     1      38.975   8.893  19.578  0.00  0.00    +0.000 C 
ATOM     30  C   UNL     1      39.422   8.639  18.157  0.00  0.00    +0.000 C 
ENDBRANCH  20  21
ENDBRANCH  19  20
ENDBRANCH  18  19
ENDBRANCH   3  18
TORSDOF 8
ENDMDL
MODEL 6
REMARK VINA RESULT:      -7.7      1.829      2.707
REMARK  Name = 
REMARK  8 active torsions:
REMARK  status: ('A' for Active; 'I' for Inactive)
REMARK    1  A    between atoms: C_2  and  C_17
REMARK    2  A    between atoms: N_3  and  C_4
REMARK    3  A    between atoms: C_4  and  C_5
REMARK    4  A    between atoms: C_5  and  O_6
REMARK    5  A    between atoms: O_6  and  C_7
REMARK    6  A    between atoms: C_22  and  S_23
REMARK    7  A    between atoms: S_23  and  C_24
REMARK    8  A    between atoms: C_24  and  C_25
REMARK                            x       y       z     vdW  Elec       q    Type
REMARK                         _______ _______ _______ _____ _____    ______ ____
ROOT
ATOM      1  O   UNL     1      35.168   2.246  15.032  0.00  0.00    +0.000 OA
ATOM      2  C   UNL     1      35.864   1.535  15.826  0.00  0.00    +0.000 C 
ATOM      3  N   UNL     1      36.966   2.187  16.448  0.00  0.00    +0.000 NA
ENDROOT
BRANCH   2   4
ATOM      4  C   UNL     1      35.546   0.129  16.078  0.00  0.00    +0.000 A 
ATOM      5  C   UNL     1      34.704  -0.270  17.084  0.00  0.00    +0.000 A 
ATOM      6  C   UNL     1      34.420  -1.611  17.301  0.00  0.00    +0.000 A 
ATOM      7  C   UNL     1      35.004  -2.546  16.477  0.00  0.00    +0.000 A 
ATOM      8  C   UNL     1      35.840  -2.146  15.476  0.00  0.00    +0.000 A 
ATOM      9  C   UNL     1      36.123  -0.813  15.262  0.00  0.00    +0.000 A 
BRANCH   9  10
ATOM     10  S   UNL     1      37.218  -0.292  13.949  0.00  0.00    +0.000 S 
BRANCH  10  11
ATOM     11  C   UNL     1      37.977  -1.683  13.111  0.00  0.00    +0.000 C 
BRANCH  11  12
ATOM     12  C   UNL     1      39.410  -1.843  13.430  0.00  0.00    +0.000 A 
ATOM     13  C   UNL     1      40.086  -1.022  14.303  0.00  0.00    +0.000 A 
ATOM     14  C   UNL     1      41.428  -1.261  14.530  0.00  0.00    +0.000 A 
ATOM     15  C   UNL     1      42.122  -2.277  13.929  0.00  0.00    +0.000 A 
ATOM     16  C   UNL     1      41.435  -3.098  13.055  0.00  0.00    +0.000 A 
ATOM     17  C   UNL     1      40.099  -2.871  12.819  0.00  0.00    +0.000 A 
ENDBRANCH  11  12
ENDBRANCH  10  11
ENDBRANCH   9  10
ENDBRANCH   2   4
BRANCH   3  18
ATOM     18  C   UNL     1      37.241   3.602  16.157  0.00  0.00    +0.000 C 
BRANCH  18  19
ATOM     19  C   UNL     1      37.909   4.211  17.366  0.00  0.00    +0.000 C 
BRANCH  19  20
ATOM     20  O   UNL     1      38.950   5.057  16.924  0.00  0.00    +0.000 OA
BRANCH  20  21
ATOM     21  C   UNL     1      39.789   5.679  17.841  0.00  0.00    +0.000 A 
ATOM     22  C   UNL     1      39.464   5.915  19.155  0.00  0.00    +0.000 A 
ATOM     23  C   UNL     1      40.350   6.544  20.028  0.00  0.00    +0.000 A 
ATOM     24  C   UNL     1      41.595   6.957  19.606  0.00  0.00    +0.000 A 
ATOM     25  C   UNL     1      41.928   6.724  18.287  0.00  0.00    +0.000 A 
ATOM     26  C   UNL     1      41.056   6.101  17.420  0.00  0.00    +0.000 A 
ATOM     27  C   UNL     1      43.280   7.179  17.849  0.00  0.00    +0.000 C 
ATOM     28  C   UNL     1      44.338   6.837  18.857  0.00  0.00    +0.000 C 
ATOM     29  C   UNL     1      43.901   6.921  20.280  0.00  0.00    +0.000 C 
ATOM     30  C   UNL     1      42.584   7.632  20.488  0.00  0.00    +0.000 C 
ENDBRANCH  20  21
ENDBRANCH  19  20
ENDBRANCH  18  19
ENDBRANCH   3  18
TORSDOF 8
ENDMDL
MODEL 7
REMARK VINA RESULT:      -7.6      1.875      3.211
REMARK  Name = 
REMARK  8 active torsions:
REMARK  status: ('A' for Active; 'I' for Inactive)
REMARK    1  A    between atoms: C_2  and  C_17
REMARK    2  A    between atoms: N_3  and  C_4
REMARK    3  A    between atoms: C_4  and  C_5
REMARK    4  A    between atoms: C_5  and  O_6
REMARK    5  A    between atoms: O_6  and  C_7
REMARK    6  A    between atoms: C_22  and  S_23
REMARK    7  A    between atoms: S_23  and  C_24
REMARK    8  A    between atoms: C_24  and  C_25
REMARK                            x       y       z     vdW  Elec       q    Type
REMARK                         _______ _______ _______ _____ _____    ______ ____
ROOT
ATOM      1  O   UNL     1      36.699   1.583  17.701  0.00  0.00    +0.000 OA
ATOM      2  C   UNL     1      35.940   1.246  16.736  0.00  0.00    +0.000 C 
ATOM      3  N   UNL     1      35.654   2.262  15.780  0.00  0.00    +0.000 NA
ENDROOT
BRANCH   2   4
ATOM      4  C   UNL     1      35.397  -0.108  16.623  0.00  0.00    +0.000 A 
ATOM      5  C   UNL     1      34.313  -0.533  17.348  0.00  0.00    +0.000 A 
ATOM      6  C   UNL     1      33.819  -1.824  17.222  0.00  0.00    +0.000 A 
ATOM      7  C   UNL     1      34.441  -2.681  16.343  0.00  0.00    +0.000 A 
ATOM      8  C   UNL     1      35.517  -2.254  15.621  0.00  0.00    +0.000 A 
ATOM      9  C   UNL     1      36.009  -0.971  15.748  0.00  0.00    +0.000 A 
BRANCH   9  10
ATOM     10  S   UNL     1      37.419  -0.416  14.801  0.00  0.00    +0.000 S 
BRANCH  10  11
ATOM     11  C   UNL     1      38.969  -0.989  15.497  0.00  0.00    +0.000 C 
BRANCH  11  12
ATOM     12  C   UNL     1      38.792  -2.030  16.530  0.00  0.00    +0.000 A 
ATOM     13  C   UNL     1      38.492  -1.750  17.842  0.00  0.00    +0.000 A 
ATOM     14  C   UNL     1      38.348  -2.801  18.727  0.00  0.00    +0.000 A 
ATOM     15  C   UNL     1      38.489  -4.114  18.363  0.00  0.00    +0.000 A 
ATOM     16  C   UNL     1      38.790  -4.386  17.042  0.00  0.00    +0.000 A 
ATOM     17  C   UNL     1      38.937  -3.349  16.150  0.00  0.00    +0.000 A 
ENDBRANCH  11  12
ENDBRANCH  10  11
ENDBRANCH   9  10
ENDBRANCH   2   4
BRANCH   3  18
ATOM     18  C   UNL     1      36.227   3.606  15.944  0.00  0.00    +0.000 C 
BRANCH  18  19
ATOM     19  C   UNL     1      37.564   3.638  15.242  0.00  0.00    +0.000 C 
BRANCH  19  20
ATOM     20  O   UNL     1      38.084   4.948  15.329  0.00  0.00    +0.000 OA
BRANCH  20  21
ATOM     21  C   UNL     1      38.409   5.495  16.565  0.00  0.00    +0.000 A 
ATOM     22  C   UNL     1      39.224   4.890  17.492  0.00  0.00    +0.000 A 
ATOM     23  C   UNL     1      39.514   5.490  18.716  0.00  0.00    +0.000 A 
ATOM     24  C   UNL     1      38.992   6.721  19.048  0.00  0.00    +0.000 A 
ATOM     25  C   UNL     1      38.173   7.335  18.122  0.00  0.00    +0.000 A 
ATOM     26  C   UNL     1      37.884   6.745  16.910  0.00  0.00    +0.000 A 
ATOM     27  C   UNL     1      37.617   8.667  18.501  0.00  0.00    +0.000 C 
ATOM     28  C   UNL     1      38.657   9.546  19.133  0.00  0.00    +0.000 C 
ATOM     29  C   UNL     1      39.648   8.832  19.989  0.00  0.00    +0.000 C 
ATOM     30  C   UNL     1      39.265   7.413  20.336  0.00  0.00    +0.000 C 
ENDBRANCH  20  21
ENDBRANCH  19  20
ENDBRANCH  18  19
ENDBRANCH   3  18
TORSDOF 8
ENDMDL
MODEL 8
REMARK VINA RESULT:      -7.4      2.397      3.920
REMARK  Name = 
REMARK  8 active torsions:
REMARK  status: ('A' for Active; 'I' for Inactive)
REMARK    1  A    between atoms: C_2  and  C_17
REMARK    2  A    between atoms: N_3  and  C_4
REMARK    3  A    between atoms: C_4  and  C_5
REMARK    4  A    between atoms: C_5  and  O_6
REMARK    5  A    between atoms: O_6  and  C_7
REMARK    6  A    between atoms: C_22  and  S_23
REMARK    7  A    between atoms: S_23  and  C_24
REMARK    8  A    between atoms: C_24  and  C_25
REMARK                            x       y       z     vdW  Elec       q    Type
REMARK                         _______ _______ _______ _____ _____    ______ ____
ROOT
ATOM      1  O   UNL     1      37.599   2.655  12.968  0.00  0.00    +0.000 OA
ATOM      2  C   UNL     1      37.740   2.695  14.232  0.00  0.00    +0.000 C 
ATOM      3  N   UNL     1      38.888   3.388  14.712  0.00  0.00    +0.000 NA
ENDROOT
BRANCH   2   4
ATOM      4  C   UNL     1      36.776   2.063  15.134  0.00  0.00    +0.000 A 
ATOM      5  C   UNL     1      35.707   2.738  15.665  0.00  0.00    +0.000 A 
ATOM      6  C   UNL     1      34.809   2.114  16.519  0.00  0.00    +0.000 A 
ATOM      7  C   UNL     1      35.010   0.788  16.825  0.00  0.00    +0.000 A 
ATOM      8  C   UNL     1      36.073   0.119  16.293  0.00  0.00    +0.000 A 
ATOM      9  C   UNL     1      36.966   0.740  15.446  0.00  0.00    +0.000 A 
BRANCH   9  10
ATOM     10  S   UNL     1      38.358  -0.140  14.750  0.00  0.00    +0.000 S 
BRANCH  10  11
ATOM     11  C   UNL     1      37.850  -1.610  13.858  0.00  0.00    +0.000 C 
BRANCH  11  12
ATOM     12  C   UNL     1      37.557  -2.756  14.743  0.00  0.00    +0.000 A 
ATOM     13  C   UNL     1      36.677  -3.760  14.415  0.00  0.00    +0.000 A 
ATOM     14  C   UNL     1      36.478  -4.787  15.318  0.00  0.00    +0.000 A 
ATOM     15  C   UNL     1      37.114  -4.856  16.528  0.00  0.00    +0.000 A 
ATOM     16  C   UNL     1      37.998  -3.843  16.850  0.00  0.00    +0.000 A 
ATOM     17  C   UNL     1      38.206  -2.814  15.960  0.00  0.00    +0.000 A 
ENDBRANCH  11  12
ENDBRANCH  10  11
ENDBRANCH   9  10
ENDBRANCH   2   4
BRANCH   3  18
ATOM     18  C   UNL     1      39.825   4.004  13.761  0.00  0.00    +0.000 C 
BRANCH  18  19
ATOM     19  C   UNL     1      39.730   5.503  13.910  0.00  0.00    +0.000 C 
BRANCH  19  20
ATOM     20  O   UNL     1      40.995   5.995  14.303  0.00  0.00    +0.000 OA
BRANCH  20  21
ATOM     21  C   UNL     1      41.296   6.165  15.649  0.00  0.00    +0.000 A 
ATOM     22  C   UNL     1      42.533   6.524  16.128  0.00  0.00    +0.000 A 
ATOM     23  C   UNL     1      42.774   6.679  17.492  0.00  0.00    +0.000 A 
ATOM     24  C   UNL     1      41.776   6.478  18.420  0.00  0.00    +0.000 A 
ATOM     25  C   UNL     1      40.531   6.116  17.947  0.00  0.00    +0.000 A 
ATOM     26  C   UNL     1      40.288   5.962  16.598  0.00  0.00    +0.000 A 
ATOM     27  C   UNL     1      39.464   5.901  18.967  0.00  0.00    +0.000 C 
ATOM     28  C   UNL     1      39.474   6.973  20.018  0.00  0.00    +0.000 C 
ATOM     29  C   UNL     1      40.827   7.481  20.386  0.00  0.00    +0.000 C 
ATOM     30  C   UNL     1      41.970   6.629  19.887  0.00  0.00    +0.000 C 
ENDBRANCH  20  21
ENDBRANCH  19  20
ENDBRANCH  18  19
ENDBRANCH   3  18
TORSDOF 8
ENDMDL
MODEL 9
REMARK VINA RESULT:      -7.3      6.092      9.230
REMARK  Name = 
REMARK  8 active torsions:
REMARK  status: ('A' for Active; 'I' for Inactive)
REMARK    1  A    between atoms: C_2  and  C_17
REMARK    2  A    between atoms: N_3  and  C_4
REMARK    3  A    between atoms: C_4  and  C_5
REMARK    4  A    between atoms: C_5  and  O_6
REMARK    5  A    between atoms: O_6  and  C_7
REMARK    6  A    between atoms: C_22  and  S_23
REMARK    7  A    between atoms: S_23  and  C_24
REMARK    8  A    between atoms: C_24  and  C_25
REMARK                            x       y       z     vdW  Elec       q    Type
REMARK                         _______ _______ _______ _____ _____    ______ ____
ROOT
ATOM      1  O   UNL     1      36.727   9.175  13.219  0.00  0.00    +0.000 OA
ATOM      2  C   UNL     1      36.357   8.491  14.228  0.00  0.00    +0.000 C 
ATOM      3  N   UNL     1      36.957   7.207  14.367  0.00  0.00    +0.000 NA
ENDROOT
BRANCH   2   4
ATOM      4  C   UNL     1      35.373   9.001  15.182  0.00  0.00    +0.000 A 
ATOM      5  C   UNL     1      34.078   8.550  15.222  0.00  0.00    +0.000 A 
ATOM      6  C   UNL     1      33.165   9.052  16.138  0.00  0.00    +0.000 A 
ATOM      7  C   UNL     1      33.585  10.022  17.018  0.00  0.00    +0.000 A 
ATOM      8  C   UNL     1      34.874  10.467  16.977  0.00  0.00    +0.000 A 
ATOM      9  C   UNL     1      35.781   9.969  16.066  0.00  0.00    +0.000 A 
BRANCH   9  10
ATOM     10  S   UNL     1      37.469  10.555  16.015  0.00  0.00    +0.000 S 
BRANCH  10  11
ATOM     11  C   UNL     1      38.613   9.382  16.744  0.00  0.00    +0.000 C 
BRANCH  11  12
ATOM     12  C   UNL     1      38.593   9.391  18.220  0.00  0.00    +0.000 A 
ATOM     13  C   UNL     1      39.518  10.063  18.985  0.00  0.00    +0.000 A 
ATOM     14  C   UNL     1      39.406  10.005  20.361  0.00  0.00    +0.000 A 
ATOM     15  C   UNL     1      38.417   9.310  21.006  0.00  0.00    +0.000 A 
ATOM     16  C   UNL     1      37.491   8.639  20.229  0.00  0.00    +0.000 A 
ATOM     17  C   UNL     1      37.591   8.688  18.858  0.00  0.00    +0.000 A 
ENDBRANCH  11  12
ENDBRANCH  10  11
ENDBRANCH   9  10
ENDBRANCH   2   4
BRANCH   3  18
ATOM     18  C   UNL     1      37.941   6.745  13.377  0.00  0.00    +0.000 C 
BRANCH  18  19
ATOM     19  C   UNL     1      39.024   5.987  14.106  0.00  0.00    +0.000 C 
BRANCH  19  20
ATOM     20  O   UNL     1      38.462   5.410  15.266  0.00  0.00    +0.000 OA
BRANCH  20  21
ATOM     21  C   UNL     1      39.019   5.657  16.515  0.00  0.00    +0.000 A 
ATOM     22  C   UNL     1      38.485   5.220  17.704  0.00  0.00    +0.000 A 
ATOM     23  C   UNL     1      39.091   5.500  18.927  0.00  0.00    +0.000 A 
ATOM     24  C   UNL     1      40.257   6.230  18.995  0.00  0.00    +0.000 A 
ATOM     25  C   UNL     1      40.799   6.673  17.805  0.00  0.00    +0.000 A 
ATOM     26  C   UNL     1      40.204   6.399  16.593  0.00  0.00    +0.000 A 
ATOM     27  C   UNL     1      42.062   7.464  17.899  0.00  0.00    +0.000 C 
ATOM     28  C   UNL     1      43.031   6.852  18.868  0.00  0.00    +0.000 C 
ATOM     29  C   UNL     1      42.409   6.216  20.064  0.00  0.00    +0.000 C 
ATOM     30  C   UNL     1      40.952   6.560  20.268  0.00  0.00    +0.000 C 
ENDBRANCH  20  21
ENDBRANCH  19  20
ENDBRANCH  18  19
ENDBRANCH   3  18
TORSDOF 8
ENDMDL
MODEL 10
REMARK VINA RESULT:      -7.3      5.362      8.914
REMARK  Name = 
REMARK  8 active torsions:
REMARK  status: ('A' for Active; 'I' for Inactive)
REMARK    1  A    between atoms: C_2  and  C_17
REMARK    2  A    between atoms: N_3  and  C_4
REMARK    3  A    between atoms: C_4  and  C_5
REMARK    4  A    between atoms: C_5  and  O_6
REMARK    5  A    between atoms: O_6  and  C_7
REMARK    6  A    between atoms: C_22  and  S_23
REMARK    7  A    between atoms: S_23  and  C_24
REMARK    8  A    between atoms: C_24  and  C_25
REMARK                            x       y       z     vdW  Elec       q    Type
REMARK                         _______ _______ _______ _____ _____    ______ ____
ROOT
ATOM      1  O   UNL     1      34.859   5.827  13.343  0.00  0.00    +0.000 OA
ATOM      2  C   UNL     1      35.865   6.567  13.100  0.00  0.00    +0.000 C 
ATOM      3  N   UNL     1      37.134   5.920  13.110  0.00  0.00    +0.000 NA
ENDROOT
BRANCH   2   4
ATOM      4  C   UNL     1      35.721   7.998  12.828  0.00  0.00    +0.000 A 
ATOM      5  C   UNL     1      35.369   8.485  11.596  0.00  0.00    +0.000 A 
ATOM      6  C   UNL     1      35.240   9.847  11.366  0.00  0.00    +0.000 A 
ATOM      7  C   UNL     1      35.472  10.713  12.410  0.00  0.00    +0.000 A 
ATOM      8  C   UNL     1      35.820  10.224  13.635  0.00  0.00    +0.000 A 
ATOM      9  C   UNL     1      35.949   8.870  13.863  0.00  0.00    +0.000 A 
BRANCH   9  10
ATOM     10  S   UNL     1      36.405   8.234  15.470  0.00  0.00    +0.000 S 
BRANCH  10  11
ATOM     11  C   UNL     1      38.056   8.740  15.953  0.00  0.00    +0.000 C 
BRANCH  11  12
ATOM     12  C   UNL     1      38.187   8.989  17.403  0.00  0.00    +0.000 A 
ATOM     13  C   UNL     1      39.236   9.681  17.960  0.00  0.00    +0.000 A 
ATOM     14  C   UNL     1      39.261   9.857  19.330  0.00  0.00    +0.000 A 
ATOM     15  C   UNL     1      38.289   9.375  20.166  0.00  0.00    +0.000 A 
ATOM     16  C   UNL     1      37.237   8.682  19.598  0.00  0.00    +0.000 A 
ATOM     17  C   UNL     1      37.201   8.499  18.235  0.00  0.00    +0.000 A 
ENDBRANCH  11  12
ENDBRANCH  10  11
ENDBRANCH   9  10
ENDBRANCH   2   4
BRANCH   3  18
ATOM     18  C   UNL     1      37.221   4.479  13.390  0.00  0.00    +0.000 C 
BRANCH  18  19
ATOM     19  C   UNL     1      37.525   4.302  14.859  0.00  0.00    +0.000 C 
BRANCH  19  20
ATOM     20  O   UNL     1      38.856   4.712  15.093  0.00  0.00    +0.000 OA
BRANCH  20  21
ATOM     21  C   UNL     1      39.247   5.146  16.353  0.00  0.00    +0.000 A 
ATOM     22  C   UNL     1      38.573   4.861  17.517  0.00  0.00    +0.000 A 
ATOM     23  C   UNL     1      39.015   5.326  18.754  0.00  0.00    +0.000 A 
ATOM     24  C   UNL     1      40.153   6.095  18.861  0.00  0.00    +0.000 A 
ATOM     25  C   UNL     1      40.836   6.386  17.697  0.00  0.00    +0.000 A 
ATOM     26  C   UNL     1      40.402   5.928  16.471  0.00  0.00    +0.000 A 
ATOM     27  C   UNL     1      42.065   7.222  17.834  0.00  0.00    +0.000 C 
ATOM     28  C   UNL     1      42.912   6.780  18.991  0.00  0.00    +0.000 C 
ATOM     29  C   UNL     1      42.152   6.296  20.179  0.00  0.00    +0.000 C 
ATOM     30  C   UNL     1      40.677   6.619  20.151  0.00  0.00    +0.000 C 
ENDBRANCH  20  21
ENDBRANCH  19  20
ENDBRANCH  18  19
ENDBRANCH   3  18
TORSDOF 8
ENDMDL
