MODEL 1
REMARK VINA RESULT:      -8.1      0.000      0.000
REMARK  Name = 
REMARK  7 active torsions:
REMARK  status: ('A' for Active; 'I' for Inactive)
REMARK    1  A    between atoms: O_2  and  C_3
REMARK    2  A    between atoms: C_7  and  N_8
REMARK    3  A    between atoms: C_9  and  C_11
REMARK    4  A    between atoms: C_12  and  N_13
REMARK    5  A    between atoms: C_14  and  C_16
REMARK    6  A    between atoms: C_16  and  C_17
REMARK    7  A    between atoms: C_17  and  C_18
REMARK                            x       y       z     vdW  Elec       q    Type
REMARK                         _______ _______ _______ _____ _____    ______ ____
ROOT
ATOM      1  C   UNL     1      36.900   0.500  15.746  0.00  0.00    +0.000 A 
ATOM      2  C   UNL     1      36.569   1.772  16.082  0.00  0.00    +0.000 A 
ATOM      3  S   UNL     1      35.043   1.502  16.950  0.00  0.00    +0.000 S 
ATOM      4  C   UNL     1      34.952  -0.174  16.832  0.00  0.00    +0.000 A 
ATOM      5  C   UNL     1      36.061  -0.513  16.139  0.00  0.00    +0.000 A 
ATOM      6  C   UNL     1      36.072  -2.039  15.985  0.00  0.00    +0.000 C 
ATOM      7  C   UNL     1      35.067  -2.552  16.957  0.00  0.00    +0.000 C 
ATOM      8  C   UNL     1      34.118  -1.395  17.199  0.00  0.00    +0.000 C 
ENDROOT
BRANCH   1  10
ATOM      9  N   UNL     1      39.367   0.095  15.197  0.00  0.00    +0.000 NA
ATOM     10  C   UNL     1      38.022   0.245  14.770  0.00  0.00    +0.000 C 
ATOM     11  O   UNL     1      37.827   0.157  13.552  0.00  0.00    +0.000 OA
BRANCH   9  16
ATOM     12  C   UNL     1      41.826  -1.711  13.144  0.00  0.00    +0.000 A 
ATOM     13  C   UNL     1      42.466  -0.657  12.554  0.00  0.00    +0.000 A 
ATOM     14  C   UNL     1      42.111   0.664  12.813  0.00  0.00    +0.000 A 
ATOM     15  C   UNL     1      41.091   0.892  13.683  0.00  0.00    +0.000 A 
ATOM     16  C   UNL     1      40.434  -0.143  14.286  0.00  0.00    +0.000 A 
ATOM     17  C   UNL     1      40.801  -1.454  14.017  0.00  0.00    +0.000 A 
BRANCH  12  19
ATOM     18  C   UNL     1      43.531  -3.327  12.603  0.00  0.00    +0.000 C 
ATOM     19  O   UNL     1      42.183  -3.011  12.884  0.00  0.00    +0.000 OA
ENDBRANCH  12  19
ENDBRANCH   9  16
ENDBRANCH   1  10
BRANCH   2  20
ATOM     20  N   UNL     1      37.172   3.041  16.086  0.00  0.00    +0.000 NA
ATOM     21  C   UNL     1      37.741   3.819  17.058  0.00  0.00    +0.000 C 
ATOM     22  O   UNL     1      37.750   3.425  18.249  0.00  0.00    +0.000 OA
BRANCH  21  23
ATOM     23  C   UNL     1      38.374   5.167  16.728  0.00  0.00    +0.000 C 
BRANCH  23  24
ATOM     24  C   UNL     1      38.552   6.031  17.909  0.00  0.00    +0.000 C 
BRANCH  24  25
ATOM     25  C   UNL     1      39.918   6.238  18.396  0.00  0.00    +0.000 A 
ATOM     26  C   UNL     1      40.199   6.297  19.758  0.00  0.00    +0.000 A 
ATOM     27  C   UNL     1      41.463   6.475  20.245  0.00  0.00    +0.000 A 
ATOM     28  C   UNL     1      42.534   6.605  19.378  0.00  0.00    +0.000 A 
ATOM     29  C   UNL     1      42.284   6.550  18.022  0.00  0.00    +0.000 A 
ATOM     30  C   UNL     1      40.992   6.368  17.558  0.00  0.00    +0.000 A 
ENDBRANCH  24  25
ENDBRANCH  23  24
ENDBRANCH  21  23
ENDBRANCH   2  20
TORSDOF 7
ENDMDL
MODEL 2
REMARK VINA RESULT:      -8.0      1.289      1.746
REMARK  Name = 
REMARK  7 active torsions:
REMARK  status: ('A' for Active; 'I' for Inactive)
REMARK    1  A    between atoms: O_2  and  C_3
REMARK    2  A    between atoms: C_7  and  N_8
REMARK    3  A    between atoms: C_9  and  C_11
REMARK    4  A    between atoms: C_12  and  N_13
REMARK    5  A    between atoms: C_14  and  C_16
REMARK    6  A    between atoms: C_16  and  C_17
REMARK    7  A    between atoms: C_17  and  C_18
REMARK                            x       y       z     vdW  Elec       q    Type
REMARK                         _______ _______ _______ _____ _____    ______ ____
ROOT
ATOM      1  C   UNL     1      36.892   0.109  15.876  0.00  0.00    +0.000 A 
ATOM      2  C   UNL     1      36.694   1.416  16.183  0.00  0.00    +0.000 A 
ATOM      3  S   UNL     1      35.106   1.337  16.974  0.00  0.00    +0.000 S 
ATOM      4  C   UNL     1      34.827  -0.319  16.866  0.00  0.00    +0.000 A 
ATOM      5  C   UNL     1      35.922  -0.794  16.235  0.00  0.00    +0.000 A 
ATOM      6  C   UNL     1      35.763  -2.313  16.096  0.00  0.00    +0.000 C 
ATOM      7  C   UNL     1      34.659  -2.692  17.020  0.00  0.00    +0.000 C 
ATOM      8  C   UNL     1      33.839  -1.430  17.202  0.00  0.00    +0.000 C 
ENDROOT
BRANCH   1  10
ATOM      9  N   UNL     1      39.306  -0.634  15.462  0.00  0.00    +0.000 NA
ATOM     10  C   UNL     1      38.024  -0.288  14.962  0.00  0.00    +0.000 C 
ATOM     11  O   UNL     1      37.893  -0.330  13.733  0.00  0.00    +0.000 OA
BRANCH   9  16
ATOM     12  C   UNL     1      42.237  -0.346  13.261  0.00  0.00    +0.000 A 
ATOM     13  C   UNL     1      42.452  -1.665  12.974  0.00  0.00    +0.000 A 
ATOM     14  C   UNL     1      41.648  -2.677  13.493  0.00  0.00    +0.000 A 
ATOM     15  C   UNL     1      40.619  -2.320  14.308  0.00  0.00    +0.000 A 
ATOM     16  C   UNL     1      40.382  -1.008  14.610  0.00  0.00    +0.000 A 
ATOM     17  C   UNL     1      41.193  -0.013  14.085  0.00  0.00    +0.000 A 
BRANCH  12  19
ATOM     18  C   UNL     1      44.392   0.727  13.128  0.00  0.00    +0.000 C 
ATOM     19  O   UNL     1      43.034   0.646  12.745  0.00  0.00    +0.000 OA
ENDBRANCH  12  19
ENDBRANCH   9  16
ENDBRANCH   1  10
BRANCH   2  20
ATOM     20  N   UNL     1      37.439   2.607  16.206  0.00  0.00    +0.000 NA
ATOM     21  C   UNL     1      37.809   3.514  15.249  0.00  0.00    +0.000 C 
ATOM     22  O   UNL     1      37.500   3.319  14.050  0.00  0.00    +0.000 OA
BRANCH  21  23
ATOM     23  C   UNL     1      38.597   4.770  15.608  0.00  0.00    +0.000 C 
BRANCH  23  24
ATOM     24  C   UNL     1      38.361   5.231  16.987  0.00  0.00    +0.000 C 
BRANCH  24  25
ATOM     25  C   UNL     1      39.516   5.715  17.746  0.00  0.00    +0.000 A 
ATOM     26  C   UNL     1      39.453   5.891  19.126  0.00  0.00    +0.000 A 
ATOM     27  C   UNL     1      40.516   6.328  19.865  0.00  0.00    +0.000 A 
ATOM     28  C   UNL     1      41.723   6.616  19.250  0.00  0.00    +0.000 A 
ATOM     29  C   UNL     1      41.813   6.450  17.883  0.00  0.00    +0.000 A 
ATOM     30  C   UNL     1      40.718   6.006  17.161  0.00  0.00    +0.000 A 
ENDBRANCH  24  25
ENDBRANCH  23  24
ENDBRANCH  21  23
ENDBRANCH   2  20
TORSDOF 7
ENDMDL
MODEL 3
REMARK VINA RESULT:      -7.9      1.739      1.756
REMARK  Name = 
REMARK  7 active torsions:
REMARK  status: ('A' for Active; 'I' for Inactive)
REMARK    1  A    between atoms: O_2  and  C_3
REMARK    2  A    between atoms: C_7  and  N_8
REMARK    3  A    between atoms: C_9  and  C_11
REMARK    4  A    between atoms: C_12  and  N_13
REMARK    5  A    between atoms: C_14  and  C_16
REMARK    6  A    between atoms: C_16  and  C_17
REMARK    7  A    between atoms: C_17  and  C_18
REMARK                            x       y       z     vdW  Elec       q    Type
REMARK                         _______ _______ _______ _____ _____    ______ ____
ROOT
ATOM      1  C   UNL     1      36.788   0.259  15.790  0.00  0.00    +0.000 A 
ATOM      2  C   UNL     1      36.577   1.498  16.299  0.00  0.00    +0.000 A 
ATOM      3  S   UNL     1      35.086   1.229  17.226  0.00  0.00    +0.000 S 
ATOM      4  C   UNL     1      34.856  -0.407  16.910  0.00  0.00    +0.000 A 
ATOM      5  C   UNL     1      35.895  -0.734  16.110  0.00  0.00    +0.000 A 
ATOM      6  C   UNL     1      35.777  -2.225  15.771  0.00  0.00    +0.000 C 
ATOM      7  C   UNL     1      34.791  -2.785  16.737  0.00  0.00    +0.000 C 
ATOM      8  C   UNL     1      33.951  -1.603  17.180  0.00  0.00    +0.000 C 
ENDROOT
BRANCH   1  10
ATOM      9  N   UNL     1      37.488  -0.401  13.417  0.00  0.00    +0.000 NA
ATOM     10  C   UNL     1      37.830   0.051  14.718  0.00  0.00    +0.000 C 
ATOM     11  O   UNL     1      39.032   0.261  14.921  0.00  0.00    +0.000 OA
BRANCH   9  16
ATOM     12  C   UNL     1      40.112  -2.018  11.413  0.00  0.00    +0.000 A 
ATOM     13  C   UNL     1      40.335  -1.044  10.480  0.00  0.00    +0.000 A 
ATOM     14  C   UNL     1      39.636   0.160  10.484  0.00  0.00    +0.000 A 
ATOM     15  C   UNL     1      38.705   0.354  11.456  0.00  0.00    +0.000 A 
ATOM     16  C   UNL     1      38.462  -0.604  12.400  0.00  0.00    +0.000 A 
ATOM     17  C   UNL     1      39.167  -1.797  12.381  0.00  0.00    +0.000 A 
BRANCH  12  19
ATOM     18  C   UNL     1      42.196  -3.201  11.148  0.00  0.00    +0.000 C 
ATOM     19  O   UNL     1      40.806  -3.203  11.402  0.00  0.00    +0.000 OA
ENDBRANCH  12  19
ENDBRANCH   9  16
ENDBRANCH   1  10
BRANCH   2  20
ATOM     20  N   UNL     1      37.277   2.711  16.418  0.00  0.00    +0.000 NA
ATOM     21  C   UNL     1      37.607   3.706  15.538  0.00  0.00    +0.000 C 
ATOM     22  O   UNL     1      37.298   3.599  14.327  0.00  0.00    +0.000 OA
BRANCH  21  23
ATOM     23  C   UNL     1      38.349   4.958  15.997  0.00  0.00    +0.000 C 
BRANCH  23  24
ATOM     24  C   UNL     1      38.413   5.092  17.463  0.00  0.00    +0.000 C 
BRANCH  24  25
ATOM     25  C   UNL     1      39.624   5.684  18.036  0.00  0.00    +0.000 A 
ATOM     26  C   UNL     1      39.708   5.988  19.392  0.00  0.00    +0.000 A 
ATOM     27  C   UNL     1      40.827   6.529  19.960  0.00  0.00    +0.000 A 
ATOM     28  C   UNL     1      41.943   6.797  19.187  0.00  0.00    +0.000 A 
ATOM     29  C   UNL     1      41.887   6.505  17.839  0.00  0.00    +0.000 A 
ATOM     30  C   UNL     1      40.739   5.958  17.291  0.00  0.00    +0.000 A 
ENDBRANCH  24  25
ENDBRANCH  23  24
ENDBRANCH  21  23
ENDBRANCH   2  20
TORSDOF 7
ENDMDL
MODEL 4
REMARK VINA RESULT:      -7.9      3.928      6.630
REMARK  Name = 
REMARK  7 active torsions:
REMARK  status: ('A' for Active; 'I' for Inactive)
REMARK    1  A    between atoms: O_2  and  C_3
REMARK    2  A    between atoms: C_7  and  N_8
REMARK    3  A    between atoms: C_9  and  C_11
REMARK    4  A    between atoms: C_12  and  N_13
REMARK    5  A    between atoms: C_14  and  C_16
REMARK    6  A    between atoms: C_16  and  C_17
REMARK    7  A    between atoms: C_17  and  C_18
REMARK                            x       y       z     vdW  Elec       q    Type
REMARK                         _______ _______ _______ _____ _____    ______ ____
ROOT
ATOM      1  C   UNL     1      36.472   2.068  14.351  0.00  0.00    +0.000 A 
ATOM      2  C   UNL     1      35.629   1.910  15.402  0.00  0.00    +0.000 A 
ATOM      3  S   UNL     1      34.795   3.479  15.400  0.00  0.00    +0.000 S 
ATOM      4  C   UNL     1      35.559   4.195  14.083  0.00  0.00    +0.000 A 
ATOM      5  C   UNL     1      36.433   3.256  13.662  0.00  0.00    +0.000 A 
ATOM      6  C   UNL     1      37.180   3.818  12.446  0.00  0.00    +0.000 C 
ATOM      7  C   UNL     1      36.399   5.006  12.004  0.00  0.00    +0.000 C 
ATOM      8  C   UNL     1      35.627   5.455  13.229  0.00  0.00    +0.000 C 
ENDROOT
BRANCH   1  10
ATOM      9  N   UNL     1      38.536   0.754  15.104  0.00  0.00    +0.000 NA
ATOM     10  C   UNL     1      37.573   1.065  14.109  0.00  0.00    +0.000 C 
ATOM     11  O   UNL     1      37.692   0.467  13.033  0.00  0.00    +0.000 OA
BRANCH   9  16
ATOM     12  C   UNL     1      41.783  -0.638  14.085  0.00  0.00    +0.000 A 
ATOM     13  C   UNL     1      41.607  -1.945  14.447  0.00  0.00    +0.000 A 
ATOM     14  C   UNL     1      40.428  -2.400  15.031  0.00  0.00    +0.000 A 
ATOM     15  C   UNL     1      39.430  -1.499  15.240  0.00  0.00    +0.000 A 
ATOM     16  C   UNL     1      39.580  -0.188  14.887  0.00  0.00    +0.000 A 
ATOM     17  C   UNL     1      40.761   0.249  14.306  0.00  0.00    +0.000 A 
BRANCH  12  19
ATOM     18  C   UNL     1      44.121  -0.087  14.290  0.00  0.00    +0.000 C 
ATOM     19  O   UNL     1      42.948  -0.197  13.509  0.00  0.00    +0.000 OA
ENDBRANCH  12  19
ENDBRANCH   9  16
ENDBRANCH   1  10
BRANCH   2  20
ATOM     20  N   UNL     1      35.181   0.870  16.233  0.00  0.00    +0.000 NA
ATOM     21  C   UNL     1      35.591   0.379  17.443  0.00  0.00    +0.000 C 
ATOM     22  O   UNL     1      36.600   0.866  18.007  0.00  0.00    +0.000 OA
BRANCH  21  23
ATOM     23  C   UNL     1      34.844  -0.759  18.133  0.00  0.00    +0.000 C 
BRANCH  23  24
ATOM     24  C   UNL     1      34.248  -1.720  17.189  0.00  0.00    +0.000 C 
BRANCH  24  25
ATOM     25  C   UNL     1      35.142  -2.693  16.558  0.00  0.00    +0.000 A 
ATOM     26  C   UNL     1      36.305  -3.123  17.190  0.00  0.00    +0.000 A 
ATOM     27  C   UNL     1      37.154  -4.039  16.635  0.00  0.00    +0.000 A 
ATOM     28  C   UNL     1      36.876  -4.584  15.393  0.00  0.00    +0.000 A 
ATOM     29  C   UNL     1      35.730  -4.175  14.744  0.00  0.00    +0.000 A 
ATOM     30  C   UNL     1      34.889  -3.245  15.332  0.00  0.00    +0.000 A 
ENDBRANCH  24  25
ENDBRANCH  23  24
ENDBRANCH  21  23
ENDBRANCH   2  20
TORSDOF 7
ENDMDL
MODEL 5
REMARK VINA RESULT:      -7.9      3.997      8.011
REMARK  Name = 
REMARK  7 active torsions:
REMARK  status: ('A' for Active; 'I' for Inactive)
REMARK    1  A    between atoms: O_2  and  C_3
REMARK    2  A    between atoms: C_7  and  N_8
REMARK    3  A    between atoms: C_9  and  C_11
REMARK    4  A    between atoms: C_12  and  N_13
REMARK    5  A    between atoms: C_14  and  C_16
REMARK    6  A    between atoms: C_16  and  C_17
REMARK    7  A    between atoms: C_17  and  C_18
REMARK                            x       y       z     vdW  Elec       q    Type
REMARK                         _______ _______ _______ _____ _____    ______ ____
ROOT
ATOM      1  C   UNL     1      40.234   0.258  14.254  0.00  0.00    +0.000 A 
ATOM      2  C   UNL     1      40.527  -0.984  14.714  0.00  0.00    +0.000 A 
ATOM      3  S   UNL     1      42.188  -1.179  14.116  0.00  0.00    +0.000 S 
ATOM      4  C   UNL     1      42.381   0.308  13.352  0.00  0.00    +0.000 A 
ATOM      5  C   UNL     1      41.200   0.932  13.549  0.00  0.00    +0.000 A 
ATOM      6  C   UNL     1      41.282   2.314  12.889  0.00  0.00    +0.000 C 
ATOM      7  C   UNL     1      42.727   2.551  12.621  0.00  0.00    +0.000 C 
ATOM      8  C   UNL     1      43.353   1.171  12.557  0.00  0.00    +0.000 C 
ENDROOT
BRANCH   1  10
ATOM      9  N   UNL     1      38.417   1.771  15.235  0.00  0.00    +0.000 NA
ATOM     10  C   UNL     1      38.815   0.769  14.313  0.00  0.00    +0.000 C 
ATOM     11  O   UNL     1      37.930   0.339  13.564  0.00  0.00    +0.000 OA
BRANCH   9  16
ATOM     12  C   UNL     1      35.459   3.856  14.584  0.00  0.00    +0.000 A 
ATOM     13  C   UNL     1      34.546   3.235  15.392  0.00  0.00    +0.000 A 
ATOM     14  C   UNL     1      34.875   2.126  16.166  0.00  0.00    +0.000 A 
ATOM     15  C   UNL     1      36.151   1.658  16.102  0.00  0.00    +0.000 A 
ATOM     16  C   UNL     1      37.082   2.259  15.302  0.00  0.00    +0.000 A 
ATOM     17  C   UNL     1      36.738   3.364  14.538  0.00  0.00    +0.000 A 
BRANCH  12  19
ATOM     18  C   UNL     1      35.967   5.349  12.761  0.00  0.00    +0.000 C 
ATOM     19  O   UNL     1      35.127   4.950  13.825  0.00  0.00    +0.000 OA
ENDBRANCH  12  19
ENDBRANCH   9  16
ENDBRANCH   1  10
BRANCH   2  20
ATOM     20  N   UNL     1      39.979  -1.925  15.603  0.00  0.00    +0.000 NA
ATOM     21  C   UNL     1      39.015  -2.890  15.487  0.00  0.00    +0.000 C 
ATOM     22  O   UNL     1      38.395  -3.030  14.406  0.00  0.00    +0.000 OA
BRANCH  21  23
ATOM     23  C   UNL     1      38.671  -3.812  16.653  0.00  0.00    +0.000 C 
BRANCH  23  24
ATOM     24  C   UNL     1      38.501  -3.097  17.930  0.00  0.00    +0.000 C 
BRANCH  24  25
ATOM     25  C   UNL     1      37.290  -2.292  18.100  0.00  0.00    +0.000 A 
ATOM     26  C   UNL     1      36.152  -2.527  17.333  0.00  0.00    +0.000 A 
ATOM     27  C   UNL     1      35.002  -1.803  17.476  0.00  0.00    +0.000 A 
ATOM     28  C   UNL     1      34.928  -0.786  18.413  0.00  0.00    +0.000 A 
ATOM     29  C   UNL     1      36.043  -0.532  19.186  0.00  0.00    +0.000 A 
ATOM     30  C   UNL     1      37.194  -1.282  19.019  0.00  0.00    +0.000 A 
ENDBRANCH  24  25
ENDBRANCH  23  24
ENDBRANCH  21  23
ENDBRANCH   2  20
TORSDOF 7
ENDMDL
MODEL 6
REMARK VINA RESULT:      -7.5      4.352      8.022
REMARK  Name = 
REMARK  7 active torsions:
REMARK  status: ('A' for Active; 'I' for Inactive)
REMARK    1  A    between atoms: O_2  and  C_3
REMARK    2  A    between atoms: C_7  and  N_8
REMARK    3  A    between atoms: C_9  and  C_11
REMARK    4  A    between atoms: C_12  and  N_13
REMARK    5  A    between atoms: C_14  and  C_16
REMARK    6  A    between atoms: C_16  and  C_17
REMARK    7  A    between atoms: C_17  and  C_18
REMARK                            x       y       z     vdW  Elec       q    Type
REMARK                         _______ _______ _______ _____ _____    ______ ____
ROOT
ATOM      1  C   UNL     1      38.706  -0.573  12.210  0.00  0.00    +0.000 A 
ATOM      2  C   UNL     1      39.050  -1.740  12.809  0.00  0.00    +0.000 A 
ATOM      3  S   UNL     1      40.164  -2.419  11.604  0.00  0.00    +0.000 S 
ATOM      4  C   UNL     1      40.117  -1.186  10.460  0.00  0.00    +0.000 A 
ATOM      5  C   UNL     1      39.264  -0.282  10.990  0.00  0.00    +0.000 A 
ATOM      6  C   UNL     1      39.161   0.896  10.013  0.00  0.00    +0.000 C 
ATOM      7  C   UNL     1      40.300   0.740   9.067  0.00  0.00    +0.000 C 
ATOM      8  C   UNL     1      40.656  -0.733   9.109  0.00  0.00    +0.000 C 
ENDROOT
BRANCH   1  10
ATOM      9  N   UNL     1      37.679   0.954  13.989  0.00  0.00    +0.000 NA
ATOM     10  C   UNL     1      37.569   0.252  12.761  0.00  0.00    +0.000 C 
ATOM     11  O   UNL     1      36.487   0.355  12.172  0.00  0.00    +0.000 OA
BRANCH   9  16
ATOM     12  C   UNL     1      35.366   3.769  14.490  0.00  0.00    +0.000 A 
ATOM     13  C   UNL     1      34.590   3.265  15.497  0.00  0.00    +0.000 A 
ATOM     14  C   UNL     1      34.804   1.999  16.034  0.00  0.00    +0.000 A 
ATOM     15  C   UNL     1      35.823   1.254  15.527  0.00  0.00    +0.000 A 
ATOM     16  C   UNL     1      36.613   1.733  14.520  0.00  0.00    +0.000 A 
ATOM     17  C   UNL     1      36.386   2.997  13.996  0.00  0.00    +0.000 A 
BRANCH  12  19
ATOM     18  C   UNL     1      36.202   5.961  13.935  0.00  0.00    +0.000 C 
ATOM     19  O   UNL     1      35.149   5.019  13.966  0.00  0.00    +0.000 OA
ENDBRANCH  12  19
ENDBRANCH   9  16
ENDBRANCH   1  10
BRANCH   2  20
ATOM     20  N   UNL     1      38.914  -2.347  14.070  0.00  0.00    +0.000 NA
ATOM     21  C   UNL     1      39.739  -2.479  15.153  0.00  0.00    +0.000 C 
ATOM     22  O   UNL     1      40.909  -2.030  15.108  0.00  0.00    +0.000 OA
BRANCH  21  23
ATOM     23  C   UNL     1      39.269  -3.167  16.431  0.00  0.00    +0.000 C 
BRANCH  23  24
ATOM     24  C   UNL     1      37.819  -3.430  16.450  0.00  0.00    +0.000 C 
BRANCH  24  25
ATOM     25  C   UNL     1      36.972  -2.500  17.199  0.00  0.00    +0.000 A 
ATOM     26  C   UNL     1      37.500  -1.677  18.190  0.00  0.00    +0.000 A 
ATOM     27  C   UNL     1      36.740  -0.789  18.897  0.00  0.00    +0.000 A 
ATOM     28  C   UNL     1      35.384  -0.673  18.643  0.00  0.00    +0.000 A 
ATOM     29  C   UNL     1      34.834  -1.477  17.665  0.00  0.00    +0.000 A 
ATOM     30  C   UNL     1      35.629  -2.368  16.965  0.00  0.00    +0.000 A 
ENDBRANCH  24  25
ENDBRANCH  23  24
ENDBRANCH  21  23
ENDBRANCH   2  20
TORSDOF 7
ENDMDL
MODEL 7
REMARK VINA RESULT:      -7.3      2.103      2.728
REMARK  Name = 
REMARK  7 active torsions:
REMARK  status: ('A' for Active; 'I' for Inactive)
REMARK    1  A    between atoms: O_2  and  C_3
REMARK    2  A    between atoms: C_7  and  N_8
REMARK    3  A    between atoms: C_9  and  C_11
REMARK    4  A    between atoms: C_12  and  N_13
REMARK    5  A    between atoms: C_14  and  C_16
REMARK    6  A    between atoms: C_16  and  C_17
REMARK    7  A    between atoms: C_17  and  C_18
REMARK                            x       y       z     vdW  Elec       q    Type
REMARK                         _______ _______ _______ _____ _____    ______ ____
ROOT
ATOM      1  C   UNL     1      36.741   0.425  15.565  0.00  0.00    +0.000 A 
ATOM      2  C   UNL     1      36.363   1.704  15.813  0.00  0.00    +0.000 A 
ATOM      3  S   UNL     1      34.904   1.438  16.790  0.00  0.00    +0.000 S 
ATOM      4  C   UNL     1      34.894  -0.245  16.817  0.00  0.00    +0.000 A 
ATOM      5  C   UNL     1      35.979  -0.590  16.091  0.00  0.00    +0.000 A 
ATOM      6  C   UNL     1      36.061  -2.121  16.065  0.00  0.00    +0.000 C 
ATOM      7  C   UNL     1      35.140  -2.595  17.135  0.00  0.00    +0.000 C 
ATOM      8  C   UNL     1      34.146  -1.467  17.335  0.00  0.00    +0.000 C 
ENDROOT
BRANCH   1  10
ATOM      9  N   UNL     1      37.530  -0.465  13.298  0.00  0.00    +0.000 NA
ATOM     10  C   UNL     1      37.819   0.140  14.549  0.00  0.00    +0.000 C 
ATOM     11  O   UNL     1      39.007   0.416  14.756  0.00  0.00    +0.000 OA
BRANCH   9  16
ATOM     12  C   UNL     1      39.755  -0.043  10.402  0.00  0.00    +0.000 A 
ATOM     13  C   UNL     1      40.453  -1.217  10.463  0.00  0.00    +0.000 A 
ATOM     14  C   UNL     1      40.214  -2.171  11.448  0.00  0.00    +0.000 A 
ATOM     15  C   UNL     1      39.250  -1.907  12.372  0.00  0.00    +0.000 A 
ATOM     16  C   UNL     1      38.538  -0.741  12.333  0.00  0.00    +0.000 A 
ATOM     17  C   UNL     1      38.789   0.198  11.344  0.00  0.00    +0.000 A 
BRANCH  12  19
ATOM     18  C   UNL     1      39.149   0.967   8.298  0.00  0.00    +0.000 C 
ATOM     19  O   UNL     1      39.996   0.893   9.426  0.00  0.00    +0.000 OA
ENDBRANCH  12  19
ENDBRANCH   9  16
ENDBRANCH   1  10
BRANCH   2  20
ATOM     20  N   UNL     1      36.898   2.996  15.674  0.00  0.00    +0.000 NA
ATOM     21  C   UNL     1      37.575   3.838  16.515  0.00  0.00    +0.000 C 
ATOM     22  O   UNL     1      37.788   3.498  17.703  0.00  0.00    +0.000 OA
BRANCH  21  23
ATOM     23  C   UNL     1      38.083   5.195  16.039  0.00  0.00    +0.000 C 
BRANCH  23  24
ATOM     24  C   UNL     1      39.315   5.628  16.724  0.00  0.00    +0.000 C 
BRANCH  24  25
ATOM     25  C   UNL     1      39.172   6.527  17.870  0.00  0.00    +0.000 A 
ATOM     26  C   UNL     1      39.733   6.218  19.106  0.00  0.00    +0.000 A 
ATOM     27  C   UNL     1      39.629   7.042  20.192  0.00  0.00    +0.000 A 
ATOM     28  C   UNL     1      38.947   8.243  20.095  0.00  0.00    +0.000 A 
ATOM     29  C   UNL     1      38.381   8.573  18.881  0.00  0.00    +0.000 A 
ATOM     30  C   UNL     1      38.502   7.719  17.798  0.00  0.00    +0.000 A 
ENDBRANCH  24  25
ENDBRANCH  23  24
ENDBRANCH  21  23
ENDBRANCH   2  20
TORSDOF 7
ENDMDL
MODEL 8
REMARK VINA RESULT:      -7.2      2.534      5.509
REMARK  Name = 
REMARK  7 active torsions:
REMARK  status: ('A' for Active; 'I' for Inactive)
REMARK    1  A    between atoms: O_2  and  C_3
REMARK    2  A    between atoms: C_7  and  N_8
REMARK    3  A    between atoms: C_9  and  C_11
REMARK    4  A    between atoms: C_12  and  N_13
REMARK    5  A    between atoms: C_14  and  C_16
REMARK    6  A    between atoms: C_16  and  C_17
REMARK    7  A    between atoms: C_17  and  C_18
REMARK                            x       y       z     vdW  Elec       q    Type
REMARK                         _______ _______ _______ _____ _____    ______ ____
ROOT
ATOM      1  C   UNL     1      39.242   0.506  13.596  0.00  0.00    +0.000 A 
ATOM      2  C   UNL     1      40.009   1.567  13.952  0.00  0.00    +0.000 A 
ATOM      3  S   UNL     1      41.479   1.249  13.008  0.00  0.00    +0.000 S 
ATOM      4  C   UNL     1      41.011  -0.173  12.240  0.00  0.00    +0.000 A 
ATOM      5  C   UNL     1      39.762  -0.397  12.702  0.00  0.00    +0.000 A 
ATOM      6  C   UNL     1      39.241  -1.682  12.047  0.00  0.00    +0.000 C 
ATOM      7  C   UNL     1      40.161  -1.959  10.909  0.00  0.00    +0.000 C 
ATOM      8  C   UNL     1      41.456  -1.252  11.261  0.00  0.00    +0.000 C 
ENDROOT
BRANCH   1  10
ATOM      9  N   UNL     1      37.966  -0.475  15.586  0.00  0.00    +0.000 NA
ATOM     10  C   UNL     1      37.966   0.213  14.345  0.00  0.00    +0.000 C 
ATOM     11  O   UNL     1      36.858   0.553  13.914  0.00  0.00    +0.000 OA
BRANCH   9  16
ATOM     12  C   UNL     1      34.848  -2.148  16.584  0.00  0.00    +0.000 A 
ATOM     13  C   UNL     1      34.471  -1.350  17.628  0.00  0.00    +0.000 A 
ATOM     14  C   UNL     1      35.224  -0.250  18.029  0.00  0.00    +0.000 A 
ATOM     15  C   UNL     1      36.369   0.022  17.347  0.00  0.00    +0.000 A 
ATOM     16  C   UNL     1      36.768  -0.760  16.300  0.00  0.00    +0.000 A 
ATOM     17  C   UNL     1      36.006  -1.852  15.914  0.00  0.00    +0.000 A 
BRANCH  12  19
ATOM     18  C   UNL     1      34.429  -3.924  15.008  0.00  0.00    +0.000 C 
ATOM     19  O   UNL     1      34.099  -3.231  16.194  0.00  0.00    +0.000 OA
ENDBRANCH  12  19
ENDBRANCH   9  16
ENDBRANCH   1  10
BRANCH   2  20
ATOM     20  N   UNL     1      39.851   2.789  14.629  0.00  0.00    +0.000 NA
ATOM     21  C   UNL     1      38.903   3.775  14.598  0.00  0.00    +0.000 C 
ATOM     22  O   UNL     1      37.938   3.691  13.802  0.00  0.00    +0.000 OA
BRANCH  21  23
ATOM     23  C   UNL     1      38.990   4.990  15.518  0.00  0.00    +0.000 C 
BRANCH  23  24
ATOM     24  C   UNL     1      38.354   4.773  16.830  0.00  0.00    +0.000 C 
BRANCH  24  25
ATOM     25  C   UNL     1      38.688   5.707  17.907  0.00  0.00    +0.000 A 
ATOM     26  C   UNL     1      37.978   6.891  18.083  0.00  0.00    +0.000 A 
ATOM     27  C   UNL     1      38.256   7.777  19.086  0.00  0.00    +0.000 A 
ATOM     28  C   UNL     1      39.278   7.518  19.983  0.00  0.00    +0.000 A 
ATOM     29  C   UNL     1      39.998   6.351  19.831  0.00  0.00    +0.000 A 
ATOM     30  C   UNL     1      39.694   5.473  18.805  0.00  0.00    +0.000 A 
ENDBRANCH  24  25
ENDBRANCH  23  24
ENDBRANCH  21  23
ENDBRANCH   2  20
TORSDOF 7
ENDMDL
MODEL 9
REMARK VINA RESULT:      -7.1      4.030      7.219
REMARK  Name = 
REMARK  7 active torsions:
REMARK  status: ('A' for Active; 'I' for Inactive)
REMARK    1  A    between atoms: O_2  and  C_3
REMARK    2  A    between atoms: C_7  and  N_8
REMARK    3  A    between atoms: C_9  and  C_11
REMARK    4  A    between atoms: C_12  and  N_13
REMARK    5  A    between atoms: C_14  and  C_16
REMARK    6  A    between atoms: C_16  and  C_17
REMARK    7  A    between atoms: C_17  and  C_18
REMARK                            x       y       z     vdW  Elec       q    Type
REMARK                         _______ _______ _______ _____ _____    ______ ____
ROOT
ATOM      1  C   UNL     1      37.476   3.075  13.728  0.00  0.00    +0.000 A 
ATOM      2  C   UNL     1      37.588   2.661  15.015  0.00  0.00    +0.000 A 
ATOM      3  S   UNL     1      37.820   0.916  14.786  0.00  0.00    +0.000 S 
ATOM      4  C   UNL     1      37.770   0.850  13.105  0.00  0.00    +0.000 A 
ATOM      5  C   UNL     1      37.575   2.134  12.733  0.00  0.00    +0.000 A 
ATOM      6  C   UNL     1      37.523   2.178  11.201  0.00  0.00    +0.000 C 
ATOM      7  C   UNL     1      38.064   0.870  10.739  0.00  0.00    +0.000 C 
ATOM      8  C   UNL     1      37.859  -0.081  11.901  0.00  0.00    +0.000 C 
ENDROOT
BRANCH   1  10
ATOM      9  N   UNL     1      35.648   4.846  13.448  0.00  0.00    +0.000 NA
ATOM     10  C   UNL     1      37.019   4.481  13.425  0.00  0.00    +0.000 C 
ATOM     11  O   UNL     1      37.816   5.383  13.139  0.00  0.00    +0.000 OA
BRANCH   9  16
ATOM     12  C   UNL     1      34.560   8.319  13.967  0.00  0.00    +0.000 A 
ATOM     13  C   UNL     1      34.358   8.704  12.671  0.00  0.00    +0.000 A 
ATOM     14  C   UNL     1      34.573   7.840  11.600  0.00  0.00    +0.000 A 
ATOM     15  C   UNL     1      34.997   6.577  11.874  0.00  0.00    +0.000 A 
ATOM     16  C   UNL     1      35.206   6.167  13.161  0.00  0.00    +0.000 A 
ATOM     17  C   UNL     1      34.987   7.040  14.216  0.00  0.00    +0.000 A 
BRANCH  12  19
ATOM     18  C   UNL     1      33.350   8.879  15.976  0.00  0.00    +0.000 C 
ATOM     19  O   UNL     1      34.345   9.177  15.018  0.00  0.00    +0.000 OA
ENDBRANCH  12  19
ENDBRANCH   9  16
ENDBRANCH   1  10
BRANCH   2  20
ATOM     20  N   UNL     1      37.750   3.237  16.287  0.00  0.00    +0.000 NA
ATOM     21  C   UNL     1      38.548   4.233  16.783  0.00  0.00    +0.000 C 
ATOM     22  O   UNL     1      39.379   4.800  16.034  0.00  0.00    +0.000 OA
BRANCH  21  23
ATOM     23  C   UNL     1      38.451   4.676  18.239  0.00  0.00    +0.000 C 
BRANCH  23  24
ATOM     24  C   UNL     1      39.412   5.737  18.589  0.00  0.00    +0.000 C 
BRANCH  24  25
ATOM     25  C   UNL     1      38.879   6.965  19.183  0.00  0.00    +0.000 A 
ATOM     26  C   UNL     1      37.819   7.651  18.596  0.00  0.00    +0.000 A 
ATOM     27  C   UNL     1      37.290   8.792  19.131  0.00  0.00    +0.000 A 
ATOM     28  C   UNL     1      37.803   9.315  20.306  0.00  0.00    +0.000 A 
ATOM     29  C   UNL     1      38.854   8.655  20.909  0.00  0.00    +0.000 A 
ATOM     30  C   UNL     1      39.369   7.501  20.343  0.00  0.00    +0.000 A 
ENDBRANCH  24  25
ENDBRANCH  23  24
ENDBRANCH  21  23
ENDBRANCH   2  20
TORSDOF 7
ENDMDL
MODEL 10
REMARK VINA RESULT:      -7.1      3.107      5.814
REMARK  Name = 
REMARK  7 active torsions:
REMARK  status: ('A' for Active; 'I' for Inactive)
REMARK    1  A    between atoms: O_2  and  C_3
REMARK    2  A    between atoms: C_7  and  N_8
REMARK    3  A    between atoms: C_9  and  C_11
REMARK    4  A    between atoms: C_12  and  N_13
REMARK    5  A    between atoms: C_14  and  C_16
REMARK    6  A    between atoms: C_16  and  C_17
REMARK    7  A    between atoms: C_17  and  C_18
REMARK                            x       y       z     vdW  Elec       q    Type
REMARK                         _______ _______ _______ _____ _____    ______ ____
ROOT
ATOM      1  C   UNL     1      36.746   5.438  14.677  0.00  0.00    +0.000 A 
ATOM      2  C   UNL     1      37.853   5.841  15.349  0.00  0.00    +0.000 A 
ATOM      3  S   UNL     1      38.283   7.305  14.439  0.00  0.00    +0.000 S 
ATOM      4  C   UNL     1      37.040   7.298  13.305  0.00  0.00    +0.000 A 
ATOM      5  C   UNL     1      36.320   6.198  13.616  0.00  0.00    +0.000 A 
ATOM      6  C   UNL     1      35.147   6.109  12.632  0.00  0.00    +0.000 C 
ATOM      7  C   UNL     1      35.066   7.443  11.975  0.00  0.00    +0.000 C 
ATOM      8  C   UNL     1      36.453   8.040  12.110  0.00  0.00    +0.000 C 
ENDROOT
BRANCH   1  10
ATOM      9  N   UNL     1      36.894   3.052  15.591  0.00  0.00    +0.000 NA
ATOM     10  C   UNL     1      36.155   4.076  14.944  0.00  0.00    +0.000 C 
ATOM     11  O   UNL     1      35.001   3.783  14.610  0.00  0.00    +0.000 OA
BRANCH   9  16
ATOM     12  C   UNL     1      36.205  -0.543  15.245  0.00  0.00    +0.000 A 
ATOM     13  C   UNL     1      35.337  -0.722  16.286  0.00  0.00    +0.000 A 
ATOM     14  C   UNL     1      34.957   0.324  17.122  0.00  0.00    +0.000 A 
ATOM     15  C   UNL     1      35.479   1.557  16.879  0.00  0.00    +0.000 A 
ATOM     16  C   UNL     1      36.349   1.762  15.846  0.00  0.00    +0.000 A 
ATOM     17  C   UNL     1      36.716   0.709  15.022  0.00  0.00    +0.000 A 
BRANCH  12  19
ATOM     18  C   UNL     1      37.678  -1.430  13.554  0.00  0.00    +0.000 C 
ATOM     19  O   UNL     1      36.574  -1.580  14.424  0.00  0.00    +0.000 OA
ENDBRANCH  12  19
ENDBRANCH   9  16
ENDBRANCH   1  10
BRANCH   2  20
ATOM     20  N   UNL     1      38.517   5.532  16.549  0.00  0.00    +0.000 NA
ATOM     21  C   UNL     1      38.547   6.107  17.791  0.00  0.00    +0.000 C 
ATOM     22  O   UNL     1      37.908   7.164  18.008  0.00  0.00    +0.000 OA
BRANCH  21  23
ATOM     23  C   UNL     1      39.347   5.487  18.933  0.00  0.00    +0.000 C 
BRANCH  23  24
ATOM     24  C   UNL     1      40.046   6.485  19.762  0.00  0.00    +0.000 C 
BRANCH  24  25
ATOM     25  C   UNL     1      41.504   6.560  19.646  0.00  0.00    +0.000 A 
ATOM     26  C   UNL     1      42.121   6.792  18.421  0.00  0.00    +0.000 A 
ATOM     27  C   UNL     1      43.477   6.881  18.281  0.00  0.00    +0.000 A 
ATOM     28  C   UNL     1      44.304   6.741  19.382  0.00  0.00    +0.000 A 
ATOM     29  C   UNL     1      43.718   6.509  20.610  0.00  0.00    +0.000 A 
ATOM     30  C   UNL     1      42.340   6.424  20.721  0.00  0.00    +0.000 A 
ENDBRANCH  24  25
ENDBRANCH  23  24
ENDBRANCH  21  23
ENDBRANCH   2  20
TORSDOF 7
ENDMDL
