MODEL 1
REMARK VINA RESULT:      -8.5      0.000      0.000
REMARK  Name = 
REMARK  7 active torsions:
REMARK  status: ('A' for Active; 'I' for Inactive)
REMARK    1  A    between atoms: C_2  and  C_3
REMARK    2  A    between atoms: C_2  and  N_13
REMARK    3  A    between atoms: C_4  and  C_5
REMARK    4  A    between atoms: C_6  and  C_7
REMARK    5  A    between atoms: N_13  and  N_14
REMARK    6  A    between atoms: C_15  and  C_17
REMARK    7  A    between atoms: C_23  and  C_24
REMARK                            x       y       z     vdW  Elec       q    Type
REMARK                         _______ _______ _______ _____ _____    ______ ____
ROOT
ATOM      1  N   UNL     1      36.589   1.536  16.631  0.00  0.00    +0.000 NA
ATOM      2  C   UNL     1      35.951   0.460  17.270  0.00  0.00    +0.000 C 
ATOM      3  O   UNL     1      35.804   0.427  18.453  0.00  0.00    +0.000 OA
ENDROOT
BRANCH   2   4
ATOM      4  C   UNL     1      35.485  -0.639  16.229  0.00  0.00    +0.000 C 
ATOM      5  C   UNL     1      35.848  -1.939  17.122  0.00  0.00    +0.000 C 
ATOM      6  O   UNL     1      37.169  -1.958  17.509  0.00  0.00    +0.000 OA
ATOM      7  C   UNL     1      38.115  -2.092  16.508  0.00  0.00    +0.000 A 
ATOM      8  C   UNL     1      39.263  -2.794  16.495  0.00  0.00    +0.000 A 
ATOM      9  C   UNL     1      40.126  -2.834  15.389  0.00  0.00    +0.000 A 
ATOM     10  C   UNL     1      39.789  -2.124  14.258  0.00  0.00    +0.000 A 
ATOM     11  C   UNL     1      38.616  -1.410  14.282  0.00  0.00    +0.000 A 
ATOM     12  C   UNL     1      37.760  -1.363  15.364  0.00  0.00    +0.000 A 
ATOM     13  O   UNL     1      36.657  -0.655  15.302  0.00  0.00    +0.000 OA
BRANCH  10  14
ATOM     14  C   UNL     1      40.675  -2.127  13.034  0.00  0.00    +0.000 C 
ATOM     15  C   UNL     1      41.728  -3.190  13.147  0.00  0.00    +0.000 C 
ATOM     16  C   UNL     1      41.433  -0.785  13.036  0.00  0.00    +0.000 C 
ATOM     17  C   UNL     1      39.835  -2.224  11.812  0.00  0.00    +0.000 C 
ENDBRANCH  10  14
ENDBRANCH   2   4
BRANCH   1  18
ATOM     18  N   UNL     1      37.108   2.647  17.268  0.00  0.00    +0.000 NA
BRANCH  18  20
ATOM     19  C   UNL     1      38.350   3.528  15.488  0.00  0.00    +0.000 C 
ATOM     20  C   UNL     1      37.854   3.693  16.723  0.00  0.00    +0.000 C 
BRANCH  20  21
ATOM     21  C   UNL     1      38.159   4.944  17.376  0.00  0.00    +0.000 C 
ATOM     22  C   UNL     1      38.928   4.951  18.498  0.00  0.00    +0.000 C 
BRANCH  22  23
ATOM     23  C   UNL     1      39.163   6.233  19.070  0.00  0.00    +0.000 C 
ATOM     24  C   UNL     1      40.039   6.752  19.844  0.00  0.00    +0.000 C 
BRANCH  24  25
ATOM     25  C   UNL     1      39.997   8.156  20.258  0.00  0.00    +0.000 A 
ATOM     26  C   UNL     1      38.826   8.707  20.674  0.00  0.00    +0.000 A 
ATOM     27  C   UNL     1      38.769  10.054  21.052  0.00  0.00    +0.000 A 
ATOM     28  C   UNL     1      39.919  10.806  20.995  0.00  0.00    +0.000 A 
ATOM     29  C   UNL     1      41.114  10.278  20.581  0.00  0.00    +0.000 A 
ATOM     30  C   UNL     1      41.128   8.946  20.216  0.00  0.00    +0.000 A 
ENDBRANCH  24  25
ENDBRANCH  22  23
ENDBRANCH  20  21
ENDBRANCH  18  20
ENDBRANCH   1  18
TORSDOF 7
ENDMDL
MODEL 2
REMARK VINA RESULT:      -8.5      1.676      2.227
REMARK  Name = 
REMARK  7 active torsions:
REMARK  status: ('A' for Active; 'I' for Inactive)
REMARK    1  A    between atoms: C_2  and  C_3
REMARK    2  A    between atoms: C_2  and  N_13
REMARK    3  A    between atoms: C_4  and  C_5
REMARK    4  A    between atoms: C_6  and  C_7
REMARK    5  A    between atoms: N_13  and  N_14
REMARK    6  A    between atoms: C_15  and  C_17
REMARK    7  A    between atoms: C_23  and  C_24
REMARK                            x       y       z     vdW  Elec       q    Type
REMARK                         _______ _______ _______ _____ _____    ______ ____
ROOT
ATOM      1  N   UNL     1      37.129   2.538  16.353  0.00  0.00    +0.000 NA
ATOM      2  C   UNL     1      36.238   1.498  16.666  0.00  0.00    +0.000 C 
ATOM      3  O   UNL     1      35.805   1.350  17.767  0.00  0.00    +0.000 OA
ENDROOT
BRANCH   2   4
ATOM      4  C   UNL     1      35.919   0.605  15.398  0.00  0.00    +0.000 C 
ATOM      5  C   UNL     1      35.707  -0.797  16.178  0.00  0.00    +0.000 C 
ATOM      6  O   UNL     1      36.802  -1.147  16.936  0.00  0.00    +0.000 OA
ATOM      7  C   UNL     1      37.972  -1.435  16.254  0.00  0.00    +0.000 A 
ATOM      8  C   UNL     1      38.897  -2.383  16.491  0.00  0.00    +0.000 A 
ATOM      9  C   UNL     1      40.042  -2.553  15.697  0.00  0.00    +0.000 A 
ATOM     10  C   UNL     1      40.235  -1.715  14.622  0.00  0.00    +0.000 A 
ATOM     11  C   UNL     1      39.285  -0.751  14.390  0.00  0.00    +0.000 A 
ATOM     12  C   UNL     1      38.156  -0.573  15.163  0.00  0.00    +0.000 A 
ATOM     13  O   UNL     1      37.298   0.375  14.869  0.00  0.00    +0.000 OA
BRANCH  10  14
ATOM     14  C   UNL     1      41.447  -1.847  13.729  0.00  0.00    +0.000 C 
ATOM     15  C   UNL     1      42.704  -1.575  14.502  0.00  0.00    +0.000 C 
ATOM     16  C   UNL     1      41.348  -0.721  12.682  0.00  0.00    +0.000 C 
ATOM     17  C   UNL     1      41.421  -3.167  13.047  0.00  0.00    +0.000 C 
ENDBRANCH  10  14
ENDBRANCH   2   4
BRANCH   1  18
ATOM     18  N   UNL     1      37.598   3.481  17.246  0.00  0.00    +0.000 NA
BRANCH  18  20
ATOM     19  C   UNL     1      38.038   5.325  15.869  0.00  0.00    +0.000 C 
ATOM     20  C   UNL     1      38.333   4.638  16.982  0.00  0.00    +0.000 C 
BRANCH  20  21
ATOM     21  C   UNL     1      39.402   5.165  17.798  0.00  0.00    +0.000 C 
ATOM     22  C   UNL     1      39.114   5.778  18.977  0.00  0.00    +0.000 C 
BRANCH  22  23
ATOM     23  C   UNL     1      40.236   6.269  19.702  0.00  0.00    +0.000 C 
ATOM     24  C   UNL     1      41.494   6.371  19.497  0.00  0.00    +0.000 C 
BRANCH  24  25
ATOM     25  C   UNL     1      42.412   6.949  20.481  0.00  0.00    +0.000 A 
ATOM     26  C   UNL     1      43.076   6.139  21.348  0.00  0.00    +0.000 A 
ATOM     27  C   UNL     1      43.941   6.681  22.306  0.00  0.00    +0.000 A 
ATOM     28  C   UNL     1      44.105   8.046  22.353  0.00  0.00    +0.000 A 
ATOM     29  C   UNL     1      43.450   8.887  21.491  0.00  0.00    +0.000 A 
ATOM     30  C   UNL     1      42.605   8.313  20.561  0.00  0.00    +0.000 A 
ENDBRANCH  24  25
ENDBRANCH  22  23
ENDBRANCH  20  21
ENDBRANCH  18  20
ENDBRANCH   1  18
TORSDOF 7
ENDMDL
MODEL 3
REMARK VINA RESULT:      -8.3      2.850      4.240
REMARK  Name = 
REMARK  7 active torsions:
REMARK  status: ('A' for Active; 'I' for Inactive)
REMARK    1  A    between atoms: C_2  and  C_3
REMARK    2  A    between atoms: C_2  and  N_13
REMARK    3  A    between atoms: C_4  and  C_5
REMARK    4  A    between atoms: C_6  and  C_7
REMARK    5  A    between atoms: N_13  and  N_14
REMARK    6  A    between atoms: C_15  and  C_17
REMARK    7  A    between atoms: C_23  and  C_24
REMARK                            x       y       z     vdW  Elec       q    Type
REMARK                         _______ _______ _______ _____ _____    ______ ____
ROOT
ATOM      1  N   UNL     1      37.514   3.784  17.009  0.00  0.00    +0.000 NA
ATOM      2  C   UNL     1      37.695   2.945  15.897  0.00  0.00    +0.000 C 
ATOM      3  O   UNL     1      38.776   2.572  15.559  0.00  0.00    +0.000 OA
ENDROOT
BRANCH   2   4
ATOM      4  C   UNL     1      36.315   2.594  15.204  0.00  0.00    +0.000 C 
ATOM      5  C   UNL     1      35.424   2.495  16.551  0.00  0.00    +0.000 C 
ATOM      6  O   UNL     1      35.929   1.582  17.449  0.00  0.00    +0.000 OA
ATOM      7  C   UNL     1      35.918   0.252  17.065  0.00  0.00    +0.000 A 
ATOM      8  C   UNL     1      35.655  -0.852  17.789  0.00  0.00    +0.000 A 
ATOM      9  C   UNL     1      35.682  -2.147  17.249  0.00  0.00    +0.000 A 
ATOM     10  C   UNL     1      35.990  -2.306  15.917  0.00  0.00    +0.000 A 
ATOM     11  C   UNL     1      36.258  -1.173  15.188  0.00  0.00    +0.000 A 
ATOM     12  C   UNL     1      36.235   0.106  15.707  0.00  0.00    +0.000 A 
ATOM     13  O   UNL     1      36.504   1.135  14.939  0.00  0.00    +0.000 OA
BRANCH  10  14
ATOM     14  C   UNL     1      36.035  -3.674  15.276  0.00  0.00    +0.000 C 
ATOM     15  C   UNL     1      36.924  -3.661  14.067  0.00  0.00    +0.000 C 
ATOM     16  C   UNL     1      34.616  -3.959  14.749  0.00  0.00    +0.000 C 
ATOM     17  C   UNL     1      36.403  -4.689  16.296  0.00  0.00    +0.000 C 
ENDBRANCH  10  14
ENDBRANCH   2   4
BRANCH   1  18
ATOM     18  N   UNL     1      38.525   4.265  17.817  0.00  0.00    +0.000 NA
BRANCH  18  20
ATOM     19  C   UNL     1      38.228   6.558  17.442  0.00  0.00    +0.000 C 
ATOM     20  C   UNL     1      38.808   5.587  18.163  0.00  0.00    +0.000 C 
BRANCH  20  21
ATOM     21  C   UNL     1      39.687   6.014  19.226  0.00  0.00    +0.000 C 
ATOM     22  C   UNL     1      41.011   6.198  18.975  0.00  0.00    +0.000 C 
BRANCH  22  23
ATOM     23  C   UNL     1      41.793   6.611  20.091  0.00  0.00    +0.000 C 
ATOM     24  C   UNL     1      43.030   6.582  20.412  0.00  0.00    +0.000 C 
BRANCH  24  25
ATOM     25  C   UNL     1      43.530   7.113  21.682  0.00  0.00    +0.000 A 
ATOM     26  C   UNL     1      43.839   6.265  22.698  0.00  0.00    +0.000 A 
ATOM     27  C   UNL     1      44.300   6.761  23.924  0.00  0.00    +0.000 A 
ATOM     28  C   UNL     1      44.433   8.122  24.078  0.00  0.00    +0.000 A 
ATOM     29  C   UNL     1      44.131   9.001  23.071  0.00  0.00    +0.000 A 
ATOM     30  C   UNL     1      43.679   8.472  21.878  0.00  0.00    +0.000 A 
ENDBRANCH  24  25
ENDBRANCH  22  23
ENDBRANCH  20  21
ENDBRANCH  18  20
ENDBRANCH   1  18
TORSDOF 7
ENDMDL
MODEL 4
REMARK VINA RESULT:      -8.0      2.163      3.139
REMARK  Name = 
REMARK  7 active torsions:
REMARK  status: ('A' for Active; 'I' for Inactive)
REMARK    1  A    between atoms: C_2  and  C_3
REMARK    2  A    between atoms: C_2  and  N_13
REMARK    3  A    between atoms: C_4  and  C_5
REMARK    4  A    between atoms: C_6  and  C_7
REMARK    5  A    between atoms: N_13  and  N_14
REMARK    6  A    between atoms: C_15  and  C_17
REMARK    7  A    between atoms: C_23  and  C_24
REMARK                            x       y       z     vdW  Elec       q    Type
REMARK                         _______ _______ _______ _____ _____    ______ ____
ROOT
ATOM      1  N   UNL     1      36.002  -0.438  16.568  0.00  0.00    +0.000 NA
ATOM      2  C   UNL     1      36.492  -0.920  15.343  0.00  0.00    +0.000 C 
ATOM      3  O   UNL     1      36.285  -0.353  14.315  0.00  0.00    +0.000 OA
ENDROOT
BRANCH   2   4
ATOM      4  C   UNL     1      37.315  -2.260  15.534  0.00  0.00    +0.000 C 
ATOM      5  C   UNL     1      38.507  -1.645  16.439  0.00  0.00    +0.000 C 
ATOM      6  O   UNL     1      39.147  -0.595  15.822  0.00  0.00    +0.000 OA
ATOM      7  C   UNL     1      39.856  -0.882  14.668  0.00  0.00    +0.000 A 
ATOM      8  C   UNL     1      41.038  -0.402  14.241  0.00  0.00    +0.000 A 
ATOM      9  C   UNL     1      41.636  -0.798  13.034  0.00  0.00    +0.000 A 
ATOM     10  C   UNL     1      40.989  -1.721  12.244  0.00  0.00    +0.000 A 
ATOM     11  C   UNL     1      39.783  -2.203  12.689  0.00  0.00    +0.000 A 
ATOM     12  C   UNL     1      39.185  -1.822  13.872  0.00  0.00    +0.000 A 
ATOM     13  O   UNL     1      38.028  -2.333  14.222  0.00  0.00    +0.000 OA
BRANCH  10  14
ATOM     14  C   UNL     1      41.581  -2.189  10.934  0.00  0.00    +0.000 C 
ATOM     15  C   UNL     1      41.708  -3.684  10.917  0.00  0.00    +0.000 C 
ATOM     16  C   UNL     1      43.022  -1.645  10.883  0.00  0.00    +0.000 C 
ATOM     17  C   UNL     1      40.795  -1.628   9.805  0.00  0.00    +0.000 C 
ENDBRANCH  10  14
ENDBRANCH   2   4
BRANCH   1  18
ATOM     18  N   UNL     1      35.247   0.707  16.729  0.00  0.00    +0.000 NA
BRANCH  18  20
ATOM     19  C   UNL     1      34.829   2.663  15.508  0.00  0.00    +0.000 C 
ATOM     20  C   UNL     1      35.586   2.024  16.412  0.00  0.00    +0.000 C 
BRANCH  20  21
ATOM     21  C   UNL     1      36.697   2.766  16.961  0.00  0.00    +0.000 C 
ATOM     22  C   UNL     1      37.230   3.802  16.258  0.00  0.00    +0.000 C 
BRANCH  22  23
ATOM     23  C   UNL     1      38.325   4.464  16.882  0.00  0.00    +0.000 C 
ATOM     24  C   UNL     1      38.475   5.308  17.831  0.00  0.00    +0.000 C 
BRANCH  24  25
ATOM     25  C   UNL     1      39.787   5.806  18.247  0.00  0.00    +0.000 A 
ATOM     26  C   UNL     1      40.022   6.092  19.555  0.00  0.00    +0.000 A 
ATOM     27  C   UNL     1      41.266   6.588  19.962  0.00  0.00    +0.000 A 
ATOM     28  C   UNL     1      42.245   6.780  19.014  0.00  0.00    +0.000 A 
ATOM     29  C   UNL     1      42.038   6.499  17.689  0.00  0.00    +0.000 A 
ATOM     30  C   UNL     1      40.797   6.012  17.327  0.00  0.00    +0.000 A 
ENDBRANCH  24  25
ENDBRANCH  22  23
ENDBRANCH  20  21
ENDBRANCH  18  20
ENDBRANCH   1  18
TORSDOF 7
ENDMDL
MODEL 5
REMARK VINA RESULT:      -7.9      2.320      4.901
REMARK  Name = 
REMARK  7 active torsions:
REMARK  status: ('A' for Active; 'I' for Inactive)
REMARK    1  A    between atoms: C_2  and  C_3
REMARK    2  A    between atoms: C_2  and  N_13
REMARK    3  A    between atoms: C_4  and  C_5
REMARK    4  A    between atoms: C_6  and  C_7
REMARK    5  A    between atoms: N_13  and  N_14
REMARK    6  A    between atoms: C_15  and  C_17
REMARK    7  A    between atoms: C_23  and  C_24
REMARK                            x       y       z     vdW  Elec       q    Type
REMARK                         _______ _______ _______ _____ _____    ______ ____
ROOT
ATOM      1  N   UNL     1      40.036   0.697  13.754  0.00  0.00    +0.000 NA
ATOM      2  C   UNL     1      40.709  -0.525  13.592  0.00  0.00    +0.000 C 
ATOM      3  O   UNL     1      41.173  -0.854  12.544  0.00  0.00    +0.000 OA
ENDROOT
BRANCH   2   4
ATOM      4  C   UNL     1      40.752  -1.348  14.945  0.00  0.00    +0.000 C 
ATOM      5  C   UNL     1      40.182  -2.744  14.358  0.00  0.00    +0.000 C 
ATOM      6  O   UNL     1      38.957  -2.596  13.749  0.00  0.00    +0.000 OA
ATOM      7  C   UNL     1      37.893  -2.233  14.557  0.00  0.00    +0.000 A 
ATOM      8  C   UNL     1      36.612  -2.643  14.532  0.00  0.00    +0.000 A 
ATOM      9  C   UNL     1      35.640  -2.178  15.432  0.00  0.00    +0.000 A 
ATOM     10  C   UNL     1      36.007  -1.259  16.389  0.00  0.00    +0.000 A 
ATOM     11  C   UNL     1      37.316  -0.846  16.405  0.00  0.00    +0.000 A 
ATOM     12  C   UNL     1      38.281  -1.295  15.525  0.00  0.00    +0.000 A 
ATOM     13  O   UNL     1      39.511  -0.847  15.611  0.00  0.00    +0.000 OA
BRANCH  10  14
ATOM     14  C   UNL     1      35.007  -0.721  17.387  0.00  0.00    +0.000 C 
ATOM     15  C   UNL     1      34.669   0.708  17.076  0.00  0.00    +0.000 C 
ATOM     16  C   UNL     1      35.720  -0.694  18.753  0.00  0.00    +0.000 C 
ATOM     17  C   UNL     1      33.832  -1.628  17.453  0.00  0.00    +0.000 C 
ENDBRANCH  10  14
ENDBRANCH   2   4
BRANCH   1  18
ATOM     18  N   UNL     1      39.833   1.633  12.759  0.00  0.00    +0.000 NA
BRANCH  18  20
ATOM     19  C   UNL     1      39.302   3.693  11.778  0.00  0.00    +0.000 C 
ATOM     20  C   UNL     1      39.612   3.005  12.887  0.00  0.00    +0.000 C 
BRANCH  20  21
ATOM     21  C   UNL     1      39.700   3.765  14.111  0.00  0.00    +0.000 C 
ATOM     22  C   UNL     1      38.629   3.826  14.947  0.00  0.00    +0.000 C 
BRANCH  22  23
ATOM     23  C   UNL     1      38.815   4.606  16.123  0.00  0.00    +0.000 C 
ATOM     24  C   UNL     1      38.613   5.821  16.467  0.00  0.00    +0.000 C 
BRANCH  24  25
ATOM     25  C   UNL     1      38.920   6.326  17.806  0.00  0.00    +0.000 A 
ATOM     26  C   UNL     1      38.178   7.334  18.339  0.00  0.00    +0.000 A 
ATOM     27  C   UNL     1      38.474   7.839  19.610  0.00  0.00    +0.000 A 
ATOM     28  C   UNL     1      39.528   7.297  20.309  0.00  0.00    +0.000 A 
ATOM     29  C   UNL     1      40.292   6.280  19.799  0.00  0.00    +0.000 A 
ATOM     30  C   UNL     1      39.968   5.810  18.541  0.00  0.00    +0.000 A 
ENDBRANCH  24  25
ENDBRANCH  22  23
ENDBRANCH  20  21
ENDBRANCH  18  20
ENDBRANCH   1  18
TORSDOF 7
ENDMDL
MODEL 6
REMARK VINA RESULT:      -7.9      3.325      4.933
REMARK  Name = 
REMARK  7 active torsions:
REMARK  status: ('A' for Active; 'I' for Inactive)
REMARK    1  A    between atoms: C_2  and  C_3
REMARK    2  A    between atoms: C_2  and  N_13
REMARK    3  A    between atoms: C_4  and  C_5
REMARK    4  A    between atoms: C_6  and  C_7
REMARK    5  A    between atoms: N_13  and  N_14
REMARK    6  A    between atoms: C_15  and  C_17
REMARK    7  A    between atoms: C_23  and  C_24
REMARK                            x       y       z     vdW  Elec       q    Type
REMARK                         _______ _______ _______ _____ _____    ______ ____
ROOT
ATOM      1  N   UNL     1      36.960  -0.517  16.547  0.00  0.00    +0.000 NA
ATOM      2  C   UNL     1      36.899  -1.828  17.049  0.00  0.00    +0.000 C 
ATOM      3  O   UNL     1      36.306  -2.093  18.049  0.00  0.00    +0.000 OA
ENDROOT
BRANCH   2   4
ATOM      4  C   UNL     1      37.698  -2.839  16.128  0.00  0.00    +0.000 C 
ATOM      5  C   UNL     1      36.956  -2.482  14.734  0.00  0.00    +0.000 C 
ATOM      6  O   UNL     1      35.591  -2.641  14.810  0.00  0.00    +0.000 OA
ATOM      7  C   UNL     1      35.118  -3.928  15.002  0.00  0.00    +0.000 A 
ATOM      8  C   UNL     1      34.044  -4.540  14.471  0.00  0.00    +0.000 A 
ATOM      9  C   UNL     1      33.693  -5.867  14.765  0.00  0.00    +0.000 A 
ATOM     10  C   UNL     1      34.482  -6.585  15.635  0.00  0.00    +0.000 A 
ATOM     11  C   UNL     1      35.575  -5.951  16.172  0.00  0.00    +0.000 A 
ATOM     12  C   UNL     1      35.930  -4.647  15.891  0.00  0.00    +0.000 A 
ATOM     13  O   UNL     1      36.993  -4.118  16.449  0.00  0.00    +0.000 OA
BRANCH  10  14
ATOM     14  C   UNL     1      34.158  -8.018  15.991  0.00  0.00    +0.000 C 
ATOM     15  C   UNL     1      35.222  -8.593  16.880  0.00  0.00    +0.000 C 
ATOM     16  C   UNL     1      34.228  -8.824  14.680  0.00  0.00    +0.000 C 
ATOM     17  C   UNL     1      32.784  -8.093  16.552  0.00  0.00    +0.000 C 
ENDBRANCH  10  14
ENDBRANCH   2   4
BRANCH   1  18
ATOM     18  N   UNL     1      36.366   0.586  17.128  0.00  0.00    +0.000 NA
BRANCH  18  20
ATOM     19  C   UNL     1      35.732   2.161  15.514  0.00  0.00    +0.000 C 
ATOM     20  C   UNL     1      36.353   1.906  16.675  0.00  0.00    +0.000 C 
BRANCH  20  21
ATOM     21  C   UNL     1      36.964   3.034  17.339  0.00  0.00    +0.000 C 
ATOM     22  C   UNL     1      37.780   3.868  16.640  0.00  0.00    +0.000 C 
BRANCH  22  23
ATOM     23  C   UNL     1      38.339   4.943  17.387  0.00  0.00    +0.000 C 
ATOM     24  C   UNL     1      38.964   5.071  18.495  0.00  0.00    +0.000 C 
BRANCH  24  25
ATOM     25  C   UNL     1      39.424   6.366  18.999  0.00  0.00    +0.000 A 
ATOM     26  C   UNL     1      38.843   7.513  18.556  0.00  0.00    +0.000 A 
ATOM     27  C   UNL     1      39.288   8.759  19.015  0.00  0.00    +0.000 A 
ATOM     28  C   UNL     1      40.322   8.799  19.922  0.00  0.00    +0.000 A 
ATOM     29  C   UNL     1      40.926   7.660  20.387  0.00  0.00    +0.000 A 
ATOM     30  C   UNL     1      40.459   6.451  19.909  0.00  0.00    +0.000 A 
ENDBRANCH  24  25
ENDBRANCH  22  23
ENDBRANCH  20  21
ENDBRANCH  18  20
ENDBRANCH   1  18
TORSDOF 7
ENDMDL
MODEL 7
REMARK VINA RESULT:      -7.8      2.642      3.903
REMARK  Name = 
REMARK  7 active torsions:
REMARK  status: ('A' for Active; 'I' for Inactive)
REMARK    1  A    between atoms: C_2  and  C_3
REMARK    2  A    between atoms: C_2  and  N_13
REMARK    3  A    between atoms: C_4  and  C_5
REMARK    4  A    between atoms: C_6  and  C_7
REMARK    5  A    between atoms: N_13  and  N_14
REMARK    6  A    between atoms: C_15  and  C_17
REMARK    7  A    between atoms: C_23  and  C_24
REMARK                            x       y       z     vdW  Elec       q    Type
REMARK                         _______ _______ _______ _____ _____    ______ ____
ROOT
ATOM      1  N   UNL     1      36.988   1.957  16.918  0.00  0.00    +0.000 NA
ATOM      2  C   UNL     1      35.941   1.157  16.431  0.00  0.00    +0.000 C 
ATOM      3  O   UNL     1      35.667   1.116  15.272  0.00  0.00    +0.000 OA
ENDROOT
BRANCH   2   4
ATOM      4  C   UNL     1      35.225   0.364  17.600  0.00  0.00    +0.000 C 
ATOM      5  C   UNL     1      36.530  -0.421  18.149  0.00  0.00    +0.000 C 
ATOM      6  O   UNL     1      37.147  -1.164  17.168  0.00  0.00    +0.000 OA
ATOM      7  C   UNL     1      36.435  -2.232  16.648  0.00  0.00    +0.000 A 
ATOM      8  C   UNL     1      36.859  -3.457  16.289  0.00  0.00    +0.000 A 
ATOM      9  C   UNL     1      36.005  -4.444  15.773  0.00  0.00    +0.000 A 
ATOM     10  C   UNL     1      34.667  -4.154  15.626  0.00  0.00    +0.000 A 
ATOM     11  C   UNL     1      34.245  -2.900  15.994  0.00  0.00    +0.000 A 
ATOM     12  C   UNL     1      35.076  -1.921  16.501  0.00  0.00    +0.000 A 
ATOM     13  O   UNL     1      34.589  -0.747  16.828  0.00  0.00    +0.000 OA
BRANCH  10  14
ATOM     14  C   UNL     1      33.695  -5.173  15.077  0.00  0.00    +0.000 C 
ATOM     15  C   UNL     1      32.326  -4.961  15.654  0.00  0.00    +0.000 C 
ATOM     16  C   UNL     1      34.160  -6.548  15.596  0.00  0.00    +0.000 C 
ATOM     17  C   UNL     1      33.744  -5.158  13.592  0.00  0.00    +0.000 C 
ENDBRANCH  10  14
ENDBRANCH   2   4
BRANCH   1  18
ATOM     18  N   UNL     1      37.797   2.767  16.145  0.00  0.00    +0.000 NA
BRANCH  18  20
ATOM     19  C   UNL     1      36.883   4.634  15.065  0.00  0.00    +0.000 C 
ATOM     20  C   UNL     1      37.738   4.151  15.979  0.00  0.00    +0.000 C 
BRANCH  20  21
ATOM     21  C   UNL     1      38.529   5.123  16.696  0.00  0.00    +0.000 C 
ATOM     22  C   UNL     1      38.757   4.959  18.027  0.00  0.00    +0.000 C 
BRANCH  22  23
ATOM     23  C   UNL     1      39.541   5.975  18.642  0.00  0.00    +0.000 C 
ATOM     24  C   UNL     1      40.085   6.156  19.785  0.00  0.00    +0.000 C 
BRANCH  24  25
ATOM     25  C   UNL     1      40.858   7.356  20.113  0.00  0.00    +0.000 A 
ATOM     26  C   UNL     1      40.242   8.566  20.174  0.00  0.00    +0.000 A 
ATOM     27  C   UNL     1      40.975   9.723  20.466  0.00  0.00    +0.000 A 
ATOM     28  C   UNL     1      42.328   9.611  20.690  0.00  0.00    +0.000 A 
ATOM     29  C   UNL     1      42.976   8.404  20.636  0.00  0.00    +0.000 A 
ATOM     30  C   UNL     1      42.218   7.287  20.344  0.00  0.00    +0.000 A 
ENDBRANCH  24  25
ENDBRANCH  22  23
ENDBRANCH  20  21
ENDBRANCH  18  20
ENDBRANCH   1  18
TORSDOF 7
ENDMDL
MODEL 8
REMARK VINA RESULT:      -7.5      3.445     10.699
REMARK  Name = 
REMARK  7 active torsions:
REMARK  status: ('A' for Active; 'I' for Inactive)
REMARK    1  A    between atoms: C_2  and  C_3
REMARK    2  A    between atoms: C_2  and  N_13
REMARK    3  A    between atoms: C_4  and  C_5
REMARK    4  A    between atoms: C_6  and  C_7
REMARK    5  A    between atoms: N_13  and  N_14
REMARK    6  A    between atoms: C_15  and  C_17
REMARK    7  A    between atoms: C_23  and  C_24
REMARK                            x       y       z     vdW  Elec       q    Type
REMARK                         _______ _______ _______ _____ _____    ______ ____
ROOT
ATOM      1  N   UNL     1      37.655   4.306  16.467  0.00  0.00    +0.000 NA
ATOM      2  C   UNL     1      38.197   4.703  17.700  0.00  0.00    +0.000 C 
ATOM      3  O   UNL     1      38.569   3.910  18.509  0.00  0.00    +0.000 OA
ENDROOT
BRANCH   2   4
ATOM      4  C   UNL     1      38.235   6.281  17.837  0.00  0.00    +0.000 C 
ATOM      5  C   UNL     1      39.092   6.586  16.499  0.00  0.00    +0.000 C 
ATOM      6  O   UNL     1      40.300   5.925  16.487  0.00  0.00    +0.000 OA
ATOM      7  C   UNL     1      41.227   6.294  17.446  0.00  0.00    +0.000 A 
ATOM      8  C   UNL     1      42.562   6.429  17.347  0.00  0.00    +0.000 A 
ATOM      9  C   UNL     1      43.376   6.818  18.423  0.00  0.00    +0.000 A 
ATOM     10  C   UNL     1      42.787   7.078  19.640  0.00  0.00    +0.000 A 
ATOM     11  C   UNL     1      41.424   6.936  19.730  0.00  0.00    +0.000 A 
ATOM     12  C   UNL     1      40.615   6.553  18.680  0.00  0.00    +0.000 A 
ATOM     13  O   UNL     1      39.319   6.442  18.854  0.00  0.00    +0.000 OA
BRANCH  10  14
ATOM     14  C   UNL     1      43.608   7.502  20.837  0.00  0.00    +0.000 C 
ATOM     15  C   UNL     1      43.210   8.877  21.288  0.00  0.00    +0.000 C 
ATOM     16  C   UNL     1      45.065   7.626  20.350  0.00  0.00    +0.000 C 
ATOM     17  C   UNL     1      43.521   6.461  21.894  0.00  0.00    +0.000 C 
ENDBRANCH  10  14
ENDBRANCH   2   4
BRANCH   1  18
ATOM     18  N   UNL     1      37.489   2.998  16.054  0.00  0.00    +0.000 NA
BRANCH  18  20
ATOM     19  C   UNL     1      35.545   3.266  14.773  0.00  0.00    +0.000 C 
ATOM     20  C   UNL     1      36.413   2.433  15.367  0.00  0.00    +0.000 C 
BRANCH  20  21
ATOM     21  C   UNL     1      36.136   1.022  15.245  0.00  0.00    +0.000 C 
ATOM     22  C   UNL     1      35.843   0.293  16.356  0.00  0.00    +0.000 C 
BRANCH  22  23
ATOM     23  C   UNL     1      35.593  -1.090  16.130  0.00  0.00    +0.000 C 
ATOM     24  C   UNL     1      36.294  -2.121  15.844  0.00  0.00    +0.000 C 
BRANCH  24  25
ATOM     25  C   UNL     1      35.711  -3.453  15.677  0.00  0.00    +0.000 A 
ATOM     26  C   UNL     1      34.553  -3.606  14.980  0.00  0.00    +0.000 A 
ATOM     27  C   UNL     1      33.975  -4.872  14.831  0.00  0.00    +0.000 A 
ATOM     28  C   UNL     1      34.601  -5.957  15.400  0.00  0.00    +0.000 A 
ATOM     29  C   UNL     1      35.769  -5.834  16.106  0.00  0.00    +0.000 A 
ATOM     30  C   UNL     1      36.307  -4.568  16.232  0.00  0.00    +0.000 A 
ENDBRANCH  24  25
ENDBRANCH  22  23
ENDBRANCH  20  21
ENDBRANCH  18  20
ENDBRANCH   1  18
TORSDOF 7
ENDMDL
MODEL 9
REMARK VINA RESULT:      -7.5      4.295      8.024
REMARK  Name = 
REMARK  7 active torsions:
REMARK  status: ('A' for Active; 'I' for Inactive)
REMARK    1  A    between atoms: C_2  and  C_3
REMARK    2  A    between atoms: C_2  and  N_13
REMARK    3  A    between atoms: C_4  and  C_5
REMARK    4  A    between atoms: C_6  and  C_7
REMARK    5  A    between atoms: N_13  and  N_14
REMARK    6  A    between atoms: C_15  and  C_17
REMARK    7  A    between atoms: C_23  and  C_24
REMARK                            x       y       z     vdW  Elec       q    Type
REMARK                         _______ _______ _______ _____ _____    ______ ____
ROOT
ATOM      1  N   UNL     1      35.108   2.233  16.260  0.00  0.00    +0.000 NA
ATOM      2  C   UNL     1      36.310   2.867  16.615  0.00  0.00    +0.000 C 
ATOM      3  O   UNL     1      36.970   2.495  17.536  0.00  0.00    +0.000 OA
ENDROOT
BRANCH   2   4
ATOM      4  C   UNL     1      36.631   4.083  15.653  0.00  0.00    +0.000 C 
ATOM      5  C   UNL     1      35.797   3.560  14.369  0.00  0.00    +0.000 C 
ATOM      6  O   UNL     1      36.197   2.308  13.958  0.00  0.00    +0.000 OA
ATOM      7  C   UNL     1      37.484   2.191  13.462  0.00  0.00    +0.000 A 
ATOM      8  C   UNL     1      37.948   1.460  12.433  0.00  0.00    +0.000 A 
ATOM      9  C   UNL     1      39.297   1.449  12.046  0.00  0.00    +0.000 A 
ATOM     10  C   UNL     1      40.195   2.222  12.747  0.00  0.00    +0.000 A 
ATOM     11  C   UNL     1      39.711   2.964  13.796  0.00  0.00    +0.000 A 
ATOM     12  C   UNL     1      38.388   2.982  14.186  0.00  0.00    +0.000 A 
ATOM     13  O   UNL     1      38.010   3.721  15.202  0.00  0.00    +0.000 OA
BRANCH  10  14
ATOM     14  C   UNL     1      41.661   2.254  12.379  0.00  0.00    +0.000 C 
ATOM     15  C   UNL     1      42.244   3.610  12.655  0.00  0.00    +0.000 C 
ATOM     16  C   UNL     1      41.736   2.069  10.851  0.00  0.00    +0.000 C 
ATOM     17  C   UNL     1      42.368   1.135  13.054  0.00  0.00    +0.000 C 
ENDBRANCH  10  14
ENDBRANCH   2   4
BRANCH   1  18
ATOM     18  N   UNL     1      34.560   1.144  16.909  0.00  0.00    +0.000 NA
BRANCH  18  20
ATOM     19  C   UNL     1      34.186  -1.095  17.490  0.00  0.00    +0.000 C 
ATOM     20  C   UNL     1      34.880  -0.207  16.763  0.00  0.00    +0.000 C 
BRANCH  20  21
ATOM     21  C   UNL     1      35.909  -0.744  15.903  0.00  0.00    +0.000 C 
ATOM     22  C   UNL     1      37.214  -0.660  16.278  0.00  0.00    +0.000 C 
BRANCH  22  23
ATOM     23  C   UNL     1      38.150  -1.211  15.358  0.00  0.00    +0.000 C 
ATOM     24  C   UNL     1      39.324  -0.915  14.947  0.00  0.00    +0.000 C 
BRANCH  24  25
ATOM     25  C   UNL     1      40.043  -1.720  13.958  0.00  0.00    +0.000 A 
ATOM     26  C   UNL     1      39.475  -1.980  12.750  0.00  0.00    +0.000 A 
ATOM     27  C   UNL     1      40.144  -2.766  11.804  0.00  0.00    +0.000 A 
ATOM     28  C   UNL     1      41.385  -3.269  12.121  0.00  0.00    +0.000 A 
ATOM     29  C   UNL     1      41.983  -3.023  13.329  0.00  0.00    +0.000 A 
ATOM     30  C   UNL     1      41.290  -2.244  14.235  0.00  0.00    +0.000 A 
ENDBRANCH  24  25
ENDBRANCH  22  23
ENDBRANCH  20  21
ENDBRANCH  18  20
ENDBRANCH   1  18
TORSDOF 7
ENDMDL
MODEL 10
REMARK VINA RESULT:      -7.4      4.317      6.883
REMARK  Name = 
REMARK  7 active torsions:
REMARK  status: ('A' for Active; 'I' for Inactive)
REMARK    1  A    between atoms: C_2  and  C_3
REMARK    2  A    between atoms: C_2  and  N_13
REMARK    3  A    between atoms: C_4  and  C_5
REMARK    4  A    between atoms: C_6  and  C_7
REMARK    5  A    between atoms: N_13  and  N_14
REMARK    6  A    between atoms: C_15  and  C_17
REMARK    7  A    between atoms: C_23  and  C_24
REMARK                            x       y       z     vdW  Elec       q    Type
REMARK                         _______ _______ _______ _____ _____    ______ ____
ROOT
ATOM      1  N   UNL     1      38.199   5.911  12.790  0.00  0.00    +0.000 NA
ATOM      2  C   UNL     1      37.925   4.620  13.271  0.00  0.00    +0.000 C 
ATOM      3  O   UNL     1      36.815   4.187  13.316  0.00  0.00    +0.000 OA
ENDROOT
BRANCH   2   4
ATOM      4  C   UNL     1      39.248   3.873  13.717  0.00  0.00    +0.000 C 
ATOM      5  C   UNL     1      38.591   2.961  14.881  0.00  0.00    +0.000 C 
ATOM      6  O   UNL     1      37.940   3.713  15.833  0.00  0.00    +0.000 OA
ATOM      7  C   UNL     1      38.718   4.554  16.609  0.00  0.00    +0.000 A 
ATOM      8  C   UNL     1      38.629   4.846  17.919  0.00  0.00    +0.000 A 
ATOM      9  C   UNL     1      39.506   5.728  18.570  0.00  0.00    +0.000 A 
ATOM     10  C   UNL     1      40.509   6.326  17.841  0.00  0.00    +0.000 A 
ATOM     11  C   UNL     1      40.590   6.023  16.504  0.00  0.00    +0.000 A 
ATOM     12  C   UNL     1      39.733   5.158  15.853  0.00  0.00    +0.000 A 
ATOM     13  O   UNL     1      39.882   4.924  14.571  0.00  0.00    +0.000 OA
BRANCH  10  14
ATOM     14  C   UNL     1      41.485   7.285  18.484  0.00  0.00    +0.000 C 
ATOM     15  C   UNL     1      41.525   8.582  17.730  0.00  0.00    +0.000 C 
ATOM     16  C   UNL     1      42.885   6.662  18.320  0.00  0.00    +0.000 C 
ATOM     17  C   UNL     1      41.166   7.425  19.928  0.00  0.00    +0.000 C 
ENDBRANCH  10  14
ENDBRANCH   2   4
BRANCH   1  18
ATOM     18  N   UNL     1      37.254   6.807  12.330  0.00  0.00    +0.000 NA
BRANCH  18  20
ATOM     19  C   UNL     1      36.031   8.801  12.197  0.00  0.00    +0.000 C 
ATOM     20  C   UNL     1      36.822   7.996  12.921  0.00  0.00    +0.000 C 
BRANCH  20  21
ATOM     21  C   UNL     1      37.163   8.453  14.248  0.00  0.00    +0.000 C 
ATOM     22  C   UNL     1      37.043   7.606  15.305  0.00  0.00    +0.000 C 
BRANCH  22  23
ATOM     23  C   UNL     1      37.395   8.154  16.571  0.00  0.00    +0.000 C 
ATOM     24  C   UNL     1      37.798   9.286  17.006  0.00  0.00    +0.000 C 
BRANCH  24  25
ATOM     25  C   UNL     1      38.080   9.536  18.421  0.00  0.00    +0.000 A 
ATOM     26  C   UNL     1      38.806  10.625  18.788  0.00  0.00    +0.000 A 
ATOM     27  C   UNL     1      39.099  10.863  20.136  0.00  0.00    +0.000 A 
ATOM     28  C   UNL     1      38.638   9.975  21.081  0.00  0.00    +0.000 A 
ATOM     29  C   UNL     1      37.903   8.870  20.741  0.00  0.00    +0.000 A 
ATOM     30  C   UNL     1      37.636   8.670  19.401  0.00  0.00    +0.000 A 
ENDBRANCH  24  25
ENDBRANCH  22  23
ENDBRANCH  20  21
ENDBRANCH  18  20
ENDBRANCH   1  18
TORSDOF 7
ENDMDL
