MODEL 1
REMARK VINA RESULT:      -6.1      0.000      0.000
REMARK  Name = 
REMARK  1 active torsions:
REMARK  status: ('A' for Active; 'I' for Inactive)
REMARK    1  A    between atoms: C_9  and  C_11
REMARK                            x       y       z     vdW  Elec       q    Type
REMARK                         _______ _______ _______ _____ _____    ______ ____
ROOT
ATOM      1  C   UNL     1      30.082  22.688  28.874  0.00  0.00    +0.000 C 
ATOM      2  N   UNL     1      29.501  22.943  27.515  0.00  0.00    +0.000 NA
ATOM      3  C   UNL     1      30.160  23.704  26.403  0.00  0.00    +0.000 C 
ATOM      4  C   UNL     1      29.226  23.714  25.230  0.00  0.00    +0.000 C 
ATOM      5  C   UNL     1      27.989  22.958  25.617  0.00  0.00    +0.000 C 
ATOM      6  C   UNL     1      28.160  22.482  27.029  0.00  0.00    +0.000 C 
ATOM      7  C   UNL     1      27.224  22.491  25.855  0.00  0.00    +0.000 C 
ATOM      8  N   UNL     1      27.883  23.252  24.744  0.00  0.00    +0.000 N 
ATOM      9  C   UNL     1      27.302  23.507  23.385  0.00  0.00    +0.000 C 
ATOM     10  O   UNL     1      25.941  22.980  23.040  0.00  0.00    +0.000 OA
ENDROOT
BRANCH   9  11
ATOM     11  C   UNL     1      28.083  24.289  22.370  0.00  0.00    +0.000 A 
ATOM     12  C   UNL     1      27.855  25.725  21.998  0.00  0.00    +0.000 A 
ATOM     13  C   UNL     1      28.860  26.096  20.949  0.00  0.00    +0.000 A 
ATOM     14  N   UNL     1      28.992  27.438  20.291  0.00  0.00    +0.000 N 
ATOM     15  O   UNL     1      28.066  28.555  20.672  0.00  0.00    +0.000 OA
ATOM     16  O   UNL     1      30.050  27.664  19.252  0.00  0.00    +0.000 OA
ATOM     17  N   UNL     1      29.709  24.892  20.672  0.00  0.00    +0.000 NA
ATOM     18  N   UNL     1      29.229  23.775  21.551  0.00  0.00    +0.000 NA
ENDBRANCH   9  11
TORSDOF 1
ENDMDL
MODEL 2
REMARK VINA RESULT:      -5.5     32.808     35.180
REMARK  Name = 
REMARK  1 active torsions:
REMARK  status: ('A' for Active; 'I' for Inactive)
REMARK    1  A    between atoms: C_9  and  C_11
REMARK                            x       y       z     vdW  Elec       q    Type
REMARK                         _______ _______ _______ _____ _____    ______ ____
ROOT
ATOM      1  C   UNL     1      23.834  -8.012  24.370  0.00  0.00    +0.000 C 
ATOM      2  N   UNL     1      22.492  -7.954  25.038  0.00  0.00    +0.000 NA
ATOM      3  C   UNL     1      21.824  -9.078  25.772  0.00  0.00    +0.000 C 
ATOM      4  C   UNL     1      20.501  -8.582  26.277  0.00  0.00    +0.000 C 
ATOM      5  C   UNL     1      20.352  -7.150  25.853  0.00  0.00    +0.000 C 
ATOM      6  C   UNL     1      21.583  -6.763  25.088  0.00  0.00    +0.000 C 
ATOM      7  C   UNL     1      20.260  -6.266  25.592  0.00  0.00    +0.000 C 
ATOM      8  N   UNL     1      19.592  -7.390  26.326  0.00  0.00    +0.000 N 
ATOM      9  C   UNL     1      18.250  -7.332  26.994  0.00  0.00    +0.000 C 
ATOM     10  O   UNL     1      17.450  -6.064  26.961  0.00  0.00    +0.000 OA
ENDROOT
BRANCH   9  11
ATOM     11  C   UNL     1      17.708  -8.543  27.694  0.00  0.00    +0.000 A 
ATOM     12  C   UNL     1      18.126  -9.040  29.047  0.00  0.00    +0.000 A 
ATOM     13  C   UNL     1      17.331 -10.273  29.354  0.00  0.00    +0.000 A 
ATOM     14  N   UNL     1      17.427 -11.096  30.604  0.00  0.00    +0.000 N 
ATOM     15  O   UNL     1      18.387 -10.704  31.688  0.00  0.00    +0.000 OA
ATOM     16  O   UNL     1      16.564 -12.311  30.772  0.00  0.00    +0.000 OA
ATOM     17  N   UNL     1      16.422 -10.540  28.191  0.00  0.00    +0.000 NA
ATOM     18  N   UNL     1      16.656  -9.471  27.166  0.00  0.00    +0.000 NA
ENDBRANCH   9  11
TORSDOF 1
ENDMDL
MODEL 3
REMARK VINA RESULT:      -5.5     15.278     16.856
REMARK  Name = 
REMARK  1 active torsions:
REMARK  status: ('A' for Active; 'I' for Inactive)
REMARK    1  A    between atoms: C_9  and  C_11
REMARK                            x       y       z     vdW  Elec       q    Type
REMARK                         _______ _______ _______ _____ _____    ______ ____
ROOT
ATOM      1  C   UNL     1      20.909  16.920  40.800  0.00  0.00    +0.000 C 
ATOM      2  N   UNL     1      20.806  17.998  39.762  0.00  0.00    +0.000 NA
ATOM      3  C   UNL     1      19.660  18.204  38.817  0.00  0.00    +0.000 C 
ATOM      4  C   UNL     1      19.975  19.393  37.958  0.00  0.00    +0.000 C 
ATOM      5  C   UNL     1      21.317  19.921  38.373  0.00  0.00    +0.000 C 
ATOM      6  C   UNL     1      21.829  19.059  39.488  0.00  0.00    +0.000 C 
ATOM      7  C   UNL     1      22.145  20.248  38.629  0.00  0.00    +0.000 C 
ATOM      8  N   UNL     1      20.999  20.454  37.684  0.00  0.00    +0.000 N 
ATOM      9  C   UNL     1      20.896  21.532  36.646  0.00  0.00    +0.000 C 
ATOM     10  O   UNL     1      22.005  22.529  36.486  0.00  0.00    +0.000 OA
ENDROOT
BRANCH   9  11
ATOM     11  C   UNL     1      19.682  21.613  35.768  0.00  0.00    +0.000 A 
ATOM     12  C   UNL     1      18.335  22.139  36.171  0.00  0.00    +0.000 A 
ATOM     13  C   UNL     1      17.423  22.033  34.986  0.00  0.00    +0.000 A 
ATOM     14  N   UNL     1      15.981  22.446  34.944  0.00  0.00    +0.000 N 
ATOM     15  O   UNL     1      15.331  23.025  36.165  0.00  0.00    +0.000 OA
ATOM     16  O   UNL     1      15.190  22.280  33.681  0.00  0.00    +0.000 OA
ATOM     17  N   UNL     1      18.204  21.442  33.850  0.00  0.00    +0.000 NA
ATOM     18  N   UNL     1      19.600  21.183  34.334  0.00  0.00    +0.000 NA
ENDBRANCH   9  11
TORSDOF 1
ENDMDL
MODEL 4
REMARK VINA RESULT:      -5.4     32.003     34.268
REMARK  Name = 
REMARK  1 active torsions:
REMARK  status: ('A' for Active; 'I' for Inactive)
REMARK    1  A    between atoms: C_9  and  C_11
REMARK                            x       y       z     vdW  Elec       q    Type
REMARK                         _______ _______ _______ _____ _____    ______ ____
ROOT
ATOM      1  C   UNL     1      25.324  -8.905  23.748  0.00  0.00    +0.000 C 
ATOM      2  N   UNL     1      23.981  -8.459  24.248  0.00  0.00    +0.000 NA
ATOM      3  C   UNL     1      22.893  -9.351  24.767  0.00  0.00    +0.000 C 
ATOM      4  C   UNL     1      21.730  -8.487  25.157  0.00  0.00    +0.000 C 
ATOM      5  C   UNL     1      22.101  -7.060  24.877  0.00  0.00    +0.000 C 
ATOM      6  C   UNL     1      23.491  -7.044  24.316  0.00  0.00    +0.000 C 
ATOM      7  C   UNL     1      22.329  -6.178  24.705  0.00  0.00    +0.000 C 
ATOM      8  N   UNL     1      21.242  -7.070  25.224  0.00  0.00    +0.000 N 
ATOM      9  C   UNL     1      19.899  -6.624  25.724  0.00  0.00    +0.000 C 
ATOM     10  O   UNL     1      19.548  -5.166  25.732  0.00  0.00    +0.000 OA
ENDROOT
BRANCH   9  11
ATOM     11  C   UNL     1      18.908  -7.637  26.216  0.00  0.00    +0.000 A 
ATOM     12  C   UNL     1      18.824  -8.184  27.611  0.00  0.00    +0.000 A 
ATOM     13  C   UNL     1      17.692  -9.165  27.656  0.00  0.00    +0.000 A 
ATOM     14  N   UNL     1      17.252  -9.949  28.858  0.00  0.00    +0.000 N 
ATOM     15  O   UNL     1      17.968  -9.782  30.165  0.00  0.00    +0.000 OA
ATOM     16  O   UNL     1      16.097 -10.900  28.752  0.00  0.00    +0.000 OA
ATOM     17  N   UNL     1      17.076  -9.227  26.290  0.00  0.00    +0.000 NA
ATOM     18  N   UNL     1      17.827  -8.282  25.401  0.00  0.00    +0.000 NA
ENDBRANCH   9  11
TORSDOF 1
ENDMDL
MODEL 5
REMARK VINA RESULT:      -5.3      3.686      5.384
REMARK  Name = 
REMARK  1 active torsions:
REMARK  status: ('A' for Active; 'I' for Inactive)
REMARK    1  A    between atoms: C_9  and  C_11
REMARK                            x       y       z     vdW  Elec       q    Type
REMARK                         _______ _______ _______ _____ _____    ______ ____
ROOT
ATOM      1  C   UNL     1      31.541  30.221  26.453  0.00  0.00    +0.000 C 
ATOM      2  N   UNL     1      31.343  28.842  25.894  0.00  0.00    +0.000 NA
ATOM      3  C   UNL     1      30.106  28.336  25.213  0.00  0.00    +0.000 C 
ATOM      4  C   UNL     1      30.346  26.910  24.815  0.00  0.00    +0.000 C 
ATOM      5  C   UNL     1      31.732  26.534  25.251  0.00  0.00    +0.000 C 
ATOM      6  C   UNL     1      32.347  27.729  25.918  0.00  0.00    +0.000 C 
ATOM      7  C   UNL     1      32.587  26.302  25.520  0.00  0.00    +0.000 C 
ATOM      8  N   UNL     1      31.351  25.797  24.840  0.00  0.00    +0.000 N 
ATOM      9  C   UNL     1      31.153  24.418  24.280  0.00  0.00    +0.000 C 
ATOM     10  O   UNL     1      32.254  23.404  24.378  0.00  0.00    +0.000 OA
ENDROOT
BRANCH   9  11
ATOM     11  C   UNL     1      29.854  24.055  23.624  0.00  0.00    +0.000 A 
ATOM     12  C   UNL     1      28.579  23.699  24.329  0.00  0.00    +0.000 A 
ATOM     13  C   UNL     1      27.539  23.409  23.289  0.00  0.00    +0.000 A 
ATOM     14  N   UNL     1      26.116  23.011  23.551  0.00  0.00    +0.000 N 
ATOM     15  O   UNL     1      25.624  22.874  24.961  0.00  0.00    +0.000 OA
ATOM     16  O   UNL     1      25.186  22.751  22.403  0.00  0.00    +0.000 OA
ATOM     17  N   UNL     1      28.171  23.585  21.940  0.00  0.00    +0.000 NA
ATOM     18  N   UNL     1      29.601  23.985  22.148  0.00  0.00    +0.000 NA
ENDBRANCH   9  11
TORSDOF 1
ENDMDL
MODEL 6
REMARK VINA RESULT:      -5.2     32.585     34.838
REMARK  Name = 
REMARK  1 active torsions:
REMARK  status: ('A' for Active; 'I' for Inactive)
REMARK    1  A    between atoms: C_9  and  C_11
REMARK                            x       y       z     vdW  Elec       q    Type
REMARK                         _______ _______ _______ _____ _____    ______ ____
ROOT
ATOM      1  C   UNL     1      23.476  -8.201  24.032  0.00  0.00    +0.000 C 
ATOM      2  N   UNL     1      22.099  -7.992  24.592  0.00  0.00    +0.000 NA
ATOM      3  C   UNL     1      21.030  -9.036  24.717  0.00  0.00    +0.000 C 
ATOM      4  C   UNL     1      19.821  -8.392  25.327  0.00  0.00    +0.000 C 
ATOM      5  C   UNL     1      20.143  -6.949  25.580  0.00  0.00    +0.000 C 
ATOM      6  C   UNL     1      21.551  -6.702  25.126  0.00  0.00    +0.000 C 
ATOM      7  C   UNL     1      20.342  -6.057  25.737  0.00  0.00    +0.000 C 
ATOM      8  N   UNL     1      19.274  -7.102  25.861  0.00  0.00    +0.000 N 
ATOM      9  C   UNL     1      17.897  -6.893  26.421  0.00  0.00    +0.000 C 
ATOM     10  O   UNL     1      17.488  -5.538  26.920  0.00  0.00    +0.000 OA
ENDROOT
BRANCH   9  11
ATOM     11  C   UNL     1      16.931  -8.039  26.482  0.00  0.00    +0.000 A 
ATOM     12  C   UNL     1      15.672  -8.173  25.677  0.00  0.00    +0.000 A 
ATOM     13  C   UNL     1      15.017  -9.468  26.055  0.00  0.00    +0.000 A 
ATOM     14  N   UNL     1      13.733 -10.004  25.494  0.00  0.00    +0.000 N 
ATOM     15  O   UNL     1      12.985  -9.222  24.455  0.00  0.00    +0.000 OA
ATOM     16  O   UNL     1      13.197 -11.321  25.971  0.00  0.00    +0.000 OA
ATOM     17  N   UNL     1      15.870 -10.134  27.093  0.00  0.00    +0.000 NA
ATOM     18  N   UNL     1      17.053  -9.250  27.356  0.00  0.00    +0.000 NA
ENDBRANCH   9  11
TORSDOF 1
ENDMDL
MODEL 7
REMARK VINA RESULT:      -5.2      2.879      4.652
REMARK  Name = 
REMARK  1 active torsions:
REMARK  status: ('A' for Active; 'I' for Inactive)
REMARK    1  A    between atoms: C_9  and  C_11
REMARK                            x       y       z     vdW  Elec       q    Type
REMARK                         _______ _______ _______ _____ _____    ______ ____
ROOT
ATOM      1  C   UNL     1      26.862  25.316  32.319  0.00  0.00    +0.000 C 
ATOM      2  N   UNL     1      27.320  24.690  31.034  0.00  0.00    +0.000 NA
ATOM      3  C   UNL     1      26.634  24.806  29.704  0.00  0.00    +0.000 C 
ATOM      4  C   UNL     1      27.433  24.027  28.701  0.00  0.00    +0.000 C 
ATOM      5  C   UNL     1      28.613  23.431  29.411  0.00  0.00    +0.000 C 
ATOM      6  C   UNL     1      28.542  23.841  30.852  0.00  0.00    +0.000 C 
ATOM      7  C   UNL     1      29.341  23.062  29.850  0.00  0.00    +0.000 C 
ATOM      8  N   UNL     1      28.656  23.177  28.521  0.00  0.00    +0.000 N 
ATOM      9  C   UNL     1      29.113  22.552  27.236  0.00  0.00    +0.000 C 
ATOM     10  O   UNL     1      30.363  21.723  27.209  0.00  0.00    +0.000 OA
ENDROOT
BRANCH   9  11
ATOM     11  C   UNL     1      28.320  22.756  25.979  0.00  0.00    +0.000 A 
ATOM     12  C   UNL     1      28.870  23.180  24.649  0.00  0.00    +0.000 A 
ATOM     13  C   UNL     1      27.728  23.259  23.680  0.00  0.00    +0.000 A 
ATOM     14  N   UNL     1      27.825  23.644  22.233  0.00  0.00    +0.000 N 
ATOM     15  O   UNL     1      29.156  23.995  21.638  0.00  0.00    +0.000 OA
ATOM     16  O   UNL     1      26.591  23.679  21.382  0.00  0.00    +0.000 OA
ATOM     17  N   UNL     1      26.473  22.884  24.410  0.00  0.00    +0.000 NA
ATOM     18  N   UNL     1      26.839  22.574  25.831  0.00  0.00    +0.000 NA
ENDBRANCH   9  11
TORSDOF 1
ENDMDL
MODEL 8
REMARK VINA RESULT:      -5.1      3.221      6.951
REMARK  Name = 
REMARK  1 active torsions:
REMARK  status: ('A' for Active; 'I' for Inactive)
REMARK    1  A    between atoms: C_9  and  C_11
REMARK                            x       y       z     vdW  Elec       q    Type
REMARK                         _______ _______ _______ _____ _____    ______ ____
ROOT
ATOM      1  C   UNL     1      29.138  29.336  21.641  0.00  0.00    +0.000 C 
ATOM      2  N   UNL     1      28.485  28.140  22.268  0.00  0.00    +0.000 NA
ATOM      3  C   UNL     1      28.089  28.005  23.709  0.00  0.00    +0.000 C 
ATOM      4  C   UNL     1      27.472  26.651  23.896  0.00  0.00    +0.000 C 
ATOM      5  C   UNL     1      27.487  25.948  22.570  0.00  0.00    +0.000 C 
ATOM      6  C   UNL     1      28.112  26.869  21.565  0.00  0.00    +0.000 C 
ATOM      7  C   UNL     1      27.495  25.514  21.752  0.00  0.00    +0.000 C 
ATOM      8  N   UNL     1      27.100  25.380  23.191  0.00  0.00    +0.000 N 
ATOM      9  C   UNL     1      26.447  24.183  23.818  0.00  0.00    +0.000 C 
ATOM     10  O   UNL     1      26.132  22.977  22.984  0.00  0.00    +0.000 OA
ENDROOT
BRANCH   9  11
ATOM     11  C   UNL     1      26.108  24.194  25.280  0.00  0.00    +0.000 A 
ATOM     12  C   UNL     1      26.782  23.383  26.347  0.00  0.00    +0.000 A 
ATOM     13  C   UNL     1      26.127  23.706  27.657  0.00  0.00    +0.000 A 
ATOM     14  N   UNL     1      26.487  23.121  28.990  0.00  0.00    +0.000 N 
ATOM     15  O   UNL     1      27.595  22.115  29.093  0.00  0.00    +0.000 OA
ATOM     16  O   UNL     1      25.740  23.541  30.221  0.00  0.00    +0.000 OA
ATOM     17  N   UNL     1      25.048  24.716  27.400  0.00  0.00    +0.000 NA
ATOM     18  N   UNL     1      25.037  25.017  25.931  0.00  0.00    +0.000 NA
ENDBRANCH   9  11
TORSDOF 1
ENDMDL
MODEL 9
REMARK VINA RESULT:      -4.9      4.605      5.658
REMARK  Name = 
REMARK  1 active torsions:
REMARK  status: ('A' for Active; 'I' for Inactive)
REMARK    1  A    between atoms: C_9  and  C_11
REMARK                            x       y       z     vdW  Elec       q    Type
REMARK                         _______ _______ _______ _____ _____    ______ ____
ROOT
ATOM      1  C   UNL     1      21.342  29.142  26.072  0.00  0.00    +0.000 C 
ATOM      2  N   UNL     1      22.364  28.045  26.030  0.00  0.00    +0.000 NA
ATOM      3  C   UNL     1      23.195  27.659  24.843  0.00  0.00    +0.000 C 
ATOM      4  C   UNL     1      24.080  26.517  25.247  0.00  0.00    +0.000 C 
ATOM      5  C   UNL     1      23.795  26.197  26.685  0.00  0.00    +0.000 C 
ATOM      6  C   UNL     1      22.735  27.141  27.168  0.00  0.00    +0.000 C 
ATOM      7  C   UNL     1      23.620  25.999  27.573  0.00  0.00    +0.000 C 
ATOM      8  N   UNL     1      24.450  25.613  26.386  0.00  0.00    +0.000 N 
ATOM      9  C   UNL     1      25.473  24.516  26.344  0.00  0.00    +0.000 C 
ATOM     10  O   UNL     1      25.738  23.691  27.568  0.00  0.00    +0.000 OA
ENDROOT
BRANCH   9  11
ATOM     11  C   UNL     1      26.230  24.245  25.077  0.00  0.00    +0.000 A 
ATOM     12  C   UNL     1      27.488  24.935  24.637  0.00  0.00    +0.000 A 
ATOM     13  C   UNL     1      27.897  24.354  23.317  0.00  0.00    +0.000 A 
ATOM     14  N   UNL     1      29.101  24.751  22.514  0.00  0.00    +0.000 N 
ATOM     15  O   UNL     1      30.020  25.822  23.021  0.00  0.00    +0.000 OA
ATOM     16  O   UNL     1      29.384  24.078  21.204  0.00  0.00    +0.000 OA
ATOM     17  N   UNL     1      26.893  23.305  22.940  0.00  0.00    +0.000 NA
ATOM     18  N   UNL     1      25.863  23.239  24.028  0.00  0.00    +0.000 NA
ENDBRANCH   9  11
TORSDOF 1
ENDMDL
MODEL 10
REMARK VINA RESULT:      -4.8      3.248      6.424
REMARK  Name = 
REMARK  1 active torsions:
REMARK  status: ('A' for Active; 'I' for Inactive)
REMARK    1  A    between atoms: C_9  and  C_11
REMARK                            x       y       z     vdW  Elec       q    Type
REMARK                         _______ _______ _______ _____ _____    ______ ____
ROOT
ATOM      1  C   UNL     1      25.306  29.938  22.304  0.00  0.00    +0.000 C 
ATOM      2  N   UNL     1      26.207  28.739  22.277  0.00  0.00    +0.000 NA
ATOM      3  C   UNL     1      26.524  27.849  23.442  0.00  0.00    +0.000 C 
ATOM      4  C   UNL     1      27.463  26.779  22.967  0.00  0.00    +0.000 C 
ATOM      5  C   UNL     1      27.725  27.009  21.507  0.00  0.00    +0.000 C 
ATOM      6  C   UNL     1      26.949  28.220  21.082  0.00  0.00    +0.000 C 
ATOM      7  C   UNL     1      27.887  27.150  20.606  0.00  0.00    +0.000 C 
ATOM      8  N   UNL     1      28.204  26.261  21.771  0.00  0.00    +0.000 N 
ATOM      9  C   UNL     1      29.106  25.061  21.744  0.00  0.00    +0.000 C 
ATOM     10  O   UNL     1      29.783  24.661  20.467  0.00  0.00    +0.000 OA
ENDROOT
BRANCH   9  11
ATOM     11  C   UNL     1      29.329  24.264  22.995  0.00  0.00    +0.000 A 
ATOM     12  C   UNL     1      30.490  24.403  23.934  0.00  0.00    +0.000 A 
ATOM     13  C   UNL     1      30.309  23.413  25.045  0.00  0.00    +0.000 A 
ATOM     14  N   UNL     1      31.238  23.210  26.206  0.00  0.00    +0.000 N 
ATOM     15  O   UNL     1      32.481  24.041  26.325  0.00  0.00    +0.000 OA
ATOM     16  O   UNL     1      30.925  22.176  27.246  0.00  0.00    +0.000 OA
ATOM     17  N   UNL     1      29.036  22.662  24.794  0.00  0.00    +0.000 NA
ATOM     18  N   UNL     1      28.431  23.187  23.527  0.00  0.00    +0.000 NA
ENDBRANCH   9  11
TORSDOF 1
ENDMDL
