MODEL 1
REMARK VINA RESULT:      -5.7      0.000      0.000
REMARK  Name = 
REMARK  5 active torsions:
REMARK  status: ('A' for Active; 'I' for Inactive)
REMARK    1  A    between atoms: N_2  and  C_3
REMARK    2  A    between atoms: C_3  and  N_5
REMARK    3  A    between atoms: N_5  and  C_6
REMARK    4  A    between atoms: C_7  and  C_8
REMARK    5  A    between atoms: C_8  and  O_10
REMARK                            x       y       z     vdW  Elec       q    Type
REMARK                         _______ _______ _______ _____ _____    ______ ____
ROOT
ATOM      1  C   UNL     1      26.388  23.390  25.574  0.00  0.00    +0.000 A 
ATOM      2  C   UNL     1      25.804  23.827  24.406  0.00  0.00    +0.000 A 
ATOM      3  N   UNL     1      24.943  24.810  24.741  0.00  0.00    +0.000 NA
ATOM      4  C   UNL     1      24.959  25.011  26.071  0.00  0.00    +0.000 A 
ATOM      5  C   UNL     1      24.302  25.863  26.951  0.00  0.00    +0.000 A 
ATOM      6  C   UNL     1      24.537  25.833  28.308  0.00  0.00    +0.000 A 
ATOM      7  C   UNL     1      25.443  24.945  28.847  0.00  0.00    +0.000 A 
ATOM      8  C   UNL     1      25.719  24.890  30.316  0.00  0.00    +0.000 C 
ATOM      9  C   UNL     1      26.102  24.095  27.983  0.00  0.00    +0.000 A 
ATOM     10  C   UNL     1      25.858  24.134  26.627  0.00  0.00    +0.000 A 
ENDROOT
BRANCH   2  11
ATOM     11  C   UNL     1      26.080  23.311  23.071  0.00  0.00    +0.000 C 
ATOM     12  O   UNL     1      25.179  22.685  22.434  0.00  0.00    +0.000 OA
BRANCH  11  13
ATOM     13  O   UNL     1      27.317  23.502  22.498  0.00  0.00    +0.000 OA
ATOM     14  C   UNL     1      27.608  24.712  21.834  0.00  0.00    +0.000 C 
ENDBRANCH  11  13
ENDBRANCH   2  11
BRANCH   1  15
ATOM     15  N   UNL     1      27.345  22.383  25.708  0.00  0.00    +0.000 NA
BRANCH  15  16
ATOM     16  C   UNL     1      28.734  22.571  25.797  0.00  0.00    +0.000 C 
ATOM     17  S   UNL     1      29.426  22.416  27.268  0.00  0.00    +0.000 S 
BRANCH  16  19
ATOM     18  C   UNL     1      30.954  22.655  24.699  0.00  0.00    +0.000 C 
ATOM     19  N   UNL     1      29.531  22.882  24.675  0.00  0.00    +0.000 NA
ENDBRANCH  16  19
ENDBRANCH  15  16
ENDBRANCH   1  15
TORSDOF 5
ENDMDL
MODEL 2
REMARK VINA RESULT:      -5.6      3.548      6.203
REMARK  Name = 
REMARK  5 active torsions:
REMARK  status: ('A' for Active; 'I' for Inactive)
REMARK    1  A    between atoms: N_2  and  C_3
REMARK    2  A    between atoms: C_3  and  N_5
REMARK    3  A    between atoms: N_5  and  C_6
REMARK    4  A    between atoms: C_7  and  C_8
REMARK    5  A    between atoms: C_8  and  O_10
REMARK                            x       y       z     vdW  Elec       q    Type
REMARK                         _______ _______ _______ _____ _____    ______ ____
ROOT
ATOM      1  C   UNL     1      27.404  22.977  28.089  0.00  0.00    +0.000 A 
ATOM      2  C   UNL     1      27.479  22.826  29.456  0.00  0.00    +0.000 A 
ATOM      3  N   UNL     1      28.782  22.652  29.761  0.00  0.00    +0.000 NA
ATOM      4  C   UNL     1      29.531  22.687  28.644  0.00  0.00    +0.000 A 
ATOM      5  C   UNL     1      30.886  22.568  28.357  0.00  0.00    +0.000 A 
ATOM      6  C   UNL     1      31.370  22.650  27.070  0.00  0.00    +0.000 A 
ATOM      7  C   UNL     1      30.514  22.854  26.008  0.00  0.00    +0.000 A 
ATOM      8  C   UNL     1      31.010  22.947  24.600  0.00  0.00    +0.000 C 
ATOM      9  C   UNL     1      29.167  22.973  26.281  0.00  0.00    +0.000 A 
ATOM     10  C   UNL     1      28.696  22.890  27.573  0.00  0.00    +0.000 A 
ENDROOT
BRANCH   2  11
ATOM     11  C   UNL     1      26.352  22.853  30.380  0.00  0.00    +0.000 C 
ATOM     12  O   UNL     1      25.863  21.767  30.816  0.00  0.00    +0.000 OA
BRANCH  11  13
ATOM     13  O   UNL     1      25.816  24.056  30.780  0.00  0.00    +0.000 OA
ATOM     14  C   UNL     1      26.624  25.003  31.444  0.00  0.00    +0.000 C 
ENDBRANCH  11  13
ENDBRANCH   2  11
BRANCH   1  15
ATOM     15  N   UNL     1      26.251  23.182  27.330  0.00  0.00    +0.000 NA
BRANCH  15  16
ATOM     16  C   UNL     1      25.907  24.365  26.656  0.00  0.00    +0.000 C 
ATOM     17  S   UNL     1      25.680  25.711  27.554  0.00  0.00    +0.000 S 
BRANCH  16  19
ATOM     18  C   UNL     1      25.760  23.219  24.463  0.00  0.00    +0.000 C 
ATOM     19  N   UNL     1      25.757  24.423  25.254  0.00  0.00    +0.000 NA
ENDBRANCH  16  19
ENDBRANCH  15  16
ENDBRANCH   1  15
TORSDOF 5
ENDMDL
MODEL 3
REMARK VINA RESULT:      -5.5     31.816     32.991
REMARK  Name = 
REMARK  5 active torsions:
REMARK  status: ('A' for Active; 'I' for Inactive)
REMARK    1  A    between atoms: N_2  and  C_3
REMARK    2  A    between atoms: C_3  and  N_5
REMARK    3  A    between atoms: N_5  and  C_6
REMARK    4  A    between atoms: C_7  and  C_8
REMARK    5  A    between atoms: C_8  and  O_10
REMARK                            x       y       z     vdW  Elec       q    Type
REMARK                         _______ _______ _______ _____ _____    ______ ____
ROOT
ATOM      1  C   UNL     1      19.727  -8.139  26.446  0.00  0.00    +0.000 A 
ATOM      2  C   UNL     1      19.073  -6.933  26.331  0.00  0.00    +0.000 A 
ATOM      3  N   UNL     1      19.879  -6.116  25.619  0.00  0.00    +0.000 NA
ATOM      4  C   UNL     1      21.013  -6.757  25.282  0.00  0.00    +0.000 A 
ATOM      5  C   UNL     1      22.164  -6.427  24.577  0.00  0.00    +0.000 A 
ATOM      6  C   UNL     1      23.189  -7.327  24.391  0.00  0.00    +0.000 A 
ATOM      7  C   UNL     1      23.108  -8.604  24.905  0.00  0.00    +0.000 A 
ATOM      8  C   UNL     1      24.206  -9.603  24.719  0.00  0.00    +0.000 C 
ATOM      9  C   UNL     1      21.970  -8.944  25.607  0.00  0.00    +0.000 A 
ATOM     10  C   UNL     1      20.951  -8.033  25.786  0.00  0.00    +0.000 A 
ENDROOT
BRANCH   2  11
ATOM     11  C   UNL     1      17.760  -6.619  26.879  0.00  0.00    +0.000 C 
ATOM     12  O   UNL     1      17.496  -5.437  27.257  0.00  0.00    +0.000 OA
BRANCH  11  13
ATOM     13  O   UNL     1      16.803  -7.603  26.988  0.00  0.00    +0.000 OA
ATOM     14  C   UNL     1      16.048  -7.981  25.858  0.00  0.00    +0.000 C 
ENDBRANCH  11  13
ENDBRANCH   2  11
BRANCH   1  15
ATOM     15  N   UNL     1      19.268  -9.283  27.102  0.00  0.00    +0.000 NA
BRANCH  15  16
ATOM     16  C   UNL     1      19.494  -9.608  28.449  0.00  0.00    +0.000 C 
ATOM     17  S   UNL     1      20.790 -10.541  28.795  0.00  0.00    +0.000 S 
BRANCH  16  19
ATOM     18  C   UNL     1      18.859  -9.606  30.845  0.00  0.00    +0.000 C 
ATOM     19  N   UNL     1      18.653  -9.161  29.489  0.00  0.00    +0.000 NA
ENDBRANCH  16  19
ENDBRANCH  15  16
ENDBRANCH   1  15
TORSDOF 5
ENDMDL
MODEL 4
REMARK VINA RESULT:      -5.5      3.607      6.367
REMARK  Name = 
REMARK  5 active torsions:
REMARK  status: ('A' for Active; 'I' for Inactive)
REMARK    1  A    between atoms: N_2  and  C_3
REMARK    2  A    between atoms: C_3  and  N_5
REMARK    3  A    between atoms: N_5  and  C_6
REMARK    4  A    between atoms: C_7  and  C_8
REMARK    5  A    between atoms: C_8  and  O_10
REMARK                            x       y       z     vdW  Elec       q    Type
REMARK                         _______ _______ _______ _____ _____    ______ ____
ROOT
ATOM      1  C   UNL     1      26.755  23.327  27.827  0.00  0.00    +0.000 A 
ATOM      2  C   UNL     1      27.088  22.813  29.061  0.00  0.00    +0.000 A 
ATOM      3  N   UNL     1      28.316  22.267  28.940  0.00  0.00    +0.000 NA
ATOM      4  C   UNL     1      28.770  22.415  27.682  0.00  0.00    +0.000 A 
ATOM      5  C   UNL     1      29.929  22.062  27.001  0.00  0.00    +0.000 A 
ATOM      6  C   UNL     1      30.113  22.359  25.669  0.00  0.00    +0.000 A 
ATOM      7  C   UNL     1      29.139  23.025  24.955  0.00  0.00    +0.000 A 
ATOM      8  C   UNL     1      29.310  23.362  23.508  0.00  0.00    +0.000 C 
ATOM      9  C   UNL     1      27.984  23.381  25.621  0.00  0.00    +0.000 A 
ATOM     10  C   UNL     1      27.813  23.078  26.955  0.00  0.00    +0.000 A 
ENDROOT
BRANCH   2  11
ATOM     11  C   UNL     1      26.257  22.862  30.257  0.00  0.00    +0.000 C 
ATOM     12  O   UNL     1      25.850  21.786  30.791  0.00  0.00    +0.000 OA
BRANCH  11  13
ATOM     13  O   UNL     1      25.912  24.076  30.810  0.00  0.00    +0.000 OA
ATOM     14  C   UNL     1      26.919  24.979  31.212  0.00  0.00    +0.000 C 
ENDBRANCH  11  13
ENDBRANCH   2  11
BRANCH   1  15
ATOM     15  N   UNL     1      25.573  23.986  27.484  0.00  0.00    +0.000 NA
BRANCH  15  16
ATOM     16  C   UNL     1      25.301  25.349  27.683  0.00  0.00    +0.000 C 
ATOM     17  S   UNL     1      26.557  26.391  27.608  0.00  0.00    +0.000 S 
BRANCH  16  19
ATOM     18  C   UNL     1      23.714  26.567  29.147  0.00  0.00    +0.000 C 
ATOM     19  N   UNL     1      24.001  25.835  27.939  0.00  0.00    +0.000 NA
ENDBRANCH  16  19
ENDBRANCH  15  16
ENDBRANCH   1  15
TORSDOF 5
ENDMDL
MODEL 5
REMARK VINA RESULT:      -5.5      2.133      4.499
REMARK  Name = 
REMARK  5 active torsions:
REMARK  status: ('A' for Active; 'I' for Inactive)
REMARK    1  A    between atoms: N_2  and  C_3
REMARK    2  A    between atoms: C_3  and  N_5
REMARK    3  A    between atoms: N_5  and  C_6
REMARK    4  A    between atoms: C_7  and  C_8
REMARK    5  A    between atoms: C_8  and  O_10
REMARK                            x       y       z     vdW  Elec       q    Type
REMARK                         _______ _______ _______ _____ _____    ______ ____
ROOT
ATOM      1  C   UNL     1      27.546  23.243  24.520  0.00  0.00    +0.000 A 
ATOM      2  C   UNL     1      27.761  23.504  23.185  0.00  0.00    +0.000 A 
ATOM      3  N   UNL     1      29.096  23.483  22.990  0.00  0.00    +0.000 NA
ATOM      4  C   UNL     1      29.732  23.219  24.147  0.00  0.00    +0.000 A 
ATOM      5  C   UNL     1      31.058  23.081  24.537  0.00  0.00    +0.000 A 
ATOM      6  C   UNL     1      31.411  22.800  25.838  0.00  0.00    +0.000 A 
ATOM      7  C   UNL     1      30.447  22.646  26.812  0.00  0.00    +0.000 A 
ATOM      8  C   UNL     1      30.799  22.341  28.233  0.00  0.00    +0.000 C 
ATOM      9  C   UNL     1      29.126  22.781  26.436  0.00  0.00    +0.000 A 
ATOM     10  C   UNL     1      28.787  23.062  25.130  0.00  0.00    +0.000 A 
ENDROOT
BRANCH   2  11
ATOM     11  C   UNL     1      26.727  23.753  22.188  0.00  0.00    +0.000 C 
ATOM     12  O   UNL     1      25.698  23.013  22.144  0.00  0.00    +0.000 OA
BRANCH  11  13
ATOM     13  O   UNL     1      26.866  24.790  21.293  0.00  0.00    +0.000 OA
ATOM     14  C   UNL     1      27.479  25.994  21.698  0.00  0.00    +0.000 C 
ENDBRANCH  11  13
ENDBRANCH   2  11
BRANCH   1  15
ATOM     15  N   UNL     1      26.314  23.165  25.172  0.00  0.00    +0.000 NA
BRANCH  15  16
ATOM     16  C   UNL     1      25.664  24.219  25.833  0.00  0.00    +0.000 C 
ATOM     17  S   UNL     1      25.700  24.226  27.466  0.00  0.00    +0.000 S 
BRANCH  16  19
ATOM     18  C   UNL     1      25.684  26.466  24.787  0.00  0.00    +0.000 C 
ATOM     19  N   UNL     1      24.995  25.251  25.142  0.00  0.00    +0.000 NA
ENDBRANCH  16  19
ENDBRANCH  15  16
ENDBRANCH   1  15
TORSDOF 5
ENDMDL
MODEL 6
REMARK VINA RESULT:      -5.4     24.886     26.423
REMARK  Name = 
REMARK  5 active torsions:
REMARK  status: ('A' for Active; 'I' for Inactive)
REMARK    1  A    between atoms: N_2  and  C_3
REMARK    2  A    between atoms: C_3  and  N_5
REMARK    3  A    between atoms: N_5  and  C_6
REMARK    4  A    between atoms: C_7  and  C_8
REMARK    5  A    between atoms: C_8  and  O_10
REMARK                            x       y       z     vdW  Elec       q    Type
REMARK                         _______ _______ _______ _____ _____    ______ ____
ROOT
ATOM      1  C   UNL     1      33.571   0.558  35.442  0.00  0.00    +0.000 A 
ATOM      2  C   UNL     1      33.221  -0.104  34.286  0.00  0.00    +0.000 A 
ATOM      3  N   UNL     1      33.149   0.824  33.309  0.00  0.00    +0.000 NA
ATOM      4  C   UNL     1      33.439   2.043  33.801  0.00  0.00    +0.000 A 
ATOM      5  C   UNL     1      33.518   3.328  33.278  0.00  0.00    +0.000 A 
ATOM      6  C   UNL     1      33.850   4.414  34.057  0.00  0.00    +0.000 A 
ATOM      7  C   UNL     1      34.118   4.262  35.400  0.00  0.00    +0.000 A 
ATOM      8  C   UNL     1      34.481   5.422  36.271  0.00  0.00    +0.000 C 
ATOM      9  C   UNL     1      34.043   2.990  35.931  0.00  0.00    +0.000 A 
ATOM     10  C   UNL     1      33.709   1.912  35.140  0.00  0.00    +0.000 A 
ENDROOT
BRANCH   2  11
ATOM     11  C   UNL     1      32.980  -1.536  34.163  0.00  0.00    +0.000 C 
ATOM     12  O   UNL     1      33.660  -2.226  33.344  0.00  0.00    +0.000 OA
BRANCH  11  13
ATOM     13  O   UNL     1      32.014  -2.143  34.933  0.00  0.00    +0.000 OA
ATOM     14  C   UNL     1      32.126  -3.512  35.255  0.00  0.00    +0.000 C 
ENDBRANCH  11  13
ENDBRANCH   2  11
BRANCH   1  15
ATOM     15  N   UNL     1      33.761  -0.005  36.705  0.00  0.00    +0.000 NA
BRANCH  15  16
ATOM     16  C   UNL     1      34.924  -0.652  37.154  0.00  0.00    +0.000 C 
ATOM     17  S   UNL     1      36.103   0.274  37.803  0.00  0.00    +0.000 S 
BRANCH  16  19
ATOM     18  C   UNL     1      36.000  -2.615  36.089  0.00  0.00    +0.000 C 
ATOM     19  N   UNL     1      35.099  -2.049  37.062  0.00  0.00    +0.000 NA
ENDBRANCH  16  19
ENDBRANCH  15  16
ENDBRANCH   1  15
TORSDOF 5
ENDMDL
MODEL 7
REMARK VINA RESULT:      -5.3      2.357      3.669
REMARK  Name = 
REMARK  5 active torsions:
REMARK  status: ('A' for Active; 'I' for Inactive)
REMARK    1  A    between atoms: N_2  and  C_3
REMARK    2  A    between atoms: C_3  and  N_5
REMARK    3  A    between atoms: N_5  and  C_6
REMARK    4  A    between atoms: C_7  and  C_8
REMARK    5  A    between atoms: C_8  and  O_10
REMARK                            x       y       z     vdW  Elec       q    Type
REMARK                         _______ _______ _______ _____ _____    ______ ____
ROOT
ATOM      1  C   UNL     1      25.827  24.029  25.201  0.00  0.00    +0.000 A 
ATOM      2  C   UNL     1      26.568  23.386  24.234  0.00  0.00    +0.000 A 
ATOM      3  N   UNL     1      27.477  22.624  24.878  0.00  0.00    +0.000 NA
ATOM      4  C   UNL     1      27.342  22.761  26.210  0.00  0.00    +0.000 A 
ATOM      5  C   UNL     1      27.980  22.239  27.328  0.00  0.00    +0.000 A 
ATOM      6  C   UNL     1      27.603  22.578  28.609  0.00  0.00    +0.000 A 
ATOM      7  C   UNL     1      26.567  23.461  28.828  0.00  0.00    +0.000 A 
ATOM      8  C   UNL     1      26.136  23.848  30.207  0.00  0.00    +0.000 C 
ATOM      9  C   UNL     1      25.925  23.986  27.725  0.00  0.00    +0.000 A 
ATOM     10  C   UNL     1      26.312  23.638  26.449  0.00  0.00    +0.000 A 
ENDROOT
BRANCH   2  11
ATOM     11  C   UNL     1      26.386  23.516  22.795  0.00  0.00    +0.000 C 
ATOM     12  O   UNL     1      25.485  22.844  22.205  0.00  0.00    +0.000 OA
BRANCH  11  13
ATOM     13  O   UNL     1      27.190  24.368  22.070  0.00  0.00    +0.000 OA
ATOM     14  C   UNL     1      28.539  24.031  21.832  0.00  0.00    +0.000 C 
ENDBRANCH  11  13
ENDBRANCH   2  11
BRANCH   1  15
ATOM     15  N   UNL     1      24.772  24.919  24.996  0.00  0.00    +0.000 NA
BRANCH  15  16
ATOM     16  C   UNL     1      24.851  26.320  25.054  0.00  0.00    +0.000 C 
ATOM     17  S   UNL     1      23.457  27.151  25.237  0.00  0.00    +0.000 S 
BRANCH  16  19
ATOM     18  C   UNL     1      26.600  27.415  23.680  0.00  0.00    +0.000 C 
ATOM     19  N   UNL     1      26.075  27.015  24.962  0.00  0.00    +0.000 NA
ENDBRANCH  16  19
ENDBRANCH  15  16
ENDBRANCH   1  15
TORSDOF 5
ENDMDL
MODEL 8
REMARK VINA RESULT:      -5.3      2.679      4.329
REMARK  Name = 
REMARK  5 active torsions:
REMARK  status: ('A' for Active; 'I' for Inactive)
REMARK    1  A    between atoms: N_2  and  C_3
REMARK    2  A    between atoms: C_3  and  N_5
REMARK    3  A    between atoms: N_5  and  C_6
REMARK    4  A    between atoms: C_7  and  C_8
REMARK    5  A    between atoms: C_8  and  O_10
REMARK                            x       y       z     vdW  Elec       q    Type
REMARK                         _______ _______ _______ _____ _____    ______ ____
ROOT
ATOM      1  C   UNL     1      27.835  23.612  24.404  0.00  0.00    +0.000 A 
ATOM      2  C   UNL     1      28.697  23.427  23.346  0.00  0.00    +0.000 A 
ATOM      3  N   UNL     1      29.837  22.911  23.854  0.00  0.00    +0.000 NA
ATOM      4  C   UNL     1      29.729  22.766  25.188  0.00  0.00    +0.000 A 
ATOM      5  C   UNL     1      30.557  22.301  26.202  0.00  0.00    +0.000 A 
ATOM      6  C   UNL     1      30.153  22.272  27.519  0.00  0.00    +0.000 A 
ATOM      7  C   UNL     1      28.896  22.710  27.880  0.00  0.00    +0.000 A 
ATOM      8  C   UNL     1      28.430  22.690  29.301  0.00  0.00    +0.000 C 
ATOM      9  C   UNL     1      28.065  23.173  26.881  0.00  0.00    +0.000 A 
ATOM     10  C   UNL     1      28.481  23.197  25.567  0.00  0.00    +0.000 A 
ENDROOT
BRANCH   2  11
ATOM     11  C   UNL     1      28.413  23.733  21.951  0.00  0.00    +0.000 C 
ATOM     12  O   UNL     1      27.247  23.548  21.485  0.00  0.00    +0.000 OA
BRANCH  11  13
ATOM     13  O   UNL     1      29.407  24.225  21.134  0.00  0.00    +0.000 OA
ATOM     14  C   UNL     1      29.431  25.594  20.798  0.00  0.00    +0.000 C 
ENDBRANCH  11  13
ENDBRANCH   2  11
BRANCH   1  15
ATOM     15  N   UNL     1      26.537  24.124  24.348  0.00  0.00    +0.000 NA
BRANCH  15  16
ATOM     16  C   UNL     1      26.161  25.450  24.617  0.00  0.00    +0.000 C 
ATOM     17  S   UNL     1      24.715  25.696  25.336  0.00  0.00    +0.000 S 
BRANCH  16  19
ATOM     18  C   UNL     1      26.916  27.154  22.983  0.00  0.00    +0.000 C 
ATOM     19  N   UNL     1      26.980  26.551  24.291  0.00  0.00    +0.000 NA
ENDBRANCH  16  19
ENDBRANCH  15  16
ENDBRANCH   1  15
TORSDOF 5
ENDMDL
MODEL 9
REMARK VINA RESULT:      -5.3     31.441     32.373
REMARK  Name = 
REMARK  5 active torsions:
REMARK  status: ('A' for Active; 'I' for Inactive)
REMARK    1  A    between atoms: N_2  and  C_3
REMARK    2  A    between atoms: C_3  and  N_5
REMARK    3  A    between atoms: N_5  and  C_6
REMARK    4  A    between atoms: C_7  and  C_8
REMARK    5  A    between atoms: C_8  and  O_10
REMARK                            x       y       z     vdW  Elec       q    Type
REMARK                         _______ _______ _______ _____ _____    ______ ____
ROOT
ATOM      1  C   UNL     1      21.321  -8.071  25.143  0.00  0.00    +0.000 A 
ATOM      2  C   UNL     1      21.781  -6.917  24.547  0.00  0.00    +0.000 A 
ATOM      3  N   UNL     1      20.972  -5.916  24.955  0.00  0.00    +0.000 NA
ATOM      4  C   UNL     1      20.021  -6.391  25.780  0.00  0.00    +0.000 A 
ATOM      5  C   UNL     1      18.953  -5.841  26.478  0.00  0.00    +0.000 A 
ATOM      6  C   UNL     1      18.127  -6.608  27.271  0.00  0.00    +0.000 A 
ATOM      7  C   UNL     1      18.334  -7.965  27.399  0.00  0.00    +0.000 A 
ATOM      8  C   UNL     1      17.454  -8.822  28.251  0.00  0.00    +0.000 C 
ATOM      9  C   UNL     1      19.392  -8.522  26.710  0.00  0.00    +0.000 A 
ATOM     10  C   UNL     1      20.211  -7.744  25.920  0.00  0.00    +0.000 A 
ENDROOT
BRANCH   2  11
ATOM     11  C   UNL     1      22.926  -6.817  23.653  0.00  0.00    +0.000 C 
ATOM     12  O   UNL     1      22.804  -7.125  22.428  0.00  0.00    +0.000 OA
BRANCH  11  13
ATOM     13  O   UNL     1      24.144  -6.390  24.134  0.00  0.00    +0.000 OA
ATOM     14  C   UNL     1      25.338  -6.860  23.548  0.00  0.00    +0.000 C 
ENDBRANCH  11  13
ENDBRANCH   2  11
BRANCH   1  15
ATOM     15  N   UNL     1      21.854  -9.354  25.007  0.00  0.00    +0.000 NA
BRANCH  15  16
ATOM     16  C   UNL     1      22.843  -9.926  25.823  0.00  0.00    +0.000 C 
ATOM     17  S   UNL     1      24.295 -10.240  25.145  0.00  0.00    +0.000 S 
BRANCH  16  19
ATOM     18  C   UNL     1      23.156 -11.437  27.763  0.00  0.00    +0.000 C 
ATOM     19  N   UNL     1      22.624 -10.229  27.183  0.00  0.00    +0.000 NA
ENDBRANCH  16  19
ENDBRANCH  15  16
ENDBRANCH   1  15
TORSDOF 5
ENDMDL
MODEL 10
REMARK VINA RESULT:      -5.1     25.795     27.463
REMARK  Name = 
REMARK  5 active torsions:
REMARK  status: ('A' for Active; 'I' for Inactive)
REMARK    1  A    between atoms: N_2  and  C_3
REMARK    2  A    between atoms: C_3  and  N_5
REMARK    3  A    between atoms: N_5  and  C_6
REMARK    4  A    between atoms: C_7  and  C_8
REMARK    5  A    between atoms: C_8  and  O_10
REMARK                            x       y       z     vdW  Elec       q    Type
REMARK                         _______ _______ _______ _____ _____    ______ ____
ROOT
ATOM      1  C   UNL     1      33.222  -0.663  35.651  0.00  0.00    +0.000 A 
ATOM      2  C   UNL     1      33.573  -1.918  35.203  0.00  0.00    +0.000 A 
ATOM      3  N   UNL     1      34.013  -1.773  33.936  0.00  0.00    +0.000 NA
ATOM      4  C   UNL     1      33.954  -0.480  33.566  0.00  0.00    +0.000 A 
ATOM      5  C   UNL     1      34.265   0.235  32.416  0.00  0.00    +0.000 A 
ATOM      6  C   UNL     1      34.091   1.599  32.335  0.00  0.00    +0.000 A 
ATOM      7  C   UNL     1      33.594   2.310  33.406  0.00  0.00    +0.000 A 
ATOM      8  C   UNL     1      33.394   3.791  33.347  0.00  0.00    +0.000 C 
ATOM      9  C   UNL     1      33.282   1.611  34.554  0.00  0.00    +0.000 A 
ATOM     10  C   UNL     1      33.461   0.246  34.622  0.00  0.00    +0.000 A 
ENDROOT
BRANCH   2  11
ATOM     11  C   UNL     1      33.479  -3.153  35.970  0.00  0.00    +0.000 C 
ATOM     12  O   UNL     1      34.492  -3.589  36.597  0.00  0.00    +0.000 OA
BRANCH  11  13
ATOM     13  O   UNL     1      32.293  -3.851  36.014  0.00  0.00    +0.000 OA
ATOM     14  C   UNL     1      31.917  -4.673  34.931  0.00  0.00    +0.000 C 
ENDBRANCH  11  13
ENDBRANCH   2  11
BRANCH   1  15
ATOM     15  N   UNL     1      32.715  -0.334  36.909  0.00  0.00    +0.000 NA
BRANCH  15  16
ATOM     16  C   UNL     1      33.466   0.105  38.012  0.00  0.00    +0.000 C 
ATOM     17  S   UNL     1      33.106  -0.529  39.474  0.00  0.00    +0.000 S 
BRANCH  16  19
ATOM     18  C   UNL     1      34.232   2.461  38.066  0.00  0.00    +0.000 C 
ATOM     19  N   UNL     1      34.501   1.056  37.895  0.00  0.00    +0.000 NA
ENDBRANCH  16  19
ENDBRANCH  15  16
ENDBRANCH   1  15
TORSDOF 5
ENDMDL
