MODEL 1
REMARK VINA RESULT:      -8.5      0.000      0.000
REMARK  Name = 
REMARK  7 active torsions:
REMARK  status: ('A' for Active; 'I' for Inactive)
REMARK    1  A    between atoms: C_2  and  C_3
REMARK    2  A    between atoms: C_2  and  C_14
REMARK    3  A    between atoms: C_2  and  C_20
REMARK    4  A    between atoms: C_3  and  C_4
REMARK    5  A    between atoms: C_5  and  C_6
REMARK    6  A    between atoms: C_6  and  N_7
REMARK    7  A    between atoms: C_23  and  C_24
REMARK                            x       y       z     vdW  Elec       q    Type
REMARK                         _______ _______ _______ _____ _____    ______ ____
ROOT
ATOM      1  O   UNL     1      37.129   2.764  13.502  0.00  0.00    +0.000 OA
ATOM      2  C   UNL     1      36.487   3.594  14.401  0.00  0.00    +0.000 C 
ENDROOT
BRANCH   2   3
ATOM      3  C   UNL     1      35.856   4.704  13.642  0.00  0.00    +0.000 A 
ATOM      4  C   UNL     1      34.849   5.416  14.245  0.00  0.00    +0.000 A 
ATOM      5  C   UNL     1      34.180   6.471  13.650  0.00  0.00    +0.000 A 
ATOM      6  C   UNL     1      34.599   6.784  12.357  0.00  0.00    +0.000 A 
ATOM      7  C   UNL     1      35.611   6.076  11.739  0.00  0.00    +0.000 A 
ATOM      8  C   UNL     1      36.260   5.028  12.357  0.00  0.00    +0.000 A 
ENDBRANCH   2   3
BRANCH   2   9
ATOM      9  C   UNL     1      37.499   4.205  15.317  0.00  0.00    +0.000 A 
ATOM     10  C   UNL     1      38.616   4.870  14.851  0.00  0.00    +0.000 A 
ATOM     11  C   UNL     1      39.540   5.416  15.744  0.00  0.00    +0.000 A 
ATOM     12  C   UNL     1      39.392   5.326  17.108  0.00  0.00    +0.000 A 
ATOM     13  C   UNL     1      38.261   4.655  17.568  0.00  0.00    +0.000 A 
ATOM     14  C   UNL     1      37.350   4.117  16.687  0.00  0.00    +0.000 A 
BRANCH  12  15
ATOM     15  C   UNL     1      40.362   5.903  18.028  0.00  0.00    +0.000 A 
ATOM     16  C   UNL     1      41.623   6.337  17.676  0.00  0.00    +0.000 A 
ATOM     17  C   UNL     1      42.481   6.896  18.624  0.00  0.00    +0.000 A 
ATOM     18  C   UNL     1      42.109   7.035  19.940  0.00  0.00    +0.000 A 
ATOM     19  C   UNL     1      40.851   6.605  20.302  0.00  0.00    +0.000 A 
ATOM     20  C   UNL     1      40.014   6.056  19.361  0.00  0.00    +0.000 A 
ENDBRANCH  12  15
ENDBRANCH   2   9
BRANCH   2  21
ATOM     21  C   UNL     1      35.485   2.790  15.167  0.00  0.00    +0.000 C 
BRANCH  21  22
ATOM     22  C   UNL     1      35.807   1.378  15.271  0.00  0.00    +0.000 C 
ATOM     23  C   UNL     1      36.045   0.199  15.345  0.00  0.00    +0.000 C 
BRANCH  23  24
ATOM     24  C   UNL     1      36.292  -1.243  15.422  0.00  0.00    +0.000 C 
BRANCH  24  25
ATOM     25  N   UNL     1      36.082  -1.687  16.799  0.00  0.00    +0.000 NA
ATOM     26  C   UNL     1      35.880  -3.139  16.843  0.00  0.00    +0.000 C 
ATOM     27  C   UNL     1      36.916  -3.782  15.951  0.00  0.00    +0.000 C 
ATOM     28  C   UNL     1      37.953  -4.524  16.802  0.00  0.00    +0.000 C 
ATOM     29  C   UNL     1      38.816  -3.447  17.472  0.00  0.00    +0.000 C 
ATOM     30  C   UNL     1      38.475  -2.093  16.940  0.00  0.00    +0.000 C 
ATOM     31  C   UNL     1      37.290  -1.463  17.615  0.00  0.00    +0.000 C 
ENDBRANCH  24  25
ENDBRANCH  23  24
ENDBRANCH  21  22
ENDBRANCH   2  21
TORSDOF 7
ENDMDL
MODEL 2
REMARK VINA RESULT:      -7.8      3.916      6.834
REMARK  Name = 
REMARK  7 active torsions:
REMARK  status: ('A' for Active; 'I' for Inactive)
REMARK    1  A    between atoms: C_2  and  C_3
REMARK    2  A    between atoms: C_2  and  C_14
REMARK    3  A    between atoms: C_2  and  C_20
REMARK    4  A    between atoms: C_3  and  C_4
REMARK    5  A    between atoms: C_5  and  C_6
REMARK    6  A    between atoms: C_6  and  N_7
REMARK    7  A    between atoms: C_23  and  C_24
REMARK                            x       y       z     vdW  Elec       q    Type
REMARK                         _______ _______ _______ _____ _____    ______ ____
ROOT
ATOM      1  O   UNL     1      36.460   2.349  13.635  0.00  0.00    +0.000 OA
ATOM      2  C   UNL     1      37.804   2.289  13.950  0.00  0.00    +0.000 C 
ENDROOT
BRANCH   2   3
ATOM      3  C   UNL     1      38.111   0.915  14.424  0.00  0.00    +0.000 A 
ATOM      4  C   UNL     1      37.065   0.063  14.677  0.00  0.00    +0.000 A 
ATOM      5  C   UNL     1      37.213  -1.238  15.120  0.00  0.00    +0.000 A 
ATOM      6  C   UNL     1      38.531  -1.655  15.304  0.00  0.00    +0.000 A 
ATOM      7  C   UNL     1      39.594  -0.809  15.052  0.00  0.00    +0.000 A 
ATOM      8  C   UNL     1      39.415   0.485  14.611  0.00  0.00    +0.000 A 
ENDBRANCH   2   3
BRANCH   2   9
ATOM      9  C   UNL     1      38.087   3.221  15.085  0.00  0.00    +0.000 A 
ATOM     10  C   UNL     1      37.317   3.248  16.232  0.00  0.00    +0.000 A 
ATOM     11  C   UNL     1      37.611   4.142  17.263  0.00  0.00    +0.000 A 
ATOM     12  C   UNL     1      38.661   5.027  17.196  0.00  0.00    +0.000 A 
ATOM     13  C   UNL     1      39.433   4.992  16.035  0.00  0.00    +0.000 A 
ATOM     14  C   UNL     1      39.142   4.109  15.019  0.00  0.00    +0.000 A 
BRANCH  12  15
ATOM     15  C   UNL     1      38.959   5.953  18.279  0.00  0.00    +0.000 A 
ATOM     16  C   UNL     1      39.998   5.813  19.175  0.00  0.00    +0.000 A 
ATOM     17  C   UNL     1      40.220   6.763  20.172  0.00  0.00    +0.000 A 
ATOM     18  C   UNL     1      39.418   7.870  20.304  0.00  0.00    +0.000 A 
ATOM     19  C   UNL     1      38.376   8.021  19.415  0.00  0.00    +0.000 A 
ATOM     20  C   UNL     1      38.166   7.080  18.436  0.00  0.00    +0.000 A 
ENDBRANCH  12  15
ENDBRANCH   2   9
BRANCH   2  21
ATOM     21  C   UNL     1      38.599   2.661  12.739  0.00  0.00    +0.000 C 
BRANCH  21  22
ATOM     22  C   UNL     1      37.992   2.265  11.481  0.00  0.00    +0.000 C 
ATOM     23  C   UNL     1      37.517   1.941  10.422  0.00  0.00    +0.000 C 
BRANCH  23  24
ATOM     24  C   UNL     1      36.979   1.559   9.115  0.00  0.00    +0.000 C 
BRANCH  24  25
ATOM     25  N   UNL     1      37.846   2.099   8.068  0.00  0.00    +0.000 NA
ATOM     26  C   UNL     1      37.903   1.180   6.927  0.00  0.00    +0.000 C 
ATOM     27  C   UNL     1      36.498   0.715   6.629  0.00  0.00    +0.000 C 
ATOM     28  C   UNL     1      36.007   1.333   5.315  0.00  0.00    +0.000 C 
ATOM     29  C   UNL     1      35.738   2.815   5.605  0.00  0.00    +0.000 C 
ATOM     30  C   UNL     1      35.868   3.097   7.066  0.00  0.00    +0.000 C 
ATOM     31  C   UNL     1      37.283   3.342   7.507  0.00  0.00    +0.000 C 
ENDBRANCH  24  25
ENDBRANCH  23  24
ENDBRANCH  21  22
ENDBRANCH   2  21
TORSDOF 7
ENDMDL
MODEL 3
REMARK VINA RESULT:      -7.8      2.610      7.379
REMARK  Name = 
REMARK  7 active torsions:
REMARK  status: ('A' for Active; 'I' for Inactive)
REMARK    1  A    between atoms: C_2  and  C_3
REMARK    2  A    between atoms: C_2  and  C_14
REMARK    3  A    between atoms: C_2  and  C_20
REMARK    4  A    between atoms: C_3  and  C_4
REMARK    5  A    between atoms: C_5  and  C_6
REMARK    6  A    between atoms: C_6  and  N_7
REMARK    7  A    between atoms: C_23  and  C_24
REMARK                            x       y       z     vdW  Elec       q    Type
REMARK                         _______ _______ _______ _____ _____    ______ ____
ROOT
ATOM      1  O   UNL     1      35.251   3.488  15.534  0.00  0.00    +0.000 OA
ATOM      2  C   UNL     1      36.508   3.185  15.045  0.00  0.00    +0.000 C 
ENDROOT
BRANCH   2   3
ATOM      3  C   UNL     1      36.745   1.732  15.238  0.00  0.00    +0.000 A 
ATOM      4  C   UNL     1      35.763   0.984  15.838  0.00  0.00    +0.000 A 
ATOM      5  C   UNL     1      35.858  -0.375  16.075  0.00  0.00    +0.000 A 
ATOM      6  C   UNL     1      37.049  -0.968  15.657  0.00  0.00    +0.000 A 
ATOM      7  C   UNL     1      38.046  -0.227  15.051  0.00  0.00    +0.000 A 
ATOM      8  C   UNL     1      37.923   1.128  14.828  0.00  0.00    +0.000 A 
ENDBRANCH   2   3
BRANCH   2   9
ATOM      9  C   UNL     1      37.538   3.912  15.849  0.00  0.00    +0.000 A 
ATOM     10  C   UNL     1      38.606   4.567  15.267  0.00  0.00    +0.000 A 
ATOM     11  C   UNL     1      39.551   5.224  16.057  0.00  0.00    +0.000 A 
ATOM     12  C   UNL     1      39.472   5.257  17.429  0.00  0.00    +0.000 A 
ATOM     13  C   UNL     1      38.391   4.595  18.007  0.00  0.00    +0.000 A 
ATOM     14  C   UNL     1      37.459   3.947  17.227  0.00  0.00    +0.000 A 
BRANCH  12  15
ATOM     15  C   UNL     1      40.463   5.949  18.242  0.00  0.00    +0.000 A 
ATOM     16  C   UNL     1      40.337   6.206  19.591  0.00  0.00    +0.000 A 
ATOM     17  C   UNL     1      41.349   6.860  20.295  0.00  0.00    +0.000 A 
ATOM     18  C   UNL     1      42.505   7.274  19.678  0.00  0.00    +0.000 A 
ATOM     19  C   UNL     1      42.641   7.023  18.330  0.00  0.00    +0.000 A 
ATOM     20  C   UNL     1      41.639   6.378  17.646  0.00  0.00    +0.000 A 
ENDBRANCH  12  15
ENDBRANCH   2   9
BRANCH   2  21
ATOM     21  C   UNL     1      36.571   3.583  13.605  0.00  0.00    +0.000 C 
BRANCH  21  22
ATOM     22  C   UNL     1      35.982   4.879  13.316  0.00  0.00    +0.000 C 
ATOM     23  C   UNL     1      35.515   5.968  13.099  0.00  0.00    +0.000 C 
BRANCH  23  24
ATOM     24  C   UNL     1      34.972   7.308  12.868  0.00  0.00    +0.000 C 
BRANCH  24  25
ATOM     25  N   UNL     1      35.900   8.297  13.415  0.00  0.00    +0.000 NA
ATOM     26  C   UNL     1      35.865   9.528  12.619  0.00  0.00    +0.000 C 
ATOM     27  C   UNL     1      34.419   9.866  12.345  0.00  0.00    +0.000 C 
ATOM     28  C   UNL     1      34.008  11.106  13.146  0.00  0.00    +0.000 C 
ATOM     29  C   UNL     1      33.901  10.662  14.610  0.00  0.00    +0.000 C 
ATOM     30  C   UNL     1      34.051   9.180  14.723  0.00  0.00    +0.000 C 
ATOM     31  C   UNL     1      35.482   8.723  14.763  0.00  0.00    +0.000 C 
ENDBRANCH  24  25
ENDBRANCH  23  24
ENDBRANCH  21  22
ENDBRANCH   2  21
TORSDOF 7
ENDMDL
MODEL 4
REMARK VINA RESULT:      -7.7      5.939      7.841
REMARK  Name = 
REMARK  7 active torsions:
REMARK  status: ('A' for Active; 'I' for Inactive)
REMARK    1  A    between atoms: C_2  and  C_3
REMARK    2  A    between atoms: C_2  and  C_14
REMARK    3  A    between atoms: C_2  and  C_20
REMARK    4  A    between atoms: C_3  and  C_4
REMARK    5  A    between atoms: C_5  and  C_6
REMARK    6  A    between atoms: C_6  and  N_7
REMARK    7  A    between atoms: C_23  and  C_24
REMARK                            x       y       z     vdW  Elec       q    Type
REMARK                         _______ _______ _______ _____ _____    ______ ____
ROOT
ATOM      1  O   UNL     1      36.270  -2.786  14.880  0.00  0.00    +0.000 OA
ATOM      2  C   UNL     1      37.186  -2.855  15.913  0.00  0.00    +0.000 C 
ENDROOT
BRANCH   2   3
ATOM      3  C   UNL     1      36.677  -2.037  17.043  0.00  0.00    +0.000 A 
ATOM      4  C   UNL     1      35.516  -1.327  16.864  0.00  0.00    +0.000 A 
ATOM      5  C   UNL     1      34.935  -0.530  17.833  0.00  0.00    +0.000 A 
ATOM      6  C   UNL     1      35.617  -0.484  19.049  0.00  0.00    +0.000 A 
ATOM      7  C   UNL     1      36.786  -1.194  19.244  0.00  0.00    +0.000 A 
ATOM      8  C   UNL     1      37.342  -1.981  18.258  0.00  0.00    +0.000 A 
ENDBRANCH   2   3
BRANCH   2   9
ATOM      9  C   UNL     1      38.476  -2.241  15.470  0.00  0.00    +0.000 A 
ATOM     10  C   UNL     1      38.568  -0.929  15.050  0.00  0.00    +0.000 A 
ATOM     11  C   UNL     1      39.792  -0.400  14.636  0.00  0.00    +0.000 A 
ATOM     12  C   UNL     1      40.950  -1.141  14.623  0.00  0.00    +0.000 A 
ATOM     13  C   UNL     1      40.848  -2.464  15.050  0.00  0.00    +0.000 A 
ATOM     14  C   UNL     1      39.640  -2.984  15.459  0.00  0.00    +0.000 A 
BRANCH  12  15
ATOM     15  C   UNL     1      42.220  -0.577  14.191  0.00  0.00    +0.000 A 
ATOM     16  C   UNL     1      42.358   0.540  13.393  0.00  0.00    +0.000 A 
ATOM     17  C   UNL     1      43.620   1.021  13.043  0.00  0.00    +0.000 A 
ATOM     18  C   UNL     1      44.771   0.408  13.475  0.00  0.00    +0.000 A 
ATOM     19  C   UNL     1      44.646  -0.709  14.273  0.00  0.00    +0.000 A 
ATOM     20  C   UNL     1      43.399  -1.175  14.612  0.00  0.00    +0.000 A 
ENDBRANCH  12  15
ENDBRANCH   2   9
BRANCH   2  21
ATOM     21  C   UNL     1      37.376  -4.289  16.292  0.00  0.00    +0.000 C 
BRANCH  21  22
ATOM     22  C   UNL     1      36.219  -5.131  16.042  0.00  0.00    +0.000 C 
ATOM     23  C   UNL     1      35.268  -5.831  15.803  0.00  0.00    +0.000 C 
BRANCH  23  24
ATOM     24  C   UNL     1      34.122  -6.680  15.469  0.00  0.00    +0.000 C 
BRANCH  24  25
ATOM     25  N   UNL     1      34.308  -7.992  16.089  0.00  0.00    +0.000 NA
ATOM     26  C   UNL     1      33.277  -8.228  17.105  0.00  0.00    +0.000 C 
ATOM     27  C   UNL     1      31.947  -7.805  16.529  0.00  0.00    +0.000 C 
ATOM     28  C   UNL     1      31.079  -9.037  16.251  0.00  0.00    +0.000 C 
ATOM     29  C   UNL     1      31.687  -9.730  15.025  0.00  0.00    +0.000 C 
ATOM     30  C   UNL     1      32.773  -8.893  14.433  0.00  0.00    +0.000 C 
ATOM     31  C   UNL     1      34.104  -9.072  15.106  0.00  0.00    +0.000 C 
ENDBRANCH  24  25
ENDBRANCH  23  24
ENDBRANCH  21  22
ENDBRANCH   2  21
TORSDOF 7
ENDMDL
MODEL 5
REMARK VINA RESULT:      -7.6      1.855      2.284
REMARK  Name = 
REMARK  7 active torsions:
REMARK  status: ('A' for Active; 'I' for Inactive)
REMARK    1  A    between atoms: C_2  and  C_3
REMARK    2  A    between atoms: C_2  and  C_14
REMARK    3  A    between atoms: C_2  and  C_20
REMARK    4  A    between atoms: C_3  and  C_4
REMARK    5  A    between atoms: C_5  and  C_6
REMARK    6  A    between atoms: C_6  and  N_7
REMARK    7  A    between atoms: C_23  and  C_24
REMARK                            x       y       z     vdW  Elec       q    Type
REMARK                         _______ _______ _______ _____ _____    ______ ____
ROOT
ATOM      1  O   UNL     1      37.354   3.777  12.932  0.00  0.00    +0.000 OA
ATOM      2  C   UNL     1      36.431   4.121  13.901  0.00  0.00    +0.000 C 
ENDROOT
BRANCH   2   3
ATOM      3  C   UNL     1      35.563   5.196  13.359  0.00  0.00    +0.000 A 
ATOM      4  C   UNL     1      34.554   5.682  14.152  0.00  0.00    +0.000 A 
ATOM      5  C   UNL     1      33.678   6.682  13.769  0.00  0.00    +0.000 A 
ATOM      6  C   UNL     1      33.882   7.188  12.485  0.00  0.00    +0.000 A 
ATOM      7  C   UNL     1      34.894   6.709  11.676  0.00  0.00    +0.000 A 
ATOM      8  C   UNL     1      35.753   5.711  12.086  0.00  0.00    +0.000 A 
ENDBRANCH   2   3
BRANCH   2   9
ATOM      9  C   UNL     1      37.147   4.686  15.086  0.00  0.00    +0.000 A 
ATOM     10  C   UNL     1      37.392   3.947  16.227  0.00  0.00    +0.000 A 
ATOM     11  C   UNL     1      38.056   4.519  17.314  0.00  0.00    +0.000 A 
ATOM     12  C   UNL     1      38.494   5.822  17.310  0.00  0.00    +0.000 A 
ATOM     13  C   UNL     1      38.244   6.559  16.154  0.00  0.00    +0.000 A 
ATOM     14  C   UNL     1      37.589   5.994  15.082  0.00  0.00    +0.000 A 
BRANCH  12  15
ATOM     15  C   UNL     1      39.187   6.405  18.449  0.00  0.00    +0.000 A 
ATOM     16  C   UNL     1      38.675   7.394  19.264  0.00  0.00    +0.000 A 
ATOM     17  C   UNL     1      39.405   7.881  20.348  0.00  0.00    +0.000 A 
ATOM     18  C   UNL     1      40.657   7.402  20.648  0.00  0.00    +0.000 A 
ATOM     19  C   UNL     1      41.179   6.414  19.841  0.00  0.00    +0.000 A 
ATOM     20  C   UNL     1      40.452   5.941  18.776  0.00  0.00    +0.000 A 
ENDBRANCH  12  15
ENDBRANCH   2   9
BRANCH   2  21
ATOM     21  C   UNL     1      35.652   2.900  14.277  0.00  0.00    +0.000 C 
BRANCH  21  22
ATOM     22  C   UNL     1      36.300   1.648  13.929  0.00  0.00    +0.000 C 
ATOM     23  C   UNL     1      36.835   0.617  13.609  0.00  0.00    +0.000 C 
BRANCH  23  24
ATOM     24  C   UNL     1      37.476  -0.627  13.177  0.00  0.00    +0.000 C 
BRANCH  24  25
ATOM     25  N   UNL     1      37.596  -1.523  14.326  0.00  0.00    +0.000 NA
ATOM     26  C   UNL     1      38.171  -2.808  13.916  0.00  0.00    +0.000 C 
ATOM     27  C   UNL     1      39.343  -2.526  13.005  0.00  0.00    +0.000 C 
ATOM     28  C   UNL     1      40.656  -2.869  13.717  0.00  0.00    +0.000 C 
ATOM     29  C   UNL     1      40.876  -1.779  14.773  0.00  0.00    +0.000 C 
ATOM     30  C   UNL     1      39.861  -0.692  14.626  0.00  0.00    +0.000 C 
ATOM     31  C   UNL     1      38.557  -0.992  15.310  0.00  0.00    +0.000 C 
ENDBRANCH  24  25
ENDBRANCH  23  24
ENDBRANCH  21  22
ENDBRANCH   2  21
TORSDOF 7
ENDMDL
MODEL 6
REMARK VINA RESULT:      -7.6      2.332      2.765
REMARK  Name = 
REMARK  7 active torsions:
REMARK  status: ('A' for Active; 'I' for Inactive)
REMARK    1  A    between atoms: C_2  and  C_3
REMARK    2  A    between atoms: C_2  and  C_14
REMARK    3  A    between atoms: C_2  and  C_20
REMARK    4  A    between atoms: C_3  and  C_4
REMARK    5  A    between atoms: C_5  and  C_6
REMARK    6  A    between atoms: C_6  and  N_7
REMARK    7  A    between atoms: C_23  and  C_24
REMARK                            x       y       z     vdW  Elec       q    Type
REMARK                         _______ _______ _______ _____ _____    ______ ____
ROOT
ATOM      1  O   UNL     1      37.662   3.530  12.678  0.00  0.00    +0.000 OA
ATOM      2  C   UNL     1      36.911   3.833  13.798  0.00  0.00    +0.000 C 
ENDROOT
BRANCH   2   3
ATOM      3  C   UNL     1      35.940   4.896  13.435  0.00  0.00    +0.000 A 
ATOM      4  C   UNL     1      36.057   5.494  12.205  0.00  0.00    +0.000 A 
ATOM      5  C   UNL     1      35.219   6.494  11.745  0.00  0.00    +0.000 A 
ATOM      6  C   UNL     1      34.212   6.876  12.630  0.00  0.00    +0.000 A 
ATOM      7  C   UNL     1      34.082   6.283  13.871  0.00  0.00    +0.000 A 
ATOM      8  C   UNL     1      34.933   5.288  14.303  0.00  0.00    +0.000 A 
ENDBRANCH   2   3
BRANCH   2   9
ATOM      9  C   UNL     1      37.807   4.395  14.855  0.00  0.00    +0.000 A 
ATOM     10  C   UNL     1      38.957   5.100  14.555  0.00  0.00    +0.000 A 
ATOM     11  C   UNL     1      39.769   5.599  15.574  0.00  0.00    +0.000 A 
ATOM     12  C   UNL     1      39.478   5.420  16.906  0.00  0.00    +0.000 A 
ATOM     13  C   UNL     1      38.316   4.708  17.199  0.00  0.00    +0.000 A 
ATOM     14  C   UNL     1      37.515   4.217  16.192  0.00  0.00    +0.000 A 
BRANCH  12  15
ATOM     15  C   UNL     1      40.333   5.947  17.960  0.00  0.00    +0.000 A 
ATOM     16  C   UNL     1      41.645   6.336  17.791  0.00  0.00    +0.000 A 
ATOM     17  C   UNL     1      42.385   6.849  18.857  0.00  0.00    +0.000 A 
ATOM     18  C   UNL     1      41.841   6.987  20.112  0.00  0.00    +0.000 A 
ATOM     19  C   UNL     1      40.530   6.602  20.292  0.00  0.00    +0.000 A 
ATOM     20  C   UNL     1      39.811   6.098  19.236  0.00  0.00    +0.000 A 
ENDBRANCH  12  15
ENDBRANCH   2   9
BRANCH   2  21
ATOM     21  C   UNL     1      36.235   2.586  14.274  0.00  0.00    +0.000 C 
BRANCH  21  22
ATOM     22  C   UNL     1      37.122   1.448  14.430  0.00  0.00    +0.000 C 
ATOM     23  C   UNL     1      37.835   0.483  14.546  0.00  0.00    +0.000 C 
BRANCH  23  24
ATOM     24  C   UNL     1      38.668  -0.714  14.670  0.00  0.00    +0.000 C 
BRANCH  24  25
ATOM     25  N   UNL     1      40.059  -0.354  14.398  0.00  0.00    +0.000 NA
ATOM     26  C   UNL     1      40.946  -1.488  14.681  0.00  0.00    +0.000 C 
ATOM     27  C   UNL     1      40.319  -2.730  14.093  0.00  0.00    +0.000 C 
ATOM     28  C   UNL     1      41.126  -3.199  12.877  0.00  0.00    +0.000 C 
ATOM     29  C   UNL     1      40.836  -2.200  11.750  0.00  0.00    +0.000 C 
ATOM     30  C   UNL     1      39.760  -1.246  12.157  0.00  0.00    +0.000 C 
ATOM     31  C   UNL     1      40.262  -0.083  12.963  0.00  0.00    +0.000 C 
ENDBRANCH  24  25
ENDBRANCH  23  24
ENDBRANCH  21  22
ENDBRANCH   2  21
TORSDOF 7
ENDMDL
MODEL 7
REMARK VINA RESULT:      -7.5      4.097      8.985
REMARK  Name = 
REMARK  7 active torsions:
REMARK  status: ('A' for Active; 'I' for Inactive)
REMARK    1  A    between atoms: C_2  and  C_3
REMARK    2  A    between atoms: C_2  and  C_14
REMARK    3  A    between atoms: C_2  and  C_20
REMARK    4  A    between atoms: C_3  and  C_4
REMARK    5  A    between atoms: C_5  and  C_6
REMARK    6  A    between atoms: C_6  and  N_7
REMARK    7  A    between atoms: C_23  and  C_24
REMARK                            x       y       z     vdW  Elec       q    Type
REMARK                         _______ _______ _______ _____ _____    ______ ____
ROOT
ATOM      1  O   UNL     1      42.157  -0.975  11.570  0.00  0.00    +0.000 OA
ATOM      2  C   UNL     1      41.927  -0.570  12.871  0.00  0.00    +0.000 C 
ENDROOT
BRANCH   2   3
ATOM      3  C   UNL     1      43.122  -0.911  13.683  0.00  0.00    +0.000 A 
ATOM      4  C   UNL     1      43.716  -2.133  13.489  0.00  0.00    +0.000 A 
ATOM      5  C   UNL     1      44.832  -2.573  14.178  0.00  0.00    +0.000 A 
ATOM      6  C   UNL     1      45.342  -1.674  15.115  0.00  0.00    +0.000 A 
ATOM      7  C   UNL     1      44.755  -0.440  15.320  0.00  0.00    +0.000 A 
ATOM      8  C   UNL     1      43.642  -0.029  14.618  0.00  0.00    +0.000 A 
ENDBRANCH   2   3
BRANCH   2   9
ATOM      9  C   UNL     1      40.777  -1.343  13.432  0.00  0.00    +0.000 A 
ATOM     10  C   UNL     1      40.695  -1.687  14.767  0.00  0.00    +0.000 A 
ATOM     11  C   UNL     1      39.606  -2.418  15.246  0.00  0.00    +0.000 A 
ATOM     12  C   UNL     1      38.577  -2.829  14.432  0.00  0.00    +0.000 A 
ATOM     13  C   UNL     1      38.668  -2.477  13.087  0.00  0.00    +0.000 A 
ATOM     14  C   UNL     1      39.742  -1.755  12.616  0.00  0.00    +0.000 A 
BRANCH  12  15
ATOM     15  C   UNL     1      37.446  -3.589  14.944  0.00  0.00    +0.000 A 
ATOM     16  C   UNL     1      37.491  -4.436  16.033  0.00  0.00    +0.000 A 
ATOM     17  C   UNL     1      36.350  -5.111  16.465  0.00  0.00    +0.000 A 
ATOM     18  C   UNL     1      35.141  -4.964  15.830  0.00  0.00    +0.000 A 
ATOM     19  C   UNL     1      35.083  -4.121  14.741  0.00  0.00    +0.000 A 
ATOM     20  C   UNL     1      36.213  -3.460  14.323  0.00  0.00    +0.000 A 
ENDBRANCH  12  15
ENDBRANCH   2   9
BRANCH   2  21
ATOM     21  C   UNL     1      41.640   0.898  12.874  0.00  0.00    +0.000 C 
BRANCH  21  22
ATOM     22  C   UNL     1      40.453   1.273  13.620  0.00  0.00    +0.000 C 
ATOM     23  C   UNL     1      39.483   1.612  14.249  0.00  0.00    +0.000 C 
BRANCH  23  24
ATOM     24  C   UNL     1      38.327   2.058  15.030  0.00  0.00    +0.000 C 
BRANCH  24  25
ATOM     25  N   UNL     1      37.109   1.803  14.263  0.00  0.00    +0.000 NA
ATOM     26  C   UNL     1      36.710   0.397  14.387  0.00  0.00    +0.000 C 
ATOM     27  C   UNL     1      36.828   0.005  15.840  0.00  0.00    +0.000 C 
ATOM     28  C   UNL     1      35.433  -0.190  16.446  0.00  0.00    +0.000 C 
ATOM     29  C   UNL     1      34.827   1.211  16.601  0.00  0.00    +0.000 C 
ATOM     30  C   UNL     1      35.843   2.261  16.287  0.00  0.00    +0.000 C 
ATOM     31  C   UNL     1      35.969   2.555  14.819  0.00  0.00    +0.000 C 
ENDBRANCH  24  25
ENDBRANCH  23  24
ENDBRANCH  21  22
ENDBRANCH   2  21
TORSDOF 7
ENDMDL
MODEL 8
REMARK VINA RESULT:      -7.5     24.813     26.817
REMARK  Name = 
REMARK  7 active torsions:
REMARK  status: ('A' for Active; 'I' for Inactive)
REMARK    1  A    between atoms: C_2  and  C_3
REMARK    2  A    between atoms: C_2  and  C_14
REMARK    3  A    between atoms: C_2  and  C_20
REMARK    4  A    between atoms: C_3  and  C_4
REMARK    5  A    between atoms: C_5  and  C_6
REMARK    6  A    between atoms: C_6  and  N_7
REMARK    7  A    between atoms: C_23  and  C_24
REMARK                            x       y       z     vdW  Elec       q    Type
REMARK                         _______ _______ _______ _____ _____    ______ ____
ROOT
ATOM      1  O   UNL     1      12.654  -1.189  28.417  0.00  0.00    +0.000 OA
ATOM      2  C   UNL     1      13.205   0.076  28.338  0.00  0.00    +0.000 C 
ENDROOT
BRANCH   2   3
ATOM      3  C   UNL     1      12.271   0.945  27.580  0.00  0.00    +0.000 A 
ATOM      4  C   UNL     1      11.152   0.374  27.026  0.00  0.00    +0.000 A 
ATOM      5  C   UNL     1      10.204   1.070  26.298  0.00  0.00    +0.000 A 
ATOM      6  C   UNL     1      10.453   2.434  26.151  0.00  0.00    +0.000 A 
ATOM      7  C   UNL     1      11.574   3.023  26.704  0.00  0.00    +0.000 A 
ATOM      8  C   UNL     1      12.503   2.303  27.425  0.00  0.00    +0.000 A 
ENDBRANCH   2   3
BRANCH   2   9
ATOM      9  C   UNL     1      14.480   0.011  27.559  0.00  0.00    +0.000 A 
ATOM     10  C   UNL     1      15.673   0.506  28.047  0.00  0.00    +0.000 A 
ATOM     11  C   UNL     1      16.838   0.433  27.280  0.00  0.00    +0.000 A 
ATOM     12  C   UNL     1      16.861  -0.123  26.022  0.00  0.00    +0.000 A 
ATOM     13  C   UNL     1      15.651  -0.620  25.539  0.00  0.00    +0.000 A 
ATOM     14  C   UNL     1      14.504  -0.548  26.297  0.00  0.00    +0.000 A 
BRANCH  12  15
ATOM     15  C   UNL     1      18.082  -0.195  25.234  0.00  0.00    +0.000 A 
ATOM     16  C   UNL     1      18.675  -1.363  24.801  0.00  0.00    +0.000 A 
ATOM     17  C   UNL     1      19.838  -1.335  24.031  0.00  0.00    +0.000 A 
ATOM     18  C   UNL     1      20.439  -0.151  23.674  0.00  0.00    +0.000 A 
ATOM     19  C   UNL     1      19.855   1.022  24.101  0.00  0.00    +0.000 A 
ATOM     20  C   UNL     1      18.710   0.983  24.859  0.00  0.00    +0.000 A 
ENDBRANCH  12  15
ENDBRANCH   2   9
BRANCH   2  21
ATOM     21  C   UNL     1      13.449   0.581  29.725  0.00  0.00    +0.000 C 
BRANCH  21  22
ATOM     22  C   UNL     1      13.427  -0.449  30.748  0.00  0.00    +0.000 C 
ATOM     23  C   UNL     1      13.424  -1.282  31.619  0.00  0.00    +0.000 C 
BRANCH  23  24
ATOM     24  C   UNL     1      13.443  -2.267  32.702  0.00  0.00    +0.000 C 
BRANCH  24  25
ATOM     25  N   UNL     1      14.327  -1.787  33.764  0.00  0.00    +0.000 NA
ATOM     26  C   UNL     1      13.955  -2.387  35.049  0.00  0.00    +0.000 C 
ATOM     27  C   UNL     1      13.713  -3.861  34.825  0.00  0.00    +0.000 C 
ATOM     28  C   UNL     1      14.836  -4.681  35.471  0.00  0.00    +0.000 C 
ATOM     29  C   UNL     1      16.078  -4.482  34.594  0.00  0.00    +0.000 C 
ATOM     30  C   UNL     1      15.731  -3.729  33.352  0.00  0.00    +0.000 C 
ATOM     31  C   UNL     1      15.713  -2.238  33.539  0.00  0.00    +0.000 C 
ENDBRANCH  24  25
ENDBRANCH  23  24
ENDBRANCH  21  22
ENDBRANCH   2  21
TORSDOF 7
ENDMDL
MODEL 9
REMARK VINA RESULT:      -7.4      3.491      8.819
REMARK  Name = 
REMARK  7 active torsions:
REMARK  status: ('A' for Active; 'I' for Inactive)
REMARK    1  A    between atoms: C_2  and  C_3
REMARK    2  A    between atoms: C_2  and  C_14
REMARK    3  A    between atoms: C_2  and  C_20
REMARK    4  A    between atoms: C_3  and  C_4
REMARK    5  A    between atoms: C_5  and  C_6
REMARK    6  A    between atoms: C_6  and  N_7
REMARK    7  A    between atoms: C_23  and  C_24
REMARK                            x       y       z     vdW  Elec       q    Type
REMARK                         _______ _______ _______ _____ _____    ______ ____
ROOT
ATOM      1  O   UNL     1      39.167   2.183  14.551  0.00  0.00    +0.000 OA
ATOM      2  C   UNL     1      38.099   2.993  14.213  0.00  0.00    +0.000 C 
ENDROOT
BRANCH   2   3
ATOM      3  C   UNL     1      36.917   2.559  15.000  0.00  0.00    +0.000 A 
ATOM      4  C   UNL     1      37.019   1.416  15.753  0.00  0.00    +0.000 A 
ATOM      5  C   UNL     1      35.995   0.904  16.530  0.00  0.00    +0.000 A 
ATOM      6  C   UNL     1      34.810   1.639  16.507  0.00  0.00    +0.000 A 
ATOM      7  C   UNL     1      34.694   2.792  15.754  0.00  0.00    +0.000 A 
ATOM      8  C   UNL     1      35.732   3.278  14.988  0.00  0.00    +0.000 A 
ENDBRANCH   2   3
BRANCH   2   9
ATOM      9  C   UNL     1      37.766   2.794  12.769  0.00  0.00    +0.000 A 
ATOM     10  C   UNL     1      37.451   1.555  12.244  0.00  0.00    +0.000 A 
ATOM     11  C   UNL     1      37.156   1.414  10.887  0.00  0.00    +0.000 A 
ATOM     12  C   UNL     1      37.162   2.476  10.015  0.00  0.00    +0.000 A 
ATOM     13  C   UNL     1      37.480   3.722  10.553  0.00  0.00    +0.000 A 
ATOM     14  C   UNL     1      37.771   3.860  11.892  0.00  0.00    +0.000 A 
BRANCH  12  15
ATOM     15  C   UNL     1      36.850   2.315   8.602  0.00  0.00    +0.000 A 
ATOM     16  C   UNL     1      37.284   1.272   7.812  0.00  0.00    +0.000 A 
ATOM     17  C   UNL     1      36.919   1.189   6.468  0.00  0.00    +0.000 A 
ATOM     18  C   UNL     1      36.118   2.137   5.878  0.00  0.00    +0.000 A 
ATOM     19  C   UNL     1      35.679   3.185   6.659  0.00  0.00    +0.000 A 
ATOM     20  C   UNL     1      36.044   3.257   7.981  0.00  0.00    +0.000 A 
ENDBRANCH  12  15
ENDBRANCH   2   9
BRANCH   2  21
ATOM     21  C   UNL     1      38.471   4.416  14.487  0.00  0.00    +0.000 C 
BRANCH  21  22
ATOM     22  C   UNL     1      38.706   4.713  15.888  0.00  0.00    +0.000 C 
ATOM     23  C   UNL     1      38.933   4.965  17.045  0.00  0.00    +0.000 C 
BRANCH  23  24
ATOM     24  C   UNL     1      39.253   5.272  18.440  0.00  0.00    +0.000 C 
BRANCH  24  25
ATOM     25  N   UNL     1      39.392   6.720  18.587  0.00  0.00    +0.000 NA
ATOM     26  C   UNL     1      39.861   7.056  19.935  0.00  0.00    +0.000 C 
ATOM     27  C   UNL     1      40.987   6.113  20.286  0.00  0.00    +0.000 C 
ATOM     28  C   UNL     1      42.320   6.869  20.305  0.00  0.00    +0.000 C 
ATOM     29  C   UNL     1      42.672   7.165  18.841  0.00  0.00    +0.000 C 
ATOM     30  C   UNL     1      41.717   6.477  17.921  0.00  0.00    +0.000 C 
ATOM     31  C   UNL     1      40.444   7.242  17.695  0.00  0.00    +0.000 C 
ENDBRANCH  24  25
ENDBRANCH  23  24
ENDBRANCH  21  22
ENDBRANCH   2  21
TORSDOF 7
ENDMDL
MODEL 10
REMARK VINA RESULT:      -7.4      3.353      6.817
REMARK  Name = 
REMARK  7 active torsions:
REMARK  status: ('A' for Active; 'I' for Inactive)
REMARK    1  A    between atoms: C_2  and  C_3
REMARK    2  A    between atoms: C_2  and  C_14
REMARK    3  A    between atoms: C_2  and  C_20
REMARK    4  A    between atoms: C_3  and  C_4
REMARK    5  A    between atoms: C_5  and  C_6
REMARK    6  A    between atoms: C_6  and  N_7
REMARK    7  A    between atoms: C_23  and  C_24
REMARK                            x       y       z     vdW  Elec       q    Type
REMARK                         _______ _______ _______ _____ _____    ______ ____
ROOT
ATOM      1  O   UNL     1      40.293   7.322  17.483  0.00  0.00    +0.000 OA
ATOM      2  C   UNL     1      40.253   7.133  18.852  0.00  0.00    +0.000 C 
ENDROOT
BRANCH   2   3
ATOM      3  C   UNL     1      39.809   8.401  19.484  0.00  0.00    +0.000 A 
ATOM      4  C   UNL     1      38.758   8.357  20.366  0.00  0.00    +0.000 A 
ATOM      5  C   UNL     1      38.248   9.463  21.023  0.00  0.00    +0.000 A 
ATOM      6  C   UNL     1      38.882  10.670  20.730  0.00  0.00    +0.000 A 
ATOM      7  C   UNL     1      39.941  10.729  19.844  0.00  0.00    +0.000 A 
ATOM      8  C   UNL     1      40.428   9.609  19.204  0.00  0.00    +0.000 A 
ENDBRANCH   2   3
BRANCH   2   9
ATOM      9  C   UNL     1      41.634   6.851  19.352  0.00  0.00    +0.000 A 
ATOM     10  C   UNL     1      42.758   7.043  18.572  0.00  0.00    +0.000 A 
ATOM     11  C   UNL     1      44.028   6.756  19.077  0.00  0.00    +0.000 A 
ATOM     12  C   UNL     1      44.226   6.277  20.350  0.00  0.00    +0.000 A 
ATOM     13  C   UNL     1      43.086   6.087  21.129  0.00  0.00    +0.000 A 
ATOM     14  C   UNL     1      41.834   6.370  20.630  0.00  0.00    +0.000 A 
BRANCH  12  15
ATOM     15  C   UNL     1      45.556   5.983  20.865  0.00  0.00    +0.000 A 
ATOM     16  C   UNL     1      45.894   5.941  22.201  0.00  0.00    +0.000 A 
ATOM     17  C   UNL     1      47.194   5.632  22.604  0.00  0.00    +0.000 A 
ATOM     18  C   UNL     1      48.186   5.359  21.693  0.00  0.00    +0.000 A 
ATOM     19  C   UNL     1      47.859   5.399  20.355  0.00  0.00    +0.000 A 
ATOM     20  C   UNL     1      46.577   5.704  19.969  0.00  0.00    +0.000 A 
ENDBRANCH  12  15
ENDBRANCH   2   9
BRANCH   2  21
ATOM     21  C   UNL     1      39.329   5.996  19.154  0.00  0.00    +0.000 C 
BRANCH  21  22
ATOM     22  C   UNL     1      38.965   5.199  17.996  0.00  0.00    +0.000 C 
ATOM     23  C   UNL     1      38.645   4.563  17.024  0.00  0.00    +0.000 C 
BRANCH  23  24
ATOM     24  C   UNL     1      38.227   3.822  15.832  0.00  0.00    +0.000 C 
BRANCH  24  25
ATOM     25  N   UNL     1      36.772   3.905  15.707  0.00  0.00    +0.000 NA
ATOM     26  C   UNL     1      36.360   3.625  14.328  0.00  0.00    +0.000 C 
ATOM     27  C   UNL     1      37.128   2.417  13.847  0.00  0.00    +0.000 C 
ATOM     28  C   UNL     1      36.188   1.214  13.717  0.00  0.00    +0.000 C 
ATOM     29  C   UNL     1      35.860   0.763  15.146  0.00  0.00    +0.000 C 
ATOM     30  C   UNL     1      36.686   1.514  16.138  0.00  0.00    +0.000 C 
ATOM     31  C   UNL     1      36.114   2.854  16.505  0.00  0.00    +0.000 C 
ENDBRANCH  24  25
ENDBRANCH  23  24
ENDBRANCH  21  22
ENDBRANCH   2  21
TORSDOF 7
ENDMDL
