MODEL 1
REMARK VINA RESULT:      -8.6      0.000      0.000
REMARK  Name = 
REMARK  7 active torsions:
REMARK  status: ('A' for Active; 'I' for Inactive)
REMARK    1  A    between atoms: O_2  and  C_3
REMARK    2  A    between atoms: C_8  and  N_9
REMARK    3  A    between atoms: C_12  and  N_13
REMARK    4  A    between atoms: N_13  and  C_14
REMARK    5  A    between atoms: C_17  and  C_18
REMARK    6  A    between atoms: C_23  and  S_24
REMARK    7  A    between atoms: S_24  and  C_25
REMARK                            x       y       z     vdW  Elec       q    Type
REMARK                         _______ _______ _______ _____ _____    ______ ____
ROOT
ATOM      1  N   UNL     1      36.198   5.072  14.146  0.00  0.00    +0.000 N 
ATOM      2  C   UNL     1      35.807   3.898  14.838  0.00  0.00    +0.000 C 
ATOM      3  O   UNL     1      34.823   3.174  14.458  0.00  0.00    +0.000 OA
ATOM      4  C   UNL     1      36.660   3.674  15.973  0.00  0.00    +0.000 C 
ATOM      5  C   UNL     1      37.571   4.670  16.015  0.00  0.00    +0.000 C 
ATOM      6  C   UNL     1      37.330   5.564  14.905  0.00  0.00    +0.000 C 
ATOM      7  O   UNL     1      37.932   6.624  14.551  0.00  0.00    +0.000 OA
ENDROOT
BRANCH   1  13
ATOM      8  C   UNL     1      34.582   6.533  13.129  0.00  0.00    +0.000 A 
ATOM      9  C   UNL     1      34.073   7.129  12.008  0.00  0.00    +0.000 A 
ATOM     10  C   UNL     1      34.593   6.930  10.743  0.00  0.00    +0.000 A 
ATOM     11  C   UNL     1      35.677   6.082  10.657  0.00  0.00    +0.000 A 
ATOM     12  C   UNL     1      36.248   5.443  11.734  0.00  0.00    +0.000 A 
ATOM     13  C   UNL     1      35.668   5.692  12.985  0.00  0.00    +0.000 A 
BRANCH   8  15
ATOM     14  C   UNL     1      33.679   8.044  14.767  0.00  0.00    +0.000 C 
ATOM     15  O   UNL     1      34.062   6.730  14.401  0.00  0.00    +0.000 OA
ENDBRANCH   8  15
ENDBRANCH   1  13
BRANCH   4  16
ATOM     16  N   UNL     1      36.585   2.624  16.891  0.00  0.00    +0.000 NA
BRANCH  16  17
ATOM     17  C   UNL     1      36.362   1.272  16.491  0.00  0.00    +0.000 A 
ATOM     18  C   UNL     1      35.332   0.558  17.048  0.00  0.00    +0.000 A 
ATOM     19  C   UNL     1      35.050  -0.759  16.713  0.00  0.00    +0.000 A 
ATOM     20  C   UNL     1      35.857  -1.365  15.769  0.00  0.00    +0.000 A 
ATOM     21  C   UNL     1      36.894  -0.658  15.204  0.00  0.00    +0.000 A 
ATOM     22  C   UNL     1      37.148   0.651  15.559  0.00  0.00    +0.000 A 
BRANCH  20  23
ATOM     23  C   UNL     1      35.637  -2.766  15.347  0.00  0.00    +0.000 C 
ATOM     24  C   UNL     1      36.608  -3.140  14.249  0.00  0.00    +0.000 C 
ATOM     25  C   UNL     1      35.720  -3.734  16.504  0.00  0.00    +0.000 C 
ENDBRANCH  20  23
ENDBRANCH  16  17
ENDBRANCH   4  16
BRANCH   5  26
ATOM     26  S   UNL     1      38.810   4.778  17.256  0.00  0.00    +0.000 S 
BRANCH  26  27
ATOM     27  C   UNL     1      38.684   6.190  18.276  0.00  0.00    +0.000 A 
ATOM     28  C   UNL     1      37.852   7.270  18.147  0.00  0.00    +0.000 A 
ATOM     29  C   UNL     1      37.805   8.342  18.985  0.00  0.00    +0.000 A 
ATOM     30  C   UNL     1      38.689   8.321  20.060  0.00  0.00    +0.000 A 
ATOM     31  C   UNL     1      38.730   9.435  21.042  0.00  0.00    +0.000 C 
ATOM     32  C   UNL     1      39.549   7.267  20.245  0.00  0.00    +0.000 A 
ATOM     33  C   UNL     1      39.562   6.223  19.389  0.00  0.00    +0.000 A 
ENDBRANCH  26  27
ENDBRANCH   5  26
TORSDOF 7
ENDMDL
MODEL 2
REMARK VINA RESULT:      -8.4      2.248      3.658
REMARK  Name = 
REMARK  7 active torsions:
REMARK  status: ('A' for Active; 'I' for Inactive)
REMARK    1  A    between atoms: O_2  and  C_3
REMARK    2  A    between atoms: C_8  and  N_9
REMARK    3  A    between atoms: C_12  and  N_13
REMARK    4  A    between atoms: N_13  and  C_14
REMARK    5  A    between atoms: C_17  and  C_18
REMARK    6  A    between atoms: C_23  and  S_24
REMARK    7  A    between atoms: S_24  and  C_25
REMARK                            x       y       z     vdW  Elec       q    Type
REMARK                         _______ _______ _______ _____ _____    ______ ____
ROOT
ATOM      1  N   UNL     1      35.374   7.731  14.484  0.00  0.00    +0.000 N 
ATOM      2  C   UNL     1      34.841   6.524  13.965  0.00  0.00    +0.000 C 
ATOM      3  O   UNL     1      33.655   6.446  13.491  0.00  0.00    +0.000 OA
ATOM      4  C   UNL     1      35.809   5.465  14.056  0.00  0.00    +0.000 C 
ATOM      5  C   UNL     1      36.929   5.969  14.617  0.00  0.00    +0.000 C 
ATOM      6  C   UNL     1      36.714   7.369  14.901  0.00  0.00    +0.000 C 
ATOM      7  O   UNL     1      37.483   8.235  15.421  0.00  0.00    +0.000 OA
ENDROOT
BRANCH   1  13
ATOM      8  C   UNL     1      34.772   9.835  13.488  0.00  0.00    +0.000 A 
ATOM      9  C   UNL     1      34.225  11.082  13.610  0.00  0.00    +0.000 A 
ATOM     10  C   UNL     1      33.706  11.568  14.794  0.00  0.00    +0.000 A 
ATOM     11  C   UNL     1      33.765  10.719  15.879  0.00  0.00    +0.000 A 
ATOM     12  C   UNL     1      34.299   9.451  15.842  0.00  0.00    +0.000 A 
ATOM     13  C   UNL     1      34.807   9.025  14.607  0.00  0.00    +0.000 A 
BRANCH   8  15
ATOM     14  C   UNL     1      34.407   9.140  11.216  0.00  0.00    +0.000 C 
ATOM     15  O   UNL     1      35.295   9.343  12.300  0.00  0.00    +0.000 OA
ENDBRANCH   8  15
ENDBRANCH   1  13
BRANCH   4  16
ATOM     16  N   UNL     1      35.650   4.138  13.649  0.00  0.00    +0.000 NA
BRANCH  16  17
ATOM     17  C   UNL     1      35.620   3.052  14.573  0.00  0.00    +0.000 A 
ATOM     18  C   UNL     1      36.371   1.930  14.331  0.00  0.00    +0.000 A 
ATOM     19  C   UNL     1      36.396   0.832  15.180  0.00  0.00    +0.000 A 
ATOM     20  C   UNL     1      35.619   0.890  16.322  0.00  0.00    +0.000 A 
ATOM     21  C   UNL     1      34.861   2.010  16.576  0.00  0.00    +0.000 A 
ATOM     22  C   UNL     1      34.858   3.087  15.710  0.00  0.00    +0.000 A 
BRANCH  20  23
ATOM     23  C   UNL     1      35.579  -0.230  17.288  0.00  0.00    +0.000 C 
ATOM     24  C   UNL     1      35.814   0.281  18.692  0.00  0.00    +0.000 C 
ATOM     25  C   UNL     1      34.292  -1.016  17.200  0.00  0.00    +0.000 C 
ENDBRANCH  20  23
ENDBRANCH  16  17
ENDBRANCH   4  16
BRANCH   5  26
ATOM     26  S   UNL     1      38.366   5.002  14.912  0.00  0.00    +0.000 S 
BRANCH  26  27
ATOM     27  C   UNL     1      39.247   5.447  16.354  0.00  0.00    +0.000 A 
ATOM     28  C   UNL     1      40.488   6.017  16.460  0.00  0.00    +0.000 A 
ATOM     29  C   UNL     1      41.117   6.340  17.623  0.00  0.00    +0.000 A 
ATOM     30  C   UNL     1      40.424   6.058  18.796  0.00  0.00    +0.000 A 
ATOM     31  C   UNL     1      41.009   6.366  20.127  0.00  0.00    +0.000 C 
ATOM     32  C   UNL     1      39.176   5.488  18.758  0.00  0.00    +0.000 A 
ATOM     33  C   UNL     1      38.588   5.183  17.581  0.00  0.00    +0.000 A 
ENDBRANCH  26  27
ENDBRANCH   5  26
TORSDOF 7
ENDMDL
MODEL 3
REMARK VINA RESULT:      -8.3      2.786      6.346
REMARK  Name = 
REMARK  7 active torsions:
REMARK  status: ('A' for Active; 'I' for Inactive)
REMARK    1  A    between atoms: O_2  and  C_3
REMARK    2  A    between atoms: C_8  and  N_9
REMARK    3  A    between atoms: C_12  and  N_13
REMARK    4  A    between atoms: N_13  and  C_14
REMARK    5  A    between atoms: C_17  and  C_18
REMARK    6  A    between atoms: C_23  and  S_24
REMARK    7  A    between atoms: S_24  and  C_25
REMARK                            x       y       z     vdW  Elec       q    Type
REMARK                         _______ _______ _______ _____ _____    ______ ____
ROOT
ATOM      1  N   UNL     1      38.323   4.393  16.149  0.00  0.00    +0.000 N 
ATOM      2  C   UNL     1      37.315   3.406  16.005  0.00  0.00    +0.000 C 
ATOM      3  O   UNL     1      36.359   3.276  16.846  0.00  0.00    +0.000 OA
ATOM      4  C   UNL     1      37.540   2.623  14.821  0.00  0.00    +0.000 C 
ATOM      5  C   UNL     1      38.657   3.087  14.219  0.00  0.00    +0.000 C 
ATOM      6  C   UNL     1      39.181   4.184  14.999  0.00  0.00    +0.000 C 
ATOM      7  O   UNL     1      40.203   4.914  14.817  0.00  0.00    +0.000 OA
ENDROOT
BRANCH   1  13
ATOM      8  C   UNL     1      38.072   6.666  16.891  0.00  0.00    +0.000 A 
ATOM      9  C   UNL     1      38.267   7.620  17.850  0.00  0.00    +0.000 A 
ATOM     10  C   UNL     1      38.892   7.365  19.056  0.00  0.00    +0.000 A 
ATOM     11  C   UNL     1      39.322   6.070  19.256  0.00  0.00    +0.000 A 
ATOM     12  C   UNL     1      39.166   5.052  18.343  0.00  0.00    +0.000 A 
ATOM     13  C   UNL     1      38.524   5.385  17.142  0.00  0.00    +0.000 A 
BRANCH   8  15
ATOM     14  C   UNL     1      36.862   8.195  15.484  0.00  0.00    +0.000 C 
ATOM     15  O   UNL     1      37.444   6.919  15.678  0.00  0.00    +0.000 OA
ENDBRANCH   8  15
ENDBRANCH   1  13
BRANCH   4  16
ATOM     16  N   UNL     1      36.763   1.563  14.350  0.00  0.00    +0.000 NA
BRANCH  16  17
ATOM     17  C   UNL     1      37.027   0.205  14.700  0.00  0.00    +0.000 A 
ATOM     18  C   UNL     1      37.468  -0.099  15.963  0.00  0.00    +0.000 A 
ATOM     19  C   UNL     1      37.748  -1.393  16.381  0.00  0.00    +0.000 A 
ATOM     20  C   UNL     1      37.567  -2.413  15.466  0.00  0.00    +0.000 A 
ATOM     21  C   UNL     1      37.125  -2.120  14.196  0.00  0.00    +0.000 A 
ATOM     22  C   UNL     1      36.856  -0.821  13.811  0.00  0.00    +0.000 A 
BRANCH  20  23
ATOM     23  C   UNL     1      37.838  -3.824  15.817  0.00  0.00    +0.000 C 
ATOM     24  C   UNL     1      38.844  -3.900  16.944  0.00  0.00    +0.000 C 
ATOM     25  C   UNL     1      36.576  -4.583  16.158  0.00  0.00    +0.000 C 
ENDBRANCH  20  23
ENDBRANCH  16  17
ENDBRANCH   4  16
BRANCH   5  26
ATOM     26  S   UNL     1      39.291   2.404  12.729  0.00  0.00    +0.000 S 
BRANCH  26  27
ATOM     27  C   UNL     1      39.861   0.761  12.879  0.00  0.00    +0.000 A 
ATOM     28  C   UNL     1      39.775  -0.264  11.974  0.00  0.00    +0.000 A 
ATOM     29  C   UNL     1      40.244  -1.528  12.156  0.00  0.00    +0.000 A 
ATOM     30  C   UNL     1      40.863  -1.784  13.377  0.00  0.00    +0.000 A 
ATOM     31  C   UNL     1      41.415  -3.127  13.692  0.00  0.00    +0.000 C 
ATOM     32  C   UNL     1      40.981  -0.800  14.327  0.00  0.00    +0.000 A 
ATOM     33  C   UNL     1      40.500   0.442  14.104  0.00  0.00    +0.000 A 
ENDBRANCH  26  27
ENDBRANCH   5  26
TORSDOF 7
ENDMDL
MODEL 4
REMARK VINA RESULT:      -8.2      1.870      6.745
REMARK  Name = 
REMARK  7 active torsions:
REMARK  status: ('A' for Active; 'I' for Inactive)
REMARK    1  A    between atoms: O_2  and  C_3
REMARK    2  A    between atoms: C_8  and  N_9
REMARK    3  A    between atoms: C_12  and  N_13
REMARK    4  A    between atoms: N_13  and  C_14
REMARK    5  A    between atoms: C_17  and  C_18
REMARK    6  A    between atoms: C_23  and  S_24
REMARK    7  A    between atoms: S_24  and  C_25
REMARK                            x       y       z     vdW  Elec       q    Type
REMARK                         _______ _______ _______ _____ _____    ______ ____
ROOT
ATOM      1  N   UNL     1      36.553   2.002  14.994  0.00  0.00    +0.000 N 
ATOM      2  C   UNL     1      35.588   3.009  14.743  0.00  0.00    +0.000 C 
ATOM      3  O   UNL     1      34.352   2.740  14.547  0.00  0.00    +0.000 OA
ATOM      4  C   UNL     1      36.201   4.309  14.746  0.00  0.00    +0.000 C 
ATOM      5  C   UNL     1      37.519   4.149  14.992  0.00  0.00    +0.000 C 
ATOM      6  C   UNL     1      37.791   2.739  15.154  0.00  0.00    +0.000 C 
ATOM      7  O   UNL     1      38.878   2.129  15.394  0.00  0.00    +0.000 OA
ENDROOT
BRANCH   1  13
ATOM      8  C   UNL     1      35.870   0.056  16.229  0.00  0.00    +0.000 A 
ATOM      9  C   UNL     1      35.753  -1.304  16.314  0.00  0.00    +0.000 A 
ATOM     10  C   UNL     1      36.166  -2.163  15.314  0.00  0.00    +0.000 A 
ATOM     11  C   UNL     1      36.716  -1.575  14.194  0.00  0.00    +0.000 A 
ATOM     12  C   UNL     1      36.871  -0.218  14.030  0.00  0.00    +0.000 A 
ATOM     13  C   UNL     1      36.430   0.592  15.085  0.00  0.00    +0.000 A 
BRANCH   8  15
ATOM     14  C   UNL     1      35.965   0.719  18.538  0.00  0.00    +0.000 C 
ATOM     15  O   UNL     1      35.457   0.922  17.231  0.00  0.00    +0.000 OA
ENDBRANCH   8  15
ENDBRANCH   1  13
BRANCH   4  16
ATOM     16  N   UNL     1      35.574   5.539  14.536  0.00  0.00    +0.000 NA
BRANCH  16  17
ATOM     17  C   UNL     1      35.222   6.006  13.234  0.00  0.00    +0.000 A 
ATOM     18  C   UNL     1      34.091   6.764  13.065  0.00  0.00    +0.000 A 
ATOM     19  C   UNL     1      33.681   7.255  11.833  0.00  0.00    +0.000 A 
ATOM     20  C   UNL     1      34.462   6.955  10.734  0.00  0.00    +0.000 A 
ATOM     21  C   UNL     1      35.599   6.195  10.891  0.00  0.00    +0.000 A 
ATOM     22  C   UNL     1      35.980   5.722  12.131  0.00  0.00    +0.000 A 
BRANCH  20  23
ATOM     23  C   UNL     1      34.108   7.433   9.379  0.00  0.00    +0.000 C 
ATOM     24  C   UNL     1      34.829   8.726   9.074  0.00  0.00    +0.000 C 
ATOM     25  C   UNL     1      34.377   6.393   8.316  0.00  0.00    +0.000 C 
ENDBRANCH  20  23
ENDBRANCH  16  17
ENDBRANCH   4  16
BRANCH   5  26
ATOM     26  S   UNL     1      38.644   5.496  15.081  0.00  0.00    +0.000 S 
BRANCH  26  27
ATOM     27  C   UNL     1      39.334   5.750  16.665  0.00  0.00    +0.000 A 
ATOM     28  C   UNL     1      38.767   5.537  17.893  0.00  0.00    +0.000 A 
ATOM     29  C   UNL     1      39.366   5.757  19.095  0.00  0.00    +0.000 A 
ATOM     30  C   UNL     1      40.671   6.240  19.053  0.00  0.00    +0.000 A 
ATOM     31  C   UNL     1      41.429   6.518  20.300  0.00  0.00    +0.000 C 
ATOM     32  C   UNL     1      41.297   6.474  17.853  0.00  0.00    +0.000 A 
ATOM     33  C   UNL     1      40.664   6.243  16.683  0.00  0.00    +0.000 A 
ENDBRANCH  26  27
ENDBRANCH   5  26
TORSDOF 7
ENDMDL
MODEL 5
REMARK VINA RESULT:      -8.1      1.985      7.954
REMARK  Name = 
REMARK  7 active torsions:
REMARK  status: ('A' for Active; 'I' for Inactive)
REMARK    1  A    between atoms: O_2  and  C_3
REMARK    2  A    between atoms: C_8  and  N_9
REMARK    3  A    between atoms: C_12  and  N_13
REMARK    4  A    between atoms: N_13  and  C_14
REMARK    5  A    between atoms: C_17  and  C_18
REMARK    6  A    between atoms: C_23  and  S_24
REMARK    7  A    between atoms: S_24  and  C_25
REMARK                            x       y       z     vdW  Elec       q    Type
REMARK                         _______ _______ _______ _____ _____    ______ ____
ROOT
ATOM      1  N   UNL     1      36.886   1.806  14.870  0.00  0.00    +0.000 N 
ATOM      2  C   UNL     1      38.053   2.588  15.061  0.00  0.00    +0.000 C 
ATOM      3  O   UNL     1      39.191   2.068  15.328  0.00  0.00    +0.000 OA
ATOM      4  C   UNL     1      37.754   3.986  14.910  0.00  0.00    +0.000 C 
ATOM      5  C   UNL     1      36.437   4.104  14.632  0.00  0.00    +0.000 C 
ATOM      6  C   UNL     1      35.852   2.784  14.594  0.00  0.00    +0.000 C 
ATOM      7  O   UNL     1      34.658   2.414  14.372  0.00  0.00    +0.000 OA
ENDROOT
BRANCH   1  13
ATOM      8  C   UNL     1      36.172  -0.146  16.078  0.00  0.00    +0.000 A 
ATOM      9  C   UNL     1      35.979  -1.499  16.122  0.00  0.00    +0.000 A 
ATOM     10  C   UNL     1      36.270  -2.340  15.065  0.00  0.00    +0.000 A 
ATOM     11  C   UNL     1      36.779  -1.740  13.933  0.00  0.00    +0.000 A 
ATOM     12  C   UNL     1      37.004  -0.388  13.807  0.00  0.00    +0.000 A 
ATOM     13  C   UNL     1      36.685   0.403  14.919  0.00  0.00    +0.000 A 
BRANCH   8  15
ATOM     14  C   UNL     1      35.782   0.139  18.434  0.00  0.00    +0.000 C 
ATOM     15  O   UNL     1      35.880   0.702  17.138  0.00  0.00    +0.000 OA
ENDBRANCH   8  15
ENDBRANCH   1  13
BRANCH   4  16
ATOM     16  N   UNL     1      38.643   5.057  15.025  0.00  0.00    +0.000 NA
BRANCH  16  17
ATOM     17  C   UNL     1      39.237   5.427  16.269  0.00  0.00    +0.000 A 
ATOM     18  C   UNL     1      38.546   5.235  17.438  0.00  0.00    +0.000 A 
ATOM     19  C   UNL     1      39.053   5.568  18.687  0.00  0.00    +0.000 A 
ATOM     20  C   UNL     1      40.319   6.121  18.735  0.00  0.00    +0.000 A 
ATOM     21  C   UNL     1      41.022   6.320  17.568  0.00  0.00    +0.000 A 
ATOM     22  C   UNL     1      40.489   5.976  16.341  0.00  0.00    +0.000 A 
BRANCH  20  23
ATOM     23  C   UNL     1      40.945   6.510  20.018  0.00  0.00    +0.000 C 
ATOM     24  C   UNL     1      42.452   6.486  19.892  0.00  0.00    +0.000 C 
ATOM     25  C   UNL     1      40.458   7.853  20.509  0.00  0.00    +0.000 C 
ENDBRANCH  20  23
ENDBRANCH  16  17
ENDBRANCH   4  16
BRANCH   5  26
ATOM     26  S   UNL     1      35.653   5.655  14.371  0.00  0.00    +0.000 S 
BRANCH  26  27
ATOM     27  C   UNL     1      35.374   6.045  12.692  0.00  0.00    +0.000 A 
ATOM     28  C   UNL     1      36.083   5.649  11.589  0.00  0.00    +0.000 A 
ATOM     29  C   UNL     1      35.808   5.992  10.301  0.00  0.00    +0.000 A 
ATOM     30  C   UNL     1      34.704   6.818  10.107  0.00  0.00    +0.000 A 
ATOM     31  C   UNL     1      34.304   7.259   8.746  0.00  0.00    +0.000 C 
ATOM     32  C   UNL     1      33.951   7.249  11.171  0.00  0.00    +0.000 A 
ATOM     33  C   UNL     1      34.261   6.885  12.434  0.00  0.00    +0.000 A 
ENDBRANCH  26  27
ENDBRANCH   5  26
TORSDOF 7
ENDMDL
MODEL 6
REMARK VINA RESULT:      -8.1      2.400      8.138
REMARK  Name = 
REMARK  7 active torsions:
REMARK  status: ('A' for Active; 'I' for Inactive)
REMARK    1  A    between atoms: O_2  and  C_3
REMARK    2  A    between atoms: C_8  and  N_9
REMARK    3  A    between atoms: C_12  and  N_13
REMARK    4  A    between atoms: N_13  and  C_14
REMARK    5  A    between atoms: C_17  and  C_18
REMARK    6  A    between atoms: C_23  and  S_24
REMARK    7  A    between atoms: S_24  and  C_25
REMARK                            x       y       z     vdW  Elec       q    Type
REMARK                         _______ _______ _______ _____ _____    ______ ____
ROOT
ATOM      1  N   UNL     1      36.897   1.164  15.730  0.00  0.00    +0.000 N 
ATOM      2  C   UNL     1      36.937   2.393  16.434  0.00  0.00    +0.000 C 
ATOM      3  O   UNL     1      36.681   2.475  17.685  0.00  0.00    +0.000 OA
ATOM      4  C   UNL     1      37.295   3.470  15.551  0.00  0.00    +0.000 C 
ATOM      5  C   UNL     1      37.480   2.953  14.316  0.00  0.00    +0.000 C 
ATOM      6  C   UNL     1      37.246   1.529  14.371  0.00  0.00    +0.000 C 
ATOM      7  O   UNL     1      37.304   0.645  13.462  0.00  0.00    +0.000 OA
ENDROOT
BRANCH   1  13
ATOM      8  C   UNL     1      37.641  -1.043  16.328  0.00  0.00    +0.000 A 
ATOM      9  C   UNL     1      37.350  -2.311  16.748  0.00  0.00    +0.000 A 
ATOM     10  C   UNL     1      36.064  -2.742  17.017  0.00  0.00    +0.000 A 
ATOM     11  C   UNL     1      35.061  -1.813  16.840  0.00  0.00    +0.000 A 
ATOM     12  C   UNL     1      35.269  -0.519  16.420  0.00  0.00    +0.000 A 
ATOM     13  C   UNL     1      36.597  -0.152  16.166  0.00  0.00    +0.000 A 
BRANCH   8  15
ATOM     14  C   UNL     1      39.744  -1.410  15.222  0.00  0.00    +0.000 C 
ATOM     15  O   UNL     1      38.930  -0.606  16.057  0.00  0.00    +0.000 OA
ENDBRANCH   8  15
ENDBRANCH   1  13
BRANCH   4  16
ATOM     16  N   UNL     1      37.434   4.820  15.879  0.00  0.00    +0.000 NA
BRANCH  16  17
ATOM     17  C   UNL     1      38.545   5.316  16.625  0.00  0.00    +0.000 A 
ATOM     18  C   UNL     1      38.450   5.437  17.988  0.00  0.00    +0.000 A 
ATOM     19  C   UNL     1      39.484   5.910  18.785  0.00  0.00    +0.000 A 
ATOM     20  C   UNL     1      40.660   6.273  18.156  0.00  0.00    +0.000 A 
ATOM     21  C   UNL     1      40.767   6.156  16.788  0.00  0.00    +0.000 A 
ATOM     22  C   UNL     1      39.719   5.681  16.024  0.00  0.00    +0.000 A 
BRANCH  20  23
ATOM     23  C   UNL     1      41.818   6.789  18.919  0.00  0.00    +0.000 C 
ATOM     24  C   UNL     1      41.868   6.151  20.289  0.00  0.00    +0.000 C 
ATOM     25  C   UNL     1      43.122   6.599  18.178  0.00  0.00    +0.000 C 
ENDBRANCH  20  23
ENDBRANCH  16  17
ENDBRANCH   4  16
BRANCH   5  26
ATOM     26  S   UNL     1      37.931   3.934  12.930  0.00  0.00    +0.000 S 
BRANCH  26  27
ATOM     27  C   UNL     1      36.677   5.018  12.380  0.00  0.00    +0.000 A 
ATOM     28  C   UNL     1      35.696   5.636  13.108  0.00  0.00    +0.000 A 
ATOM     29  C   UNL     1      34.746   6.475  12.612  0.00  0.00    +0.000 A 
ATOM     30  C   UNL     1      34.791   6.713  11.241  0.00  0.00    +0.000 A 
ATOM     31  C   UNL     1      33.806   7.611  10.585  0.00  0.00    +0.000 C 
ATOM     32  C   UNL     1      35.750   6.125  10.455  0.00  0.00    +0.000 A 
ATOM     33  C   UNL     1      36.674   5.298  10.989  0.00  0.00    +0.000 A 
ENDBRANCH  26  27
ENDBRANCH   5  26
TORSDOF 7
ENDMDL
MODEL 7
REMARK VINA RESULT:      -8.1      2.892      7.021
REMARK  Name = 
REMARK  7 active torsions:
REMARK  status: ('A' for Active; 'I' for Inactive)
REMARK    1  A    between atoms: O_2  and  C_3
REMARK    2  A    between atoms: C_8  and  N_9
REMARK    3  A    between atoms: C_12  and  N_13
REMARK    4  A    between atoms: N_13  and  C_14
REMARK    5  A    between atoms: C_17  and  C_18
REMARK    6  A    between atoms: C_23  and  S_24
REMARK    7  A    between atoms: S_24  and  C_25
REMARK                            x       y       z     vdW  Elec       q    Type
REMARK                         _______ _______ _______ _____ _____    ______ ____
ROOT
ATOM      1  N   UNL     1      37.185   0.815  15.274  0.00  0.00    +0.000 N 
ATOM      2  C   UNL     1      37.713   0.948  13.965  0.00  0.00    +0.000 C 
ATOM      3  O   UNL     1      37.815  -0.043  13.163  0.00  0.00    +0.000 OA
ATOM      4  C   UNL     1      38.091   2.312  13.710  0.00  0.00    +0.000 C 
ATOM      5  C   UNL     1      37.818   3.035  14.818  0.00  0.00    +0.000 C 
ATOM      6  C   UNL     1      37.254   2.157  15.817  0.00  0.00    +0.000 C 
ATOM      7  O   UNL     1      36.852   2.396  16.997  0.00  0.00    +0.000 OA
ENDROOT
BRANCH   1  13
ATOM      8  C   UNL     1      37.593  -1.239  16.456  0.00  0.00    +0.000 A 
ATOM      9  C   UNL     1      37.110  -2.329  17.124  0.00  0.00    +0.000 A 
ATOM     10  C   UNL     1      35.763  -2.551  17.336  0.00  0.00    +0.000 A 
ATOM     11  C   UNL     1      34.902  -1.600  16.831  0.00  0.00    +0.000 A 
ATOM     12  C   UNL     1      35.306  -0.477  16.146  0.00  0.00    +0.000 A 
ATOM     13  C   UNL     1      36.687  -0.317  15.969  0.00  0.00    +0.000 A 
BRANCH   8  15
ATOM     14  C   UNL     1      39.691  -2.014  15.571  0.00  0.00    +0.000 C 
ATOM     15  O   UNL     1      38.946  -1.013  16.241  0.00  0.00    +0.000 OA
ENDBRANCH   8  15
ENDBRANCH   1  13
BRANCH   4  16
ATOM     16  N   UNL     1      38.647   2.829  12.538  0.00  0.00    +0.000 NA
BRANCH  16  17
ATOM     17  C   UNL     1      37.875   3.050  11.358  0.00  0.00    +0.000 A 
ATOM     18  C   UNL     1      37.275   4.267  11.156  0.00  0.00    +0.000 A 
ATOM     19  C   UNL     1      36.509   4.561  10.036  0.00  0.00    +0.000 A 
ATOM     20  C   UNL     1      36.353   3.567   9.089  0.00  0.00    +0.000 A 
ATOM     21  C   UNL     1      36.950   2.341   9.282  0.00  0.00    +0.000 A 
ATOM     22  C   UNL     1      37.707   2.081  10.407  0.00  0.00    +0.000 A 
BRANCH  20  23
ATOM     23  C   UNL     1      35.555   3.784   7.862  0.00  0.00    +0.000 C 
ATOM     24  C   UNL     1      35.554   5.249   7.491  0.00  0.00    +0.000 C 
ATOM     25  C   UNL     1      36.030   2.928   6.711  0.00  0.00    +0.000 C 
ENDBRANCH  20  23
ENDBRANCH  16  17
ENDBRANCH   4  16
BRANCH   5  26
ATOM     26  S   UNL     1      38.130   4.761  14.931  0.00  0.00    +0.000 S 
BRANCH  26  27
ATOM     27  C   UNL     1      38.966   5.245  16.386  0.00  0.00    +0.000 A 
ATOM     28  C   UNL     1      38.544   5.162  17.686  0.00  0.00    +0.000 A 
ATOM     29  C   UNL     1      39.252   5.559  18.779  0.00  0.00    +0.000 A 
ATOM     30  C   UNL     1      40.513   6.096  18.533  0.00  0.00    +0.000 A 
ATOM     31  C   UNL     1      41.378   6.564  19.646  0.00  0.00    +0.000 C 
ATOM     32  C   UNL     1      40.994   6.206  17.252  0.00  0.00    +0.000 A 
ATOM     33  C   UNL     1      40.257   5.799  16.196  0.00  0.00    +0.000 A 
ENDBRANCH  26  27
ENDBRANCH   5  26
TORSDOF 7
ENDMDL
MODEL 8
REMARK VINA RESULT:      -8.0      2.494      7.434
REMARK  Name = 
REMARK  7 active torsions:
REMARK  status: ('A' for Active; 'I' for Inactive)
REMARK    1  A    between atoms: O_2  and  C_3
REMARK    2  A    between atoms: C_8  and  N_9
REMARK    3  A    between atoms: C_12  and  N_13
REMARK    4  A    between atoms: N_13  and  C_14
REMARK    5  A    between atoms: C_17  and  C_18
REMARK    6  A    between atoms: C_23  and  S_24
REMARK    7  A    between atoms: S_24  and  C_25
REMARK                            x       y       z     vdW  Elec       q    Type
REMARK                         _______ _______ _______ _____ _____    ______ ____
ROOT
ATOM      1  N   UNL     1      37.835   0.561  13.568  0.00  0.00    +0.000 N 
ATOM      2  C   UNL     1      38.731   1.468  14.188  0.00  0.00    +0.000 C 
ATOM      3  O   UNL     1      39.486   1.127  15.162  0.00  0.00    +0.000 OA
ATOM      4  C   UNL     1      38.649   2.762  13.567  0.00  0.00    +0.000 C 
ATOM      5  C   UNL     1      37.730   2.694  12.579  0.00  0.00    +0.000 C 
ATOM      6  C   UNL     1      37.195   1.353  12.536  0.00  0.00    +0.000 C 
ATOM      7  O   UNL     1      36.318   0.836  11.778  0.00  0.00    +0.000 OA
ENDROOT
BRANCH   1  13
ATOM      8  C   UNL     1      36.571  -1.116  14.739  0.00  0.00    +0.000 A 
ATOM      9  C   UNL     1      36.311  -2.435  14.988  0.00  0.00    +0.000 A 
ATOM     10  C   UNL     1      36.990  -3.469  14.373  0.00  0.00    +0.000 A 
ATOM     11  C   UNL     1      37.968  -3.105  13.473  0.00  0.00    +0.000 A 
ATOM     12  C   UNL     1      38.293  -1.803  13.166  0.00  0.00    +0.000 A 
ATOM     13  C   UNL     1      37.563  -0.806  13.828  0.00  0.00    +0.000 A 
BRANCH   8  15
ATOM     14  C   UNL     1      36.258   0.270  16.679  0.00  0.00    +0.000 C 
ATOM     15  O   UNL     1      35.891  -0.074  15.355  0.00  0.00    +0.000 OA
ENDBRANCH   8  15
ENDBRANCH   1  13
BRANCH   4  16
ATOM     16  N   UNL     1      39.375   3.907  13.902  0.00  0.00    +0.000 NA
BRANCH  16  17
ATOM     17  C   UNL     1      39.336   4.483  15.207  0.00  0.00    +0.000 A 
ATOM     18  C   UNL     1      38.318   4.155  16.066  0.00  0.00    +0.000 A 
ATOM     19  C   UNL     1      38.209   4.672  17.350  0.00  0.00    +0.000 A 
ATOM     20  C   UNL     1      39.183   5.559  17.766  0.00  0.00    +0.000 A 
ATOM     21  C   UNL     1      40.210   5.896  16.913  0.00  0.00    +0.000 A 
ATOM     22  C   UNL     1      40.290   5.364  15.641  0.00  0.00    +0.000 A 
BRANCH  20  23
ATOM     23  C   UNL     1      39.154   6.163  19.117  0.00  0.00    +0.000 C 
ATOM     24  C   UNL     1      40.552   6.235  19.688  0.00  0.00    +0.000 C 
ATOM     25  C   UNL     1      38.490   7.521  19.122  0.00  0.00    +0.000 C 
ENDBRANCH  20  23
ENDBRANCH  16  17
ENDBRANCH   4  16
BRANCH   5  26
ATOM     26  S   UNL     1      37.319   4.067  11.562  0.00  0.00    +0.000 S 
BRANCH  26  27
ATOM     27  C   UNL     1      36.291   5.249  12.334  0.00  0.00    +0.000 A 
ATOM     28  C   UNL     1      36.029   6.539  11.953  0.00  0.00    +0.000 A 
ATOM     29  C   UNL     1      35.212   7.410  12.604  0.00  0.00    +0.000 A 
ATOM     30  C   UNL     1      34.596   6.931  13.757  0.00  0.00    +0.000 A 
ATOM     31  C   UNL     1      33.682   7.790  14.553  0.00  0.00    +0.000 C 
ATOM     32  C   UNL     1      34.817   5.648  14.193  0.00  0.00    +0.000 A 
ATOM     33  C   UNL     1      35.637   4.816  13.515  0.00  0.00    +0.000 A 
ENDBRANCH  26  27
ENDBRANCH   5  26
TORSDOF 7
ENDMDL
MODEL 9
REMARK VINA RESULT:      -7.9      3.344      8.065
REMARK  Name = 
REMARK  7 active torsions:
REMARK  status: ('A' for Active; 'I' for Inactive)
REMARK    1  A    between atoms: O_2  and  C_3
REMARK    2  A    between atoms: C_8  and  N_9
REMARK    3  A    between atoms: C_12  and  N_13
REMARK    4  A    between atoms: N_13  and  C_14
REMARK    5  A    between atoms: C_17  and  C_18
REMARK    6  A    between atoms: C_23  and  S_24
REMARK    7  A    between atoms: S_24  and  C_25
REMARK                            x       y       z     vdW  Elec       q    Type
REMARK                         _______ _______ _______ _____ _____    ______ ____
ROOT
ATOM      1  N   UNL     1      36.778   0.484  15.595  0.00  0.00    +0.000 N 
ATOM      2  C   UNL     1      36.761   1.711  16.304  0.00  0.00    +0.000 C 
ATOM      3  O   UNL     1      36.562   1.770  17.566  0.00  0.00    +0.000 OA
ATOM      4  C   UNL     1      36.992   2.814  15.411  0.00  0.00    +0.000 C 
ATOM      5  C   UNL     1      37.153   2.316  14.166  0.00  0.00    +0.000 C 
ATOM      6  C   UNL     1      37.031   0.878  14.223  0.00  0.00    +0.000 C 
ATOM      7  O   UNL     1      37.110   0.004  13.306  0.00  0.00    +0.000 OA
ENDROOT
BRANCH   1  13
ATOM      8  C   UNL     1      37.725  -1.599  16.335  0.00  0.00    +0.000 A 
ATOM      9  C   UNL     1      37.551  -2.886  16.761  0.00  0.00    +0.000 A 
ATOM     10  C   UNL     1      36.309  -3.474  16.906  0.00  0.00    +0.000 A 
ATOM     11  C   UNL     1      35.221  -2.685  16.595  0.00  0.00    +0.000 A 
ATOM     12  C   UNL     1      35.309  -1.382  16.160  0.00  0.00    +0.000 A 
ATOM     13  C   UNL     1      36.601  -0.852  16.036  0.00  0.00    +0.000 A 
BRANCH   8  15
ATOM     14  C   UNL     1      39.836  -1.511  15.188  0.00  0.00    +0.000 C 
ATOM     15  O   UNL     1      38.971  -1.005  16.188  0.00  0.00    +0.000 OA
ENDBRANCH   8  15
ENDBRANCH   1  13
BRANCH   4  16
ATOM     16  N   UNL     1      37.045   4.170  15.740  0.00  0.00    +0.000 NA
BRANCH  16  17
ATOM     17  C   UNL     1      38.152   4.746  16.432  0.00  0.00    +0.000 A 
ATOM     18  C   UNL     1      38.185   4.721  17.804  0.00  0.00    +0.000 A 
ATOM     19  C   UNL     1      39.225   5.259  18.550  0.00  0.00    +0.000 A 
ATOM     20  C   UNL     1      40.268   5.847  17.861  0.00  0.00    +0.000 A 
ATOM     21  C   UNL     1      40.245   5.879  16.485  0.00  0.00    +0.000 A 
ATOM     22  C   UNL     1      39.197   5.334  15.771  0.00  0.00    +0.000 A 
BRANCH  20  23
ATOM     23  C   UNL     1      41.421   6.448  18.567  0.00  0.00    +0.000 C 
ATOM     24  C   UNL     1      41.680   7.846  18.051  0.00  0.00    +0.000 C 
ATOM     25  C   UNL     1      41.239   6.444  20.067  0.00  0.00    +0.000 C 
ENDBRANCH  20  23
ENDBRANCH  16  17
ENDBRANCH   4  16
BRANCH   5  26
ATOM     26  S   UNL     1      37.459   3.332  12.765  0.00  0.00    +0.000 S 
BRANCH  26  27
ATOM     27  C   UNL     1      39.127   3.819  12.582  0.00  0.00    +0.000 A 
ATOM     28  C   UNL     1      39.630   4.973  12.042  0.00  0.00    +0.000 A 
ATOM     29  C   UNL     1      40.948   5.290  11.932  0.00  0.00    +0.000 A 
ATOM     30  C   UNL     1      41.851   4.346  12.414  0.00  0.00    +0.000 A 
ATOM     31  C   UNL     1      43.316   4.580  12.348  0.00  0.00    +0.000 C 
ATOM     32  C   UNL     1      41.411   3.169  12.967  0.00  0.00    +0.000 A 
ATOM     33  C   UNL     1      40.091   2.894  13.057  0.00  0.00    +0.000 A 
ENDBRANCH  26  27
ENDBRANCH   5  26
TORSDOF 7
ENDMDL
MODEL 10
REMARK VINA RESULT:      -7.9      2.351      7.478
REMARK  Name = 
REMARK  7 active torsions:
REMARK  status: ('A' for Active; 'I' for Inactive)
REMARK    1  A    between atoms: O_2  and  C_3
REMARK    2  A    between atoms: C_8  and  N_9
REMARK    3  A    between atoms: C_12  and  N_13
REMARK    4  A    between atoms: N_13  and  C_14
REMARK    5  A    between atoms: C_17  and  C_18
REMARK    6  A    between atoms: C_23  and  S_24
REMARK    7  A    between atoms: S_24  and  C_25
REMARK                            x       y       z     vdW  Elec       q    Type
REMARK                         _______ _______ _______ _____ _____    ______ ____
ROOT
ATOM      1  N   UNL     1      36.736   3.813  15.475  0.00  0.00    +0.000 N 
ATOM      2  C   UNL     1      36.186   4.803  14.622  0.00  0.00    +0.000 C 
ATOM      3  O   UNL     1      35.150   4.590  13.904  0.00  0.00    +0.000 OA
ATOM      4  C   UNL     1      36.951   6.018  14.701  0.00  0.00    +0.000 C 
ATOM      5  C   UNL     1      37.961   5.820  15.575  0.00  0.00    +0.000 C 
ATOM      6  C   UNL     1      37.875   4.471  16.084  0.00  0.00    +0.000 C 
ATOM      7  O   UNL     1      38.605   3.853  16.919  0.00  0.00    +0.000 OA
ENDROOT
BRANCH   1  13
ATOM      8  C   UNL     1      36.975   1.458  15.050  0.00  0.00    +0.000 A 
ATOM      9  C   UNL     1      36.588   0.171  15.300  0.00  0.00    +0.000 A 
ATOM     10  C   UNL     1      35.593  -0.158  16.200  0.00  0.00    +0.000 A 
ATOM     11  C   UNL     1      34.989   0.895  16.854  0.00  0.00    +0.000 A 
ATOM     12  C   UNL     1      35.319   2.218  16.660  0.00  0.00    +0.000 A 
ATOM     13  C   UNL     1      36.337   2.477  15.732  0.00  0.00    +0.000 A 
BRANCH   8  15
ATOM     14  C   UNL     1      39.301   1.395  14.443  0.00  0.00    +0.000 C 
ATOM     15  O   UNL     1      37.975   1.793  14.147  0.00  0.00    +0.000 OA
ENDBRANCH   8  15
ENDBRANCH   1  13
BRANCH   4  16
ATOM     16  N   UNL     1      36.717   7.209  14.010  0.00  0.00    +0.000 NA
BRANCH  16  17
ATOM     17  C   UNL     1      35.902   8.254  14.539  0.00  0.00    +0.000 A 
ATOM     18  C   UNL     1      36.487   9.396  15.024  0.00  0.00    +0.000 A 
ATOM     19  C   UNL     1      35.765  10.456  15.554  0.00  0.00    +0.000 A 
ATOM     20  C   UNL     1      34.389  10.338  15.587  0.00  0.00    +0.000 A 
ATOM     21  C   UNL     1      33.790   9.197  15.103  0.00  0.00    +0.000 A 
ATOM     22  C   UNL     1      34.537   8.159  14.581  0.00  0.00    +0.000 A 
BRANCH  20  23
ATOM     23  C   UNL     1      33.532  11.414  16.133  0.00  0.00    +0.000 C 
ATOM     24  C   UNL     1      33.546  11.377  17.645  0.00  0.00    +0.000 C 
ATOM     25  C   UNL     1      33.926  12.778  15.615  0.00  0.00    +0.000 C 
ENDBRANCH  20  23
ENDBRANCH  16  17
ENDBRANCH   4  16
BRANCH   5  26
ATOM     26  S   UNL     1      39.141   7.062  15.967  0.00  0.00    +0.000 S 
BRANCH  26  27
ATOM     27  C   UNL     1      39.988   6.799  17.471  0.00  0.00    +0.000 A 
ATOM     28  C   UNL     1      39.473   6.656  18.732  0.00  0.00    +0.000 A 
ATOM     29  C   UNL     1      40.196   6.451  19.867  0.00  0.00    +0.000 A 
ATOM     30  C   UNL     1      41.578   6.385  19.713  0.00  0.00    +0.000 A 
ATOM     31  C   UNL     1      42.471   6.165  20.880  0.00  0.00    +0.000 C 
ATOM     32  C   UNL     1      42.156   6.521  18.476  0.00  0.00    +0.000 A 
ATOM     33  C   UNL     1      41.401   6.723  17.375  0.00  0.00    +0.000 A 
ENDBRANCH  26  27
ENDBRANCH   5  26
TORSDOF 7
ENDMDL
