MODEL 1
REMARK VINA RESULT:      -8.4      0.000      0.000
REMARK  Name = 
REMARK  0 active torsions:
REMARK  status: ('A' for Active; 'I' for Inactive)
REMARK                            x       y       z     vdW  Elec       q    Type
REMARK                         _______ _______ _______ _____ _____    ______ ____
ROOT
ATOM      1  C   UNL     1      28.819  22.630  30.901  0.00  0.00    +0.000 C 
ATOM      2  C   UNL     1      29.562  22.626  29.598  0.00  0.00    +0.000 C 
ATOM      3  C   UNL     1      28.078  22.786  29.454  0.00  0.00    +0.000 C 
ATOM      4  C   UNL     1      27.467  22.923  28.090  0.00  0.00    +0.000 C 
ATOM      5  F   UNL     1      25.983  23.084  27.946  0.00  0.00    +0.000 F 
ATOM      6  C   UNL     1      28.341  22.901  26.872  0.00  0.00    +0.000 A 
ATOM      7  C   UNL     1      29.825  22.741  27.016  0.00  0.00    +0.000 A 
ATOM      8  C   UNL     1      30.700  22.718  25.798  0.00  0.00    +0.000 A 
ATOM      9  C   UNL     1      30.090  22.855  24.434  0.00  0.00    +0.000 A 
ATOM     10  C   UNL     1      28.605  23.015  24.289  0.00  0.00    +0.000 A 
ATOM     11  C   UNL     1      27.995  23.153  22.927  0.00  0.00    +0.000 A 
ATOM     12  C   UNL     1      26.511  23.313  22.781  0.00  0.00    +0.000 A 
ATOM     13  O   UNL     1      25.900  23.450  21.419  0.00  0.00    +0.000 OA
ATOM     14  C   UNL     1      25.637  23.336  24.001  0.00  0.00    +0.000 A 
ATOM     15  C   UNL     1      26.246  23.198  25.364  0.00  0.00    +0.000 A 
ATOM     16  C   UNL     1      27.731  23.038  25.508  0.00  0.00    +0.000 A 
ATOM     17  C   UNL     1      30.436  22.603  28.380  0.00  0.00    +0.000 C 
ATOM     18  C   UNL     1      31.542  22.545  27.368  0.00  0.00    +0.000 C 
ATOM     19  C   UNL     1      31.856  22.433  28.831  0.00  0.00    +0.000 C 
ATOM     20  C   UNL     1      31.860  22.350  30.329  0.00  0.00    +0.000 C 
ATOM     21  C   UNL     1      30.442  22.469  30.803  0.00  0.00    +0.000 C 
ATOM     22  O   UNL     1      29.984  22.438  32.231  0.00  0.00    +0.000 OA
ENDROOT
TORSDOF 0
ENDMDL
MODEL 2
REMARK VINA RESULT:      -8.3     31.857     32.207
REMARK  Name = 
REMARK  0 active torsions:
REMARK  status: ('A' for Active; 'I' for Inactive)
REMARK                            x       y       z     vdW  Elec       q    Type
REMARK                         _______ _______ _______ _____ _____    ______ ____
ROOT
ATOM      1  C   UNL     1      18.588  -5.918  26.334  0.00  0.00    +0.000 C 
ATOM      2  C   UNL     1      19.347  -7.197  26.524  0.00  0.00    +0.000 C 
ATOM      3  C   UNL     1      20.027  -6.214  25.618  0.00  0.00    +0.000 C 
ATOM      4  C   UNL     1      21.348  -6.557  24.996  0.00  0.00    +0.000 C 
ATOM      5  F   UNL     1      22.028  -5.573  24.089  0.00  0.00    +0.000 F 
ATOM      6  C   UNL     1      21.990  -7.882  25.280  0.00  0.00    +0.000 A 
ATOM      7  C   UNL     1      21.310  -8.865  26.186  0.00  0.00    +0.000 A 
ATOM      8  C   UNL     1      21.952 -10.191  26.470  0.00  0.00    +0.000 A 
ATOM      9  C   UNL     1      23.273 -10.534  25.848  0.00  0.00    +0.000 A 
ATOM     10  C   UNL     1      23.953  -9.551  24.942  0.00  0.00    +0.000 A 
ATOM     11  C   UNL     1      25.273  -9.892  24.319  0.00  0.00    +0.000 A 
ATOM     12  C   UNL     1      25.954  -8.910  23.413  0.00  0.00    +0.000 A 
ATOM     13  O   UNL     1      27.274  -9.252  22.791  0.00  0.00    +0.000 OA
ATOM     14  C   UNL     1      25.311  -7.584  23.129  0.00  0.00    +0.000 A 
ATOM     15  C   UNL     1      23.991  -7.241  23.751  0.00  0.00    +0.000 A 
ATOM     16  C   UNL     1      23.311  -8.225  24.657  0.00  0.00    +0.000 A 
ATOM     17  C   UNL     1      19.989  -8.522  26.808  0.00  0.00    +0.000 C 
ATOM     18  C   UNL     1      20.377  -9.897  27.270  0.00  0.00    +0.000 C 
ATOM     19  C   UNL     1      19.089  -9.284  27.735  0.00  0.00    +0.000 C 
ATOM     20  C   UNL     1      17.890  -8.429  28.024  0.00  0.00    +0.000 C 
ATOM     21  C   UNL     1      18.050  -7.139  27.276  0.00  0.00    +0.000 C 
ATOM     22  O   UNL     1      17.083  -5.993  27.278  0.00  0.00    +0.000 OA
ENDROOT
TORSDOF 0
ENDMDL
MODEL 3
REMARK VINA RESULT:      -8.0     22.092     24.077
REMARK  Name = 
REMARK  0 active torsions:
REMARK  status: ('A' for Active; 'I' for Inactive)
REMARK                            x       y       z     vdW  Elec       q    Type
REMARK                         _______ _______ _______ _____ _____    ______ ____
ROOT
ATOM      1  C   UNL     1      33.811  -2.141  37.176  0.00  0.00    +0.000 C 
ATOM      2  C   UNL     1      33.759  -1.272  35.954  0.00  0.00    +0.000 C 
ATOM      3  C   UNL     1      33.868  -0.509  37.240  0.00  0.00    +0.000 C 
ATOM      4  C   UNL     1      33.916   0.990  37.221  0.00  0.00    +0.000 C 
ATOM      5  F   UNL     1      34.025   1.753  38.508  0.00  0.00    +0.000 F 
ATOM      6  C   UNL     1      33.855   1.726  35.916  0.00  0.00    +0.000 A 
ATOM      7  C   UNL     1      33.746   0.963  34.629  0.00  0.00    +0.000 A 
ATOM      8  C   UNL     1      33.684   1.698  33.323  0.00  0.00    +0.000 A 
ATOM      9  C   UNL     1      33.732   3.198  33.304  0.00  0.00    +0.000 A 
ATOM     10  C   UNL     1      33.841   3.961  34.591  0.00  0.00    +0.000 A 
ATOM     11  C   UNL     1      33.889   5.459  34.573  0.00  0.00    +0.000 A 
ATOM     12  C   UNL     1      33.998   6.223  35.858  0.00  0.00    +0.000 A 
ATOM     13  O   UNL     1      34.045   7.722  35.840  0.00  0.00    +0.000 OA
ATOM     14  C   UNL     1      34.059   5.487  37.164  0.00  0.00    +0.000 A 
ATOM     15  C   UNL     1      34.011   3.988  37.184  0.00  0.00    +0.000 A 
ATOM     16  C   UNL     1      33.902   3.225  35.897  0.00  0.00    +0.000 A 
ATOM     17  C   UNL     1      33.698  -0.537  34.649  0.00  0.00    +0.000 C 
ATOM     18  C   UNL     1      33.619  -0.088  33.219  0.00  0.00    +0.000 C 
ATOM     19  C   UNL     1      33.593  -1.551  33.549  0.00  0.00    +0.000 C 
ATOM     20  C   UNL     1      33.589  -2.915  34.175  0.00  0.00    +0.000 C 
ATOM     21  C   UNL     1      33.692  -2.743  35.661  0.00  0.00    +0.000 C 
ATOM     22  O   UNL     1      33.722  -3.845  36.677  0.00  0.00    +0.000 OA
ENDROOT
TORSDOF 0
ENDMDL
MODEL 4
REMARK VINA RESULT:      -7.9      1.570      2.997
REMARK  Name = 
REMARK  0 active torsions:
REMARK  status: ('A' for Active; 'I' for Inactive)
REMARK                            x       y       z     vdW  Elec       q    Type
REMARK                         _______ _______ _______ _____ _____    ______ ____
ROOT
ATOM      1  C   UNL     1      32.064  22.260  29.000  0.00  0.00    +0.000 C 
ATOM      2  C   UNL     1      30.592  22.533  28.894  0.00  0.00    +0.000 C 
ATOM      3  C   UNL     1      31.293  22.445  27.571  0.00  0.00    +0.000 C 
ATOM      4  C   UNL     1      30.519  22.626  26.298  0.00  0.00    +0.000 C 
ATOM      5  F   UNL     1      31.220  22.538  24.975  0.00  0.00    +0.000 F 
ATOM      6  C   UNL     1      29.045  22.895  26.349  0.00  0.00    +0.000 A 
ATOM      7  C   UNL     1      28.344  22.983  27.673  0.00  0.00    +0.000 A 
ATOM      8  C   UNL     1      26.869  23.252  27.724  0.00  0.00    +0.000 A 
ATOM      9  C   UNL     1      26.095  23.433  26.452  0.00  0.00    +0.000 A 
ATOM     10  C   UNL     1      26.796  23.345  25.129  0.00  0.00    +0.000 A 
ATOM     11  C   UNL     1      26.022  23.526  23.857  0.00  0.00    +0.000 A 
ATOM     12  C   UNL     1      26.722  23.438  22.533  0.00  0.00    +0.000 A 
ATOM     13  O   UNL     1      25.949  23.619  21.261  0.00  0.00    +0.000 OA
ATOM     14  C   UNL     1      28.198  23.169  22.482  0.00  0.00    +0.000 A 
ATOM     15  C   UNL     1      28.971  22.988  23.754  0.00  0.00    +0.000 A 
ATOM     16  C   UNL     1      28.270  23.076  25.077  0.00  0.00    +0.000 A 
ATOM     17  C   UNL     1      29.118  22.802  28.945  0.00  0.00    +0.000 C 
ATOM     18  C   UNL     1      27.684  23.054  29.306  0.00  0.00    +0.000 C 
ATOM     19  C   UNL     1      28.702  22.834  30.386  0.00  0.00    +0.000 C 
ATOM     20  C   UNL     1      29.921  22.585  31.225  0.00  0.00    +0.000 C 
ATOM     21  C   UNL     1      31.089  22.399  30.303  0.00  0.00    +0.000 C 
ATOM     22  O   UNL     1      32.504  22.126  30.717  0.00  0.00    +0.000 OA
ENDROOT
TORSDOF 0
ENDMDL
MODEL 5
REMARK VINA RESULT:      -7.8     19.234     21.760
REMARK  Name = 
REMARK  0 active torsions:
REMARK  status: ('A' for Active; 'I' for Inactive)
REMARK                            x       y       z     vdW  Elec       q    Type
REMARK                         _______ _______ _______ _____ _____    ______ ____
ROOT
ATOM      1  C   UNL     1      14.585  12.016  35.638  0.00  0.00    +0.000 C 
ATOM      2  C   UNL     1      15.831  11.261  35.997  0.00  0.00    +0.000 C 
ATOM      3  C   UNL     1      14.861  11.412  37.131  0.00  0.00    +0.000 C 
ATOM      4  C   UNL     1      15.184  10.830  38.476  0.00  0.00    +0.000 C 
ATOM      5  F   UNL     1      14.214  10.981  39.610  0.00  0.00    +0.000 F 
ATOM      6  C   UNL     1      16.475  10.098  38.686  0.00  0.00    +0.000 A 
ATOM      7  C   UNL     1      17.445   9.946  37.552  0.00  0.00    +0.000 A 
ATOM      8  C   UNL     1      18.737   9.213  37.762  0.00  0.00    +0.000 A 
ATOM      9  C   UNL     1      19.059   8.632  39.107  0.00  0.00    +0.000 A 
ATOM     10  C   UNL     1      18.089   8.783  40.241  0.00  0.00    +0.000 A 
ATOM     11  C   UNL     1      18.410   8.202  41.585  0.00  0.00    +0.000 A 
ATOM     12  C   UNL     1      17.442   8.352  42.720  0.00  0.00    +0.000 A 
ATOM     13  O   UNL     1      17.763   7.771  44.064  0.00  0.00    +0.000 OA
ATOM     14  C   UNL     1      16.149   9.085  42.509  0.00  0.00    +0.000 A 
ATOM     15  C   UNL     1      15.827   9.667  41.165  0.00  0.00    +0.000 A 
ATOM     16  C   UNL     1      16.797   9.516  40.031  0.00  0.00    +0.000 A 
ATOM     17  C   UNL     1      17.122  10.528  36.207  0.00  0.00    +0.000 C 
ATOM     18  C   UNL     1      18.464   9.863  36.115  0.00  0.00    +0.000 C 
ATOM     19  C   UNL     1      17.877  10.538  34.911  0.00  0.00    +0.000 C 
ATOM     20  C   UNL     1      17.052  11.277  33.899  0.00  0.00    +0.000 C 
ATOM     21  C   UNL     1      15.787  11.724  34.570  0.00  0.00    +0.000 C 
ATOM     22  O   UNL     1      14.674  12.498  33.929  0.00  0.00    +0.000 OA
ENDROOT
TORSDOF 0
ENDMDL
MODEL 6
REMARK VINA RESULT:      -7.6      0.793      6.308
REMARK  Name = 
REMARK  0 active torsions:
REMARK  status: ('A' for Active; 'I' for Inactive)
REMARK                            x       y       z     vdW  Elec       q    Type
REMARK                         _______ _______ _______ _____ _____    ______ ____
ROOT
ATOM      1  C   UNL     1      25.913  23.222  24.392  0.00  0.00    +0.000 C 
ATOM      2  C   UNL     1      27.389  23.192  24.658  0.00  0.00    +0.000 C 
ATOM      3  C   UNL     1      26.545  23.074  25.892  0.00  0.00    +0.000 C 
ATOM      4  C   UNL     1      27.197  22.940  27.236  0.00  0.00    +0.000 C 
ATOM      5  F   UNL     1      26.353  22.822  28.471  0.00  0.00    +0.000 F 
ATOM      6  C   UNL     1      28.692  22.925  27.347  0.00  0.00    +0.000 A 
ATOM      7  C   UNL     1      29.536  23.044  26.112  0.00  0.00    +0.000 A 
ATOM      8  C   UNL     1      31.033  23.029  26.222  0.00  0.00    +0.000 A 
ATOM      9  C   UNL     1      31.685  22.895  27.567  0.00  0.00    +0.000 A 
ATOM     10  C   UNL     1      30.840  22.777  28.801  0.00  0.00    +0.000 A 
ATOM     11  C   UNL     1      31.491  22.644  30.145  0.00  0.00    +0.000 A 
ATOM     12  C   UNL     1      30.648  22.526  31.380  0.00  0.00    +0.000 A 
ATOM     13  O   UNL     1      31.299  22.393  32.724  0.00  0.00    +0.000 OA
ATOM     14  C   UNL     1      29.152  22.541  31.269  0.00  0.00    +0.000 A 
ATOM     15  C   UNL     1      28.500  22.674  29.925  0.00  0.00    +0.000 A 
ATOM     16  C   UNL     1      29.344  22.792  28.691  0.00  0.00    +0.000 A 
ATOM     17  C   UNL     1      28.884  23.177  24.768  0.00  0.00    +0.000 C 
ATOM     18  C   UNL     1      30.371  23.192  24.566  0.00  0.00    +0.000 C 
ATOM     19  C   UNL     1      29.453  23.310  23.386  0.00  0.00    +0.000 C 
ATOM     20  C   UNL     1      28.307  23.408  22.421  0.00  0.00    +0.000 C 
ATOM     21  C   UNL     1      27.032  23.335  23.207  0.00  0.00    +0.000 C 
ATOM     22  O   UNL     1      25.644  23.394  22.643  0.00  0.00    +0.000 OA
ENDROOT
TORSDOF 0
ENDMDL
MODEL 7
REMARK VINA RESULT:      -7.3      1.511      2.206
REMARK  Name = 
REMARK  0 active torsions:
REMARK  status: ('A' for Active; 'I' for Inactive)
REMARK                            x       y       z     vdW  Elec       q    Type
REMARK                         _______ _______ _______ _____ _____    ______ ____
ROOT
ATOM      1  C   UNL     1      30.500  21.927  32.501  0.00  0.00    +0.000 C 
ATOM      2  C   UNL     1      30.852  21.962  31.043  0.00  0.00    +0.000 C 
ATOM      3  C   UNL     1      29.431  22.340  31.336  0.00  0.00    +0.000 C 
ATOM      4  C   UNL     1      28.506  22.707  30.213  0.00  0.00    +0.000 C 
ATOM      5  F   UNL     1      27.084  23.084  30.506  0.00  0.00    +0.000 F 
ATOM      6  C   UNL     1      29.003  22.696  28.798  0.00  0.00    +0.000 A 
ATOM      7  C   UNL     1      30.425  22.319  28.506  0.00  0.00    +0.000 A 
ATOM      8  C   UNL     1      30.923  22.308  27.091  0.00  0.00    +0.000 A 
ATOM      9  C   UNL     1      29.998  22.676  25.967  0.00  0.00    +0.000 A 
ATOM     10  C   UNL     1      28.576  23.053  26.260  0.00  0.00    +0.000 A 
ATOM     11  C   UNL     1      27.651  23.420  25.139  0.00  0.00    +0.000 A 
ATOM     12  C   UNL     1      26.229  23.798  25.430  0.00  0.00    +0.000 A 
ATOM     13  O   UNL     1      25.305  24.165  24.308  0.00  0.00    +0.000 OA
ATOM     14  C   UNL     1      25.732  23.808  26.846  0.00  0.00    +0.000 A 
ATOM     15  C   UNL     1      26.656  23.441  27.968  0.00  0.00    +0.000 A 
ATOM     16  C   UNL     1      28.078  23.064  27.675  0.00  0.00    +0.000 A 
ATOM     17  C   UNL     1      31.350  21.952  29.629  0.00  0.00    +0.000 C 
ATOM     18  C   UNL     1      32.118  21.852  28.344  0.00  0.00    +0.000 C 
ATOM     19  C   UNL     1      32.792  21.540  29.647  0.00  0.00    +0.000 C 
ATOM     20  C   UNL     1      33.186  21.295  31.074  0.00  0.00    +0.000 C 
ATOM     21  C   UNL     1      31.987  21.556  31.937  0.00  0.00    +0.000 C 
ATOM     22  O   UNL     1      31.932  21.434  33.431  0.00  0.00    +0.000 OA
ENDROOT
TORSDOF 0
ENDMDL
MODEL 8
REMARK VINA RESULT:      -7.3      2.845      6.750
REMARK  Name = 
REMARK  0 active torsions:
REMARK  status: ('A' for Active; 'I' for Inactive)
REMARK                            x       y       z     vdW  Elec       q    Type
REMARK                         _______ _______ _______ _____ _____    ______ ____
ROOT
ATOM      1  C   UNL     1      27.169  27.340  22.107  0.00  0.00    +0.000 C 
ATOM      2  C   UNL     1      27.778  26.100  22.693  0.00  0.00    +0.000 C 
ATOM      3  C   UNL     1      26.796  26.784  23.598  0.00  0.00    +0.000 C 
ATOM      4  C   UNL     1      26.504  26.213  24.954  0.00  0.00    +0.000 C 
ATOM      5  F   UNL     1      25.522  26.896  25.859  0.00  0.00    +0.000 F 
ATOM      6  C   UNL     1      27.194  24.961  25.405  0.00  0.00    +0.000 A 
ATOM      7  C   UNL     1      28.176  24.278  24.501  0.00  0.00    +0.000 A 
ATOM      8  C   UNL     1      28.866  23.025  24.952  0.00  0.00    +0.000 A 
ATOM      9  C   UNL     1      28.574  22.454  26.309  0.00  0.00    +0.000 A 
ATOM     10  C   UNL     1      27.592  23.137  27.213  0.00  0.00    +0.000 A 
ATOM     11  C   UNL     1      27.300  22.568  28.569  0.00  0.00    +0.000 A 
ATOM     12  C   UNL     1      26.318  23.250  29.475  0.00  0.00    +0.000 A 
ATOM     13  O   UNL     1      26.026  22.681  30.831  0.00  0.00    +0.000 OA
ATOM     14  C   UNL     1      25.628  24.504  29.023  0.00  0.00    +0.000 A 
ATOM     15  C   UNL     1      25.920  25.074  27.667  0.00  0.00    +0.000 A 
ATOM     16  C   UNL     1      26.902  24.391  26.762  0.00  0.00    +0.000 A 
ATOM     17  C   UNL     1      28.468  24.848  23.144  0.00  0.00    +0.000 C 
ATOM     18  C   UNL     1      29.296  23.608  23.314  0.00  0.00    +0.000 C 
ATOM     19  C   UNL     1      29.381  24.398  22.042  0.00  0.00    +0.000 C 
ATOM     20  C   UNL     1      29.255  25.374  20.909  0.00  0.00    +0.000 C 
ATOM     21  C   UNL     1      28.265  26.426  21.311  0.00  0.00    +0.000 C 
ATOM     22  O   UNL     1      27.835  27.598  20.479  0.00  0.00    +0.000 OA
ENDROOT
TORSDOF 0
ENDMDL
MODEL 9
REMARK VINA RESULT:      -7.1      1.427      6.411
REMARK  Name = 
REMARK  0 active torsions:
REMARK  status: ('A' for Active; 'I' for Inactive)
REMARK                            x       y       z     vdW  Elec       q    Type
REMARK                         _______ _______ _______ _____ _____    ______ ____
ROOT
ATOM      1  C   UNL     1      25.773  23.806  26.369  0.00  0.00    +0.000 C 
ATOM      2  C   UNL     1      27.212  23.387  26.318  0.00  0.00    +0.000 C 
ATOM      3  C   UNL     1      26.662  23.510  27.708  0.00  0.00    +0.000 C 
ATOM      4  C   UNL     1      27.539  23.221  28.890  0.00  0.00    +0.000 C 
ATOM      5  F   UNL     1      26.988  23.344  30.280  0.00  0.00    +0.000 F 
ATOM      6  C   UNL     1      28.966  22.810  28.682  0.00  0.00    +0.000 A 
ATOM      7  C   UNL     1      29.516  22.688  27.293  0.00  0.00    +0.000 A 
ATOM      8  C   UNL     1      30.944  22.276  27.085  0.00  0.00    +0.000 A 
ATOM      9  C   UNL     1      31.821  21.988  28.267  0.00  0.00    +0.000 A 
ATOM     10  C   UNL     1      31.271  22.110  29.657  0.00  0.00    +0.000 A 
ATOM     11  C   UNL     1      32.147  21.822  30.839  0.00  0.00    +0.000 A 
ATOM     12  C   UNL     1      31.597  21.944  32.229  0.00  0.00    +0.000 A 
ATOM     13  O   UNL     1      32.473  21.655  33.411  0.00  0.00    +0.000 OA
ATOM     14  C   UNL     1      30.169  22.355  32.436  0.00  0.00    +0.000 A 
ATOM     15  C   UNL     1      29.292  22.644  31.255  0.00  0.00    +0.000 A 
ATOM     16  C   UNL     1      29.843  22.521  29.865  0.00  0.00    +0.000 A 
ATOM     17  C   UNL     1      28.639  22.976  26.110  0.00  0.00    +0.000 C 
ATOM     18  C   UNL     1      29.997  22.594  25.598  0.00  0.00    +0.000 C 
ATOM     19  C   UNL     1      28.902  22.940  24.634  0.00  0.00    +0.000 C 
ATOM     20  C   UNL     1      27.635  23.330  23.929  0.00  0.00    +0.000 C 
ATOM     21  C   UNL     1      26.592  23.606  24.969  0.00  0.00    +0.000 C 
ATOM     22  O   UNL     1      25.176  24.026  24.709  0.00  0.00    +0.000 OA
ENDROOT
TORSDOF 0
ENDMDL
MODEL 10
REMARK VINA RESULT:      -7.1     32.413     32.734
REMARK  Name = 
REMARK  0 active torsions:
REMARK  status: ('A' for Active; 'I' for Inactive)
REMARK                            x       y       z     vdW  Elec       q    Type
REMARK                         _______ _______ _______ _____ _____    ______ ____
ROOT
ATOM      1  C   UNL     1      19.163 -10.792  27.867  0.00  0.00    +0.000 C 
ATOM      2  C   UNL     1      19.520  -9.510  27.175  0.00  0.00    +0.000 C 
ATOM      3  C   UNL     1      20.562 -10.581  27.049  0.00  0.00    +0.000 C 
ATOM      4  C   UNL     1      21.823 -10.315  26.281  0.00  0.00    +0.000 C 
ATOM      5  F   UNL     1      22.865 -11.386  26.156  0.00  0.00    +0.000 F 
ATOM      6  C   UNL     1      22.041  -8.978  25.639  0.00  0.00    +0.000 A 
ATOM      7  C   UNL     1      20.999  -7.906  25.765  0.00  0.00    +0.000 A 
ATOM      8  C   UNL     1      21.218  -6.568  25.122  0.00  0.00    +0.000 A 
ATOM      9  C   UNL     1      22.479  -6.301  24.354  0.00  0.00    +0.000 A 
ATOM     10  C   UNL     1      23.521  -7.373  24.229  0.00  0.00    +0.000 A 
ATOM     11  C   UNL     1      24.782  -7.107  23.462  0.00  0.00    +0.000 A 
ATOM     12  C   UNL     1      25.824  -8.178  23.336  0.00  0.00    +0.000 A 
ATOM     13  O   UNL     1      27.085  -7.912  22.569  0.00  0.00    +0.000 OA
ATOM     14  C   UNL     1      25.605  -9.516  23.979  0.00  0.00    +0.000 A 
ATOM     15  C   UNL     1      24.345  -9.783  24.746  0.00  0.00    +0.000 A 
ATOM     16  C   UNL     1      23.303  -8.711  24.871  0.00  0.00    +0.000 A 
ATOM     17  C   UNL     1      19.738  -8.173  26.533  0.00  0.00    +0.000 C 
ATOM     18  C   UNL     1      19.676  -6.767  26.011  0.00  0.00    +0.000 C 
ATOM     19  C   UNL     1      18.542  -7.317  26.824  0.00  0.00    +0.000 C 
ATOM     20  C   UNL     1      17.583  -8.126  27.647  0.00  0.00    +0.000 C 
ATOM     21  C   UNL     1      18.187  -9.481  27.864  0.00  0.00    +0.000 C 
ATOM     22  O   UNL     1      17.569 -10.610  28.634  0.00  0.00    +0.000 OA
ENDROOT
TORSDOF 0
ENDMDL
