MODEL 1
REMARK VINA RESULT:      -7.4      0.000      0.000
REMARK  Name = 
REMARK  3 active torsions:
REMARK  status: ('A' for Active; 'I' for Inactive)
REMARK    1  A    between atoms: C_2  and  C_4
REMARK    2  A    between atoms: C_9  and  N_10
REMARK    3  A    between atoms: C_11  and  C_13
REMARK                            x       y       z     vdW  Elec       q    Type
REMARK                         _______ _______ _______ _____ _____    ______ ____
ROOT
ATOM      1  N   UNL     1      14.340  11.928  35.099  0.00  0.00    +0.000 NA
ATOM      2  C   UNL     1      15.247  12.251  36.128  0.00  0.00    +0.000 C 
ATOM      3  O   UNL     1      15.932  13.293  35.970  0.00  0.00    +0.000 OA
ENDROOT
BRANCH   2   4
ATOM      4  C   UNL     1      15.420  11.427  37.366  0.00  0.00    +0.000 A 
ATOM      5  C   UNL     1      14.361  11.191  38.209  0.00  0.00    +0.000 A 
ATOM      6  S   UNL     1      15.013  10.236  39.443  0.00  0.00    +0.000 S 
ATOM      7  C   UNL     1      16.614  10.141  38.886  0.00  0.00    +0.000 A 
ATOM      8  C   UNL     1      16.609  10.869  37.728  0.00  0.00    +0.000 A 
ATOM      9  C   UNL     1      17.963  10.939  37.020  0.00  0.00    +0.000 C 
ATOM     10  C   UNL     1      18.935  11.345  38.107  0.00  0.00    +0.000 C 
ATOM     11  C   UNL     1      19.091  10.306  39.166  0.00  0.00    +0.000 C 
ATOM     12  C   UNL     1      17.876   9.473  39.392  0.00  0.00    +0.000 C 
ENDBRANCH   2   4
BRANCH   1  18
ATOM     13  C   UNL     1      14.692  12.429  32.699  0.00  0.00    +0.000 A 
ATOM     14  C   UNL     1      14.538  13.309  31.621  0.00  0.00    +0.000 A 
ATOM     15  C   UNL     1      13.919  14.529  31.772  0.00  0.00    +0.000 A 
ATOM     16  C   UNL     1      13.443  14.881  33.017  0.00  0.00    +0.000 A 
ATOM     17  C   UNL     1      13.600  14.007  34.075  0.00  0.00    +0.000 A 
ATOM     18  C   UNL     1      14.225  12.772  33.930  0.00  0.00    +0.000 A 
BRANCH  13  20
ATOM     19  N   UNL     1      14.571  10.037  32.053  0.00  0.00    +0.000 NA
ATOM     20  C   UNL     1      15.348  11.145  32.521  0.00  0.00    +0.000 C 
ATOM     21  O   UNL     1      16.552  10.951  32.752  0.00  0.00    +0.000 OA
ENDBRANCH  13  20
ENDBRANCH   1  18
TORSDOF 3
ENDMDL
MODEL 2
REMARK VINA RESULT:      -6.5      2.586      3.840
REMARK  Name = 
REMARK  3 active torsions:
REMARK  status: ('A' for Active; 'I' for Inactive)
REMARK    1  A    between atoms: C_2  and  C_4
REMARK    2  A    between atoms: C_9  and  N_10
REMARK    3  A    between atoms: C_11  and  C_13
REMARK                            x       y       z     vdW  Elec       q    Type
REMARK                         _______ _______ _______ _____ _____    ______ ____
ROOT
ATOM      1  N   UNL     1      17.568  11.082  34.982  0.00  0.00    +0.000 NA
ATOM      2  C   UNL     1      17.939   9.922  35.691  0.00  0.00    +0.000 C 
ATOM      3  O   UNL     1      17.399   8.845  35.333  0.00  0.00    +0.000 OA
ENDROOT
BRANCH   2   4
ATOM      4  C   UNL     1      18.923   9.923  36.819  0.00  0.00    +0.000 A 
ATOM      5  C   UNL     1      20.268   9.774  36.581  0.00  0.00    +0.000 A 
ATOM      6  S   UNL     1      20.974   9.836  38.117  0.00  0.00    +0.000 S 
ATOM      7  C   UNL     1      19.569  10.050  39.045  0.00  0.00    +0.000 A 
ATOM      8  C   UNL     1      18.559  10.069  38.124  0.00  0.00    +0.000 A 
ATOM      9  C   UNL     1      17.163  10.253  38.721  0.00  0.00    +0.000 C 
ATOM     10  C   UNL     1      17.090   9.225  39.830  0.00  0.00    +0.000 C 
ATOM     11  C   UNL     1      18.042   9.504  40.944  0.00  0.00    +0.000 C 
ATOM     12  C   UNL     1      19.289  10.203  40.526  0.00  0.00    +0.000 C 
ENDBRANCH   2   4
BRANCH   1  18
ATOM     13  C   UNL     1      15.321  11.429  34.000  0.00  0.00    +0.000 A 
ATOM     14  C   UNL     1      14.461  11.319  32.901  0.00  0.00    +0.000 A 
ATOM     15  C   UNL     1      14.887  10.786  31.706  0.00  0.00    +0.000 A 
ATOM     16  C   UNL     1      16.193  10.356  31.599  0.00  0.00    +0.000 A 
ATOM     17  C   UNL     1      17.034  10.469  32.689  0.00  0.00    +0.000 A 
ATOM     18  C   UNL     1      16.610  11.007  33.901  0.00  0.00    +0.000 A 
BRANCH  13  20
ATOM     19  N   UNL     1      14.423  13.361  35.272  0.00  0.00    +0.000 NA
ATOM     20  C   UNL     1      14.854  11.995  35.254  0.00  0.00    +0.000 C 
ATOM     21  O   UNL     1      14.804  11.359  36.317  0.00  0.00    +0.000 OA
ENDBRANCH  13  20
ENDBRANCH   1  18
TORSDOF 3
ENDMDL
MODEL 3
REMARK VINA RESULT:      -6.3     20.609     21.796
REMARK  Name = 
REMARK  3 active torsions:
REMARK  status: ('A' for Active; 'I' for Inactive)
REMARK    1  A    between atoms: C_2  and  C_4
REMARK    2  A    between atoms: C_9  and  N_10
REMARK    3  A    between atoms: C_11  and  C_13
REMARK                            x       y       z     vdW  Elec       q    Type
REMARK                         _______ _______ _______ _____ _____    ______ ____
ROOT
ATOM      1  N   UNL     1      29.384  24.484  24.693  0.00  0.00    +0.000 NA
ATOM      2  C   UNL     1      30.433  23.565  24.897  0.00  0.00    +0.000 C 
ATOM      3  O   UNL     1      30.254  22.399  24.463  0.00  0.00    +0.000 OA
ENDROOT
BRANCH   2   4
ATOM      4  C   UNL     1      31.715  23.914  25.587  0.00  0.00    +0.000 A 
ATOM      5  C   UNL     1      32.739  24.523  24.905  0.00  0.00    +0.000 A 
ATOM      6  S   UNL     1      33.956  24.719  26.064  0.00  0.00    +0.000 S 
ATOM      7  C   UNL     1      33.162  24.033  27.398  0.00  0.00    +0.000 A 
ATOM      8  C   UNL     1      31.943  23.657  26.906  0.00  0.00    +0.000 A 
ATOM      9  C   UNL     1      31.021  22.999  27.934  0.00  0.00    +0.000 C 
ATOM     10  C   UNL     1      31.882  21.934  28.582  0.00  0.00    +0.000 C 
ATOM     11  C   UNL     1      33.016  22.502  29.367  0.00  0.00    +0.000 C 
ATOM     12  C   UNL     1      33.532  23.801  28.849  0.00  0.00    +0.000 C 
ENDBRANCH   2   4
BRANCH   1  18
ATOM     13  C   UNL     1      27.959  24.236  22.683  0.00  0.00    +0.000 A 
ATOM     14  C   UNL     1      26.753  23.812  22.110  0.00  0.00    +0.000 A 
ATOM     15  C   UNL     1      25.763  23.232  22.869  0.00  0.00    +0.000 A 
ATOM     16  C   UNL     1      25.974  23.067  24.222  0.00  0.00    +0.000 A 
ATOM     17  C   UNL     1      27.166  23.488  24.778  0.00  0.00    +0.000 A 
ATOM     18  C   UNL     1      28.172  24.077  24.017  0.00  0.00    +0.000 A 
BRANCH  13  20
ATOM     19  N   UNL     1      29.154  26.270  21.914  0.00  0.00    +0.000 NA
ATOM     20  C   UNL     1      28.993  24.847  21.867  0.00  0.00    +0.000 C 
ATOM     21  O   UNL     1      29.752  24.204  21.125  0.00  0.00    +0.000 OA
ENDBRANCH  13  20
ENDBRANCH   1  18
TORSDOF 3
ENDMDL
MODEL 4
REMARK VINA RESULT:      -6.2      3.197      4.634
REMARK  Name = 
REMARK  3 active torsions:
REMARK  status: ('A' for Active; 'I' for Inactive)
REMARK    1  A    between atoms: C_2  and  C_4
REMARK    2  A    between atoms: C_9  and  N_10
REMARK    3  A    between atoms: C_11  and  C_13
REMARK                            x       y       z     vdW  Elec       q    Type
REMARK                         _______ _______ _______ _____ _____    ______ ____
ROOT
ATOM      1  N   UNL     1      17.787  10.353  37.588  0.00  0.00    +0.000 NA
ATOM      2  C   UNL     1      18.876  11.167  37.958  0.00  0.00    +0.000 C 
ATOM      3  O   UNL     1      18.805  12.381  37.642  0.00  0.00    +0.000 OA
ENDROOT
BRANCH   2   4
ATOM      4  C   UNL     1      20.077  10.657  38.692  0.00  0.00    +0.000 A 
ATOM      5  C   UNL     1      20.184  10.803  40.054  0.00  0.00    +0.000 A 
ATOM      6  S   UNL     1      21.672  10.093  40.435  0.00  0.00    +0.000 S 
ATOM      7  C   UNL     1      22.145   9.620  38.875  0.00  0.00    +0.000 A 
ATOM      8  C   UNL     1      21.116  10.031  38.073  0.00  0.00    +0.000 A 
ATOM      9  C   UNL     1      21.307   9.714  36.589  0.00  0.00    +0.000 C 
ATOM     10  C   UNL     1      22.697  10.223  36.272  0.00  0.00    +0.000 C 
ATOM     11  C   UNL     1      23.768   9.466  36.983  0.00  0.00    +0.000 C 
ATOM     12  C   UNL     1      23.356   8.911  38.303  0.00  0.00    +0.000 C 
ENDBRANCH   2   4
BRANCH   1  18
ATOM     13  C   UNL     1      16.456  10.773  35.542  0.00  0.00    +0.000 A 
ATOM     14  C   UNL     1      15.333  11.350  34.938  0.00  0.00    +0.000 A 
ATOM     15  C   UNL     1      14.414  12.069  35.668  0.00  0.00    +0.000 A 
ATOM     16  C   UNL     1      14.613  12.215  37.025  0.00  0.00    +0.000 A 
ATOM     17  C   UNL     1      15.723  11.642  37.612  0.00  0.00    +0.000 A 
ATOM     18  C   UNL     1      16.658  10.914  36.880  0.00  0.00    +0.000 A 
BRANCH  13  20
ATOM     19  N   UNL     1      17.737   8.682  35.162  0.00  0.00    +0.000 NA
ATOM     20  C   UNL     1      17.415  10.017  34.756  0.00  0.00    +0.000 C 
ATOM     21  O   UNL     1      17.977  10.464  33.744  0.00  0.00    +0.000 OA
ENDBRANCH  13  20
ENDBRANCH   1  18
TORSDOF 3
ENDMDL
MODEL 5
REMARK VINA RESULT:      -6.2     22.002     24.418
REMARK  Name = 
REMARK  3 active torsions:
REMARK  status: ('A' for Active; 'I' for Inactive)
REMARK    1  A    between atoms: C_2  and  C_4
REMARK    2  A    between atoms: C_9  and  N_10
REMARK    3  A    between atoms: C_11  and  C_13
REMARK                            x       y       z     vdW  Elec       q    Type
REMARK                         _______ _______ _______ _____ _____    ______ ____
ROOT
ATOM      1  N   UNL     1      29.467  25.803  22.664  0.00  0.00    +0.000 NA
ATOM      2  C   UNL     1      29.475  25.694  21.259  0.00  0.00    +0.000 C 
ATOM      3  O   UNL     1      29.678  24.549  20.783  0.00  0.00    +0.000 OA
ENDROOT
BRANCH   2   4
ATOM      4  C   UNL     1      29.255  26.855  20.339  0.00  0.00    +0.000 A 
ATOM      5  C   UNL     1      30.173  27.166  19.366  0.00  0.00    +0.000 A 
ATOM      6  S   UNL     1      29.518  28.519  18.590  0.00  0.00    +0.000 S 
ATOM      7  C   UNL     1      28.093  28.680  19.498  0.00  0.00    +0.000 A 
ATOM      8  C   UNL     1      28.157  27.658  20.405  0.00  0.00    +0.000 A 
ATOM      9  C   UNL     1      26.964  27.586  21.360  0.00  0.00    +0.000 C 
ATOM     10  C   UNL     1      26.823  28.997  21.892  0.00  0.00    +0.000 C 
ATOM     11  C   UNL     1      26.433  29.979  20.839  0.00  0.00    +0.000 C 
ATOM     12  C   UNL     1      26.921  29.640  19.472  0.00  0.00    +0.000 C 
ENDBRANCH   2   4
BRANCH   1  18
ATOM     13  C   UNL     1      28.695  23.809  23.914  0.00  0.00    +0.000 A 
ATOM     14  C   UNL     1      28.999  22.702  24.715  0.00  0.00    +0.000 A 
ATOM     15  C   UNL     1      30.292  22.422  25.093  0.00  0.00    +0.000 A 
ATOM     16  C   UNL     1      31.303  23.258  24.667  0.00  0.00    +0.000 A 
ATOM     17  C   UNL     1      30.993  24.348  23.878  0.00  0.00    +0.000 A 
ATOM     18  C   UNL     1      29.687  24.637  23.492  0.00  0.00    +0.000 A 
BRANCH  13  20
ATOM     19  N   UNL     1      26.785  23.417  22.380  0.00  0.00    +0.000 NA
ATOM     20  C   UNL     1      27.324  24.089  23.525  0.00  0.00    +0.000 C 
ATOM     21  O   UNL     1      26.585  24.881  24.131  0.00  0.00    +0.000 OA
ENDBRANCH  13  20
ENDBRANCH   1  18
TORSDOF 3
ENDMDL
MODEL 6
REMARK VINA RESULT:      -6.2     18.291     20.252
REMARK  Name = 
REMARK  3 active torsions:
REMARK  status: ('A' for Active; 'I' for Inactive)
REMARK    1  A    between atoms: C_2  and  C_4
REMARK    2  A    between atoms: C_9  and  N_10
REMARK    3  A    between atoms: C_11  and  C_13
REMARK                            x       y       z     vdW  Elec       q    Type
REMARK                         _______ _______ _______ _____ _____    ______ ____
ROOT
ATOM      1  N   UNL     1      28.148  23.706  27.892  0.00  0.00    +0.000 NA
ATOM      2  C   UNL     1      28.214  22.939  26.712  0.00  0.00    +0.000 C 
ATOM      3  O   UNL     1      28.989  21.950  26.725  0.00  0.00    +0.000 OA
ENDROOT
BRANCH   2   4
ATOM      4  C   UNL     1      27.421  23.247  25.481  0.00  0.00    +0.000 A 
ATOM      5  C   UNL     1      26.127  22.805  25.348  0.00  0.00    +0.000 A 
ATOM      6  S   UNL     1      25.642  23.378  23.832  0.00  0.00    +0.000 S 
ATOM      7  C   UNL     1      27.073  24.170  23.379  0.00  0.00    +0.000 A 
ATOM      8  C   UNL     1      27.917  23.968  24.437  0.00  0.00    +0.000 A 
ATOM      9  C   UNL     1      29.301  24.598  24.270  0.00  0.00    +0.000 C 
ATOM     10  C   UNL     1      29.760  24.138  22.902  0.00  0.00    +0.000 C 
ATOM     11  C   UNL     1      28.931  24.694  21.794  0.00  0.00    +0.000 C 
ATOM     12  C   UNL     1      27.511  24.957  22.161  0.00  0.00    +0.000 C 
ENDBRANCH   2   4
BRANCH   1  18
ATOM     13  C   UNL     1      28.448  22.719  30.144  0.00  0.00    +0.000 A 
ATOM     14  C   UNL     1      29.293  22.411  31.217  0.00  0.00    +0.000 A 
ATOM     15  C   UNL     1      30.630  22.734  31.194  0.00  0.00    +0.000 A 
ATOM     16  C   UNL     1      31.139  23.374  30.083  0.00  0.00    +0.000 A 
ATOM     17  C   UNL     1      30.298  23.674  29.030  0.00  0.00    +0.000 A 
ATOM     18  C   UNL     1      28.944  23.350  29.046  0.00  0.00    +0.000 A 
BRANCH  13  20
ATOM     19  N   UNL     1      26.103  23.347  30.655  0.00  0.00    +0.000 NA
ATOM     20  C   UNL     1      27.039  22.369  30.186  0.00  0.00    +0.000 C 
ATOM     21  O   UNL     1      26.594  21.266  29.835  0.00  0.00    +0.000 OA
ENDBRANCH  13  20
ENDBRANCH   1  18
TORSDOF 3
ENDMDL
MODEL 7
REMARK VINA RESULT:      -6.1      3.497      7.355
REMARK  Name = 
REMARK  3 active torsions:
REMARK  status: ('A' for Active; 'I' for Inactive)
REMARK    1  A    between atoms: C_2  and  C_4
REMARK    2  A    between atoms: C_9  and  N_10
REMARK    3  A    between atoms: C_11  and  C_13
REMARK                            x       y       z     vdW  Elec       q    Type
REMARK                         _______ _______ _______ _____ _____    ______ ____
ROOT
ATOM      1  N   UNL     1      19.206  10.923  37.870  0.00  0.00    +0.000 NA
ATOM      2  C   UNL     1      18.112  10.236  37.307  0.00  0.00    +0.000 C 
ATOM      3  O   UNL     1      18.322   9.057  36.927  0.00  0.00    +0.000 OA
ENDROOT
BRANCH   2   4
ATOM      4  C   UNL     1      16.750  10.837  37.151  0.00  0.00    +0.000 A 
ATOM      5  C   UNL     1      15.831  10.774  38.170  0.00  0.00    +0.000 A 
ATOM      6  S   UNL     1      14.469  11.567  37.555  0.00  0.00    +0.000 S 
ATOM      7  C   UNL     1      15.069  11.971  36.020  0.00  0.00    +0.000 A 
ATOM      8  C   UNL     1      16.343  11.471  36.016  0.00  0.00    +0.000 A 
ATOM      9  C   UNL     1      17.111  11.711  34.715  0.00  0.00    +0.000 C 
ATOM     10  C   UNL     1      16.165  11.246  33.629  0.00  0.00    +0.000 C 
ATOM     11  C   UNL     1      14.938  12.087  33.528  0.00  0.00    +0.000 C 
ATOM     12  C   UNL     1      14.504  12.697  34.816  0.00  0.00    +0.000 C 
ENDBRANCH   2   4
BRANCH   1  18
ATOM     13  C   UNL     1      20.964   9.730  39.143  0.00  0.00    +0.000 A 
ATOM     14  C   UNL     1      22.226   9.125  39.169  0.00  0.00    +0.000 A 
ATOM     15  C   UNL     1      23.019   9.069  38.045  0.00  0.00    +0.000 A 
ATOM     16  C   UNL     1      22.549   9.624  36.873  0.00  0.00    +0.000 A 
ATOM     17  C   UNL     1      21.303  10.218  36.858  0.00  0.00    +0.000 A 
ATOM     18  C   UNL     1      20.495  10.279  37.990  0.00  0.00    +0.000 A 
BRANCH  13  20
ATOM     19  N   UNL     1      19.228   8.704  40.589  0.00  0.00    +0.000 NA
ATOM     20  C   UNL     1      20.141   9.780  40.338  0.00  0.00    +0.000 C 
ATOM     21  O   UNL     1      20.182  10.706  41.163  0.00  0.00    +0.000 OA
ENDBRANCH  13  20
ENDBRANCH   1  18
TORSDOF 3
ENDMDL
MODEL 8
REMARK VINA RESULT:      -6.1      3.079      4.839
REMARK  Name = 
REMARK  3 active torsions:
REMARK  status: ('A' for Active; 'I' for Inactive)
REMARK    1  A    between atoms: C_2  and  C_4
REMARK    2  A    between atoms: C_9  and  N_10
REMARK    3  A    between atoms: C_11  and  C_13
REMARK                            x       y       z     vdW  Elec       q    Type
REMARK                         _______ _______ _______ _____ _____    ______ ____
ROOT
ATOM      1  N   UNL     1      17.520   9.725  37.586  0.00  0.00    +0.000 NA
ATOM      2  C   UNL     1      18.511  10.385  38.340  0.00  0.00    +0.000 C 
ATOM      3  O   UNL     1      19.134  11.312  37.764  0.00  0.00    +0.000 OA
ENDROOT
BRANCH   2   4
ATOM      4  C   UNL     1      18.841  10.035  39.758  0.00  0.00    +0.000 A 
ATOM      5  C   UNL     1      20.142  10.038  40.199  0.00  0.00    +0.000 A 
ATOM      6  S   UNL     1      20.032   9.591  41.827  0.00  0.00    +0.000 S 
ATOM      7  C   UNL     1      18.348   9.406  41.937  0.00  0.00    +0.000 A 
ATOM      8  C   UNL     1      17.896   9.701  40.680  0.00  0.00    +0.000 A 
ATOM      9  C   UNL     1      16.378   9.604  40.516  0.00  0.00    +0.000 C 
ATOM     10  C   UNL     1      16.023   8.251  41.096  0.00  0.00    +0.000 C 
ATOM     11  C   UNL     1      16.272   8.166  42.564  0.00  0.00    +0.000 C 
ATOM     12  C   UNL     1      17.393   9.021  43.048  0.00  0.00    +0.000 C 
ENDBRANCH   2   4
BRANCH   1  18
ATOM     13  C   UNL     1      16.378  11.094  35.867  0.00  0.00    +0.000 A 
ATOM     14  C   UNL     1      16.183  11.408  34.517  0.00  0.00    +0.000 A 
ATOM     15  C   UNL     1      16.861  10.745  33.520  0.00  0.00    +0.000 A 
ATOM     16  C   UNL     1      17.753   9.753  33.871  0.00  0.00    +0.000 A 
ATOM     17  C   UNL     1      17.938   9.450  35.205  0.00  0.00    +0.000 A 
ATOM     18  C   UNL     1      17.255  10.116  36.219  0.00  0.00    +0.000 A 
BRANCH  13  20
ATOM     19  N   UNL     1      14.447  11.223  37.421  0.00  0.00    +0.000 NA
ATOM     20  C   UNL     1      15.652  11.803  36.906  0.00  0.00    +0.000 C 
ATOM     21  O   UNL     1      16.017  12.891  37.379  0.00  0.00    +0.000 OA
ENDBRANCH  13  20
ENDBRANCH   1  18
TORSDOF 3
ENDMDL
MODEL 9
REMARK VINA RESULT:      -6.1     18.766     19.720
REMARK  Name = 
REMARK  3 active torsions:
REMARK  status: ('A' for Active; 'I' for Inactive)
REMARK    1  A    between atoms: C_2  and  C_4
REMARK    2  A    between atoms: C_9  and  N_10
REMARK    3  A    between atoms: C_11  and  C_13
REMARK                            x       y       z     vdW  Elec       q    Type
REMARK                         _______ _______ _______ _____ _____    ______ ____
ROOT
ATOM      1  N   UNL     1      28.487  22.304  26.955  0.00  0.00    +0.000 NA
ATOM      2  C   UNL     1      28.810  23.238  27.960  0.00  0.00    +0.000 C 
ATOM      3  O   UNL     1      28.533  24.440  27.723  0.00  0.00    +0.000 OA
ENDROOT
BRANCH   2   4
ATOM      4  C   UNL     1      29.450  22.863  29.261  0.00  0.00    +0.000 A 
ATOM      5  C   UNL     1      28.749  22.945  30.440  0.00  0.00    +0.000 A 
ATOM      6  S   UNL     1      29.850  22.434  31.617  0.00  0.00    +0.000 S 
ATOM      7  C   UNL     1      31.184  22.122  30.614  0.00  0.00    +0.000 A 
ATOM      8  C   UNL     1      30.737  22.428  29.358  0.00  0.00    +0.000 A 
ATOM      9  C   UNL     1      31.774  22.226  28.252  0.00  0.00    +0.000 C 
ATOM     10  C   UNL     1      33.007  22.944  28.758  0.00  0.00    +0.000 C 
ATOM     11  C   UNL     1      33.591  22.309  29.975  0.00  0.00    +0.000 C 
ATOM     12  C   UNL     1      32.596  21.627  30.850  0.00  0.00    +0.000 C 
ENDBRANCH   2   4
BRANCH   1  18
ATOM     13  C   UNL     1      28.566  23.144  24.626  0.00  0.00    +0.000 A 
ATOM     14  C   UNL     1      27.884  23.548  23.472  0.00  0.00    +0.000 A 
ATOM     15  C   UNL     1      26.509  23.547  23.412  0.00  0.00    +0.000 A 
ATOM     16  C   UNL     1      25.797  23.135  24.519  0.00  0.00    +0.000 A 
ATOM     17  C   UNL     1      26.478  22.739  25.653  0.00  0.00    +0.000 A 
ATOM     18  C   UNL     1      27.869  22.738  25.721  0.00  0.00    +0.000 A 
BRANCH  13  20
ATOM     19  N   UNL     1      30.688  24.383  24.968  0.00  0.00    +0.000 NA
ATOM     20  C   UNL     1      30.018  23.152  24.672  0.00  0.00    +0.000 C 
ATOM     21  O   UNL     1      30.717  22.148  24.468  0.00  0.00    +0.000 OA
ENDBRANCH  13  20
ENDBRANCH   1  18
TORSDOF 3
ENDMDL
MODEL 10
REMARK VINA RESULT:      -6.1     19.824     21.862
REMARK  Name = 
REMARK  3 active torsions:
REMARK  status: ('A' for Active; 'I' for Inactive)
REMARK    1  A    between atoms: C_2  and  C_4
REMARK    2  A    between atoms: C_9  and  N_10
REMARK    3  A    between atoms: C_11  and  C_13
REMARK                            x       y       z     vdW  Elec       q    Type
REMARK                         _______ _______ _______ _____ _____    ______ ____
ROOT
ATOM      1  N   UNL     1      34.793   0.090  35.944  0.00  0.00    +0.000 NA
ATOM      2  C   UNL     1      33.855   0.727  36.780  0.00  0.00    +0.000 C 
ATOM      3  O   UNL     1      32.752   0.145  36.936  0.00  0.00    +0.000 OA
ENDROOT
BRANCH   2   4
ATOM      4  C   UNL     1      34.112   2.032  37.468  0.00  0.00    +0.000 A 
ATOM      5  C   UNL     1      34.197   2.100  38.838  0.00  0.00    +0.000 A 
ATOM      6  S   UNL     1      34.491   3.734  39.158  0.00  0.00    +0.000 S 
ATOM      7  C   UNL     1      34.506   4.317  37.563  0.00  0.00    +0.000 A 
ATOM      8  C   UNL     1      34.277   3.206  36.799  0.00  0.00    +0.000 A 
ATOM      9  C   UNL     1      34.243   3.472  35.293  0.00  0.00    +0.000 C 
ATOM     10  C   UNL     1      33.296   4.644  35.140  0.00  0.00    +0.000 C 
ATOM     11  C   UNL     1      33.819   5.898  35.756  0.00  0.00    +0.000 C 
ATOM     12  C   UNL     1      34.705   5.680  36.934  0.00  0.00    +0.000 C 
ENDBRANCH   2   4
BRANCH   1  18
ATOM     13  C   UNL     1      33.888  -1.278  34.089  0.00  0.00    +0.000 A 
ATOM     14  C   UNL     1      33.616  -2.542  33.550  0.00  0.00    +0.000 A 
ATOM     15  C   UNL     1      33.930  -3.695  34.231  0.00  0.00    +0.000 A 
ATOM     16  C   UNL     1      34.527  -3.593  35.470  0.00  0.00    +0.000 A 
ATOM     17  C   UNL     1      34.791  -2.342  35.993  0.00  0.00    +0.000 A 
ATOM     18  C   UNL     1      34.476  -1.170  35.310  0.00  0.00    +0.000 A 
BRANCH  13  20
ATOM     19  N   UNL     1      34.412   0.352  32.293  0.00  0.00    +0.000 NA
ATOM     20  C   UNL     1      33.549  -0.071  33.355  0.00  0.00    +0.000 C 
ATOM     21  O   UNL     1      32.548   0.621  33.596  0.00  0.00    +0.000 OA
ENDBRANCH  13  20
ENDBRANCH   1  18
TORSDOF 3
ENDMDL
