MODEL 1
REMARK VINA RESULT:      -7.0      0.000      0.000
REMARK  Name = 
REMARK  8 active torsions:
REMARK  status: ('A' for Active; 'I' for Inactive)
REMARK    1  A    between atoms: C_5  and  S_6
REMARK    2  A    between atoms: S_6  and  N_9
REMARK    3  A    between atoms: N_9  and  N_10
REMARK    4  A    between atoms: C_11  and  C_12
REMARK    5  A    between atoms: C_11  and  C_19
REMARK    6  A    between atoms: C_22  and  O_23
REMARK    7  A    between atoms: O_23  and  C_24
REMARK    8  A    between atoms: C_24  and  C_25
REMARK                            x       y       z     vdW  Elec       q    Type
REMARK                         _______ _______ _______ _____ _____    ______ ____
ROOT
ATOM      1  N   UNL     1      36.245  -1.717  16.536  0.00  0.00    +0.000 NA
ATOM      2  C   UNL     1      36.582  -2.748  15.836  0.00  0.00    +0.000 C 
ENDROOT
BRANCH   2   3
ATOM      3  C   UNL     1      35.712  -3.895  15.666  0.00  0.00    +0.000 A 
ATOM      4  C   UNL     1      34.497  -3.770  15.036  0.00  0.00    +0.000 A 
ATOM      5  C   UNL     1      33.635  -4.833  14.851  0.00  0.00    +0.000 A 
ATOM      6  C   UNL     1      33.992  -6.074  15.310  0.00  0.00    +0.000 A 
ATOM      7  F   UNL     1      33.185  -7.169  15.161  0.00  0.00    +0.000 F 
ATOM      8  C   UNL     1      35.203  -6.214  15.943  0.00  0.00    +0.000 A 
ATOM      9  C   UNL     1      36.061  -5.141  16.123  0.00  0.00    +0.000 A 
ENDBRANCH   2   3
BRANCH   2  10
ATOM     10  C   UNL     1      37.892  -2.714  15.212  0.00  0.00    +0.000 A 
ATOM     11  C   UNL     1      37.968  -2.784  13.843  0.00  0.00    +0.000 A 
ATOM     12  C   UNL     1      39.180  -2.756  13.206  0.00  0.00    +0.000 A 
ATOM     13  C   UNL     1      40.360  -2.659  13.898  0.00  0.00    +0.000 A 
ATOM     14  C   UNL     1      40.275  -2.590  15.274  0.00  0.00    +0.000 A 
ATOM     15  C   UNL     1      39.064  -2.616  15.922  0.00  0.00    +0.000 A 
BRANCH  13  16
ATOM     16  O   UNL     1      41.606  -2.631  13.243  0.00  0.00    +0.000 OA
BRANCH  16  17
ATOM     17  C   UNL     1      42.689  -2.081  13.963  0.00  0.00    +0.000 C 
BRANCH  17  18
ATOM     18  C   UNL     1      42.857  -0.653  13.552  0.00  0.00    +0.000 C 
ATOM     19  C   UNL     1      42.829  -0.429  12.077  0.00  0.00    +0.000 C 
ATOM     20  C   UNL     1      43.939   0.077  14.272  0.00  0.00    +0.000 C 
ENDBRANCH  17  18
ENDBRANCH  16  17
ENDBRANCH  13  16
ENDBRANCH   2  10
BRANCH   1  21
ATOM     21  N   UNL     1      37.114  -0.631  16.673  0.00  0.00    +0.000 NA
BRANCH  21  22
ATOM     22  S   UNL     1      36.711   0.809  15.791  0.00  0.00    +0.000 S 
ATOM     23  O   UNL     1      35.236   0.905  15.580  0.00  0.00    +0.000 OA
ATOM     24  O   UNL     1      37.151   2.003  16.596  0.00  0.00    +0.000 OA
BRANCH  22  29
ATOM     25  C   UNL     1      39.442   0.601  10.377  0.00  0.00    +0.000 C 
ATOM     26  C   UNL     1      38.754   0.648  11.699  0.00  0.00    +0.000 A 
ATOM     27  C   UNL     1      39.470   0.879  12.856  0.00  0.00    +0.000 A 
ATOM     28  C   UNL     1      38.880   0.933  14.103  0.00  0.00    +0.000 A 
ATOM     29  C   UNL     1      37.526   0.753  14.235  0.00  0.00    +0.000 A 
ATOM     30  C   UNL     1      36.804   0.522  13.082  0.00  0.00    +0.000 A 
ATOM     31  C   UNL     1      37.393   0.467  11.827  0.00  0.00    +0.000 A 
ENDBRANCH  22  29
ENDBRANCH  21  22
ENDBRANCH   1  21
TORSDOF 8
ENDMDL
MODEL 2
REMARK VINA RESULT:      -6.9      3.218      6.469
REMARK  Name = 
REMARK  8 active torsions:
REMARK  status: ('A' for Active; 'I' for Inactive)
REMARK    1  A    between atoms: C_5  and  S_6
REMARK    2  A    between atoms: S_6  and  N_9
REMARK    3  A    between atoms: N_9  and  N_10
REMARK    4  A    between atoms: C_11  and  C_12
REMARK    5  A    between atoms: C_11  and  C_19
REMARK    6  A    between atoms: C_22  and  O_23
REMARK    7  A    between atoms: O_23  and  C_24
REMARK    8  A    between atoms: C_24  and  C_25
REMARK                            x       y       z     vdW  Elec       q    Type
REMARK                         _______ _______ _______ _____ _____    ______ ____
ROOT
ATOM      1  N   UNL     1      38.075  -1.181  17.381  0.00  0.00    +0.000 NA
ATOM      2  C   UNL     1      38.302  -1.927  16.352  0.00  0.00    +0.000 C 
ENDROOT
BRANCH   2   3
ATOM      3  C   UNL     1      39.378  -1.661  15.417  0.00  0.00    +0.000 A 
ATOM      4  C   UNL     1      40.318  -2.623  15.133  0.00  0.00    +0.000 A 
ATOM      5  C   UNL     1      41.359  -2.416  14.250  0.00  0.00    +0.000 A 
ATOM      6  C   UNL     1      41.475  -1.204  13.620  0.00  0.00    +0.000 A 
ATOM      7  F   UNL     1      42.482  -0.932  12.735  0.00  0.00    +0.000 F 
ATOM      8  C   UNL     1      40.543  -0.233  13.895  0.00  0.00    +0.000 A 
ATOM      9  C   UNL     1      39.501  -0.450  14.782  0.00  0.00    +0.000 A 
ENDBRANCH   2   3
BRANCH   2  10
ATOM     10  C   UNL     1      37.423  -3.066  16.163  0.00  0.00    +0.000 A 
ATOM     11  C   UNL     1      36.364  -2.941  15.298  0.00  0.00    +0.000 A 
ATOM     12  C   UNL     1      35.506  -3.986  15.085  0.00  0.00    +0.000 A 
ATOM     13  C   UNL     1      35.662  -5.192  15.720  0.00  0.00    +0.000 A 
ATOM     14  C   UNL     1      36.727  -5.309  16.589  0.00  0.00    +0.000 A 
ATOM     15  C   UNL     1      37.595  -4.267  16.809  0.00  0.00    +0.000 A 
BRANCH  13  16
ATOM     16  O   UNL     1      34.778  -6.266  15.501  0.00  0.00    +0.000 OA
BRANCH  16  17
ATOM     17  C   UNL     1      34.148  -6.322  14.238  0.00  0.00    +0.000 C 
BRANCH  17  18
ATOM     18  C   UNL     1      34.086  -7.751  13.801  0.00  0.00    +0.000 C 
ATOM     19  C   UNL     1      33.454  -7.961  12.466  0.00  0.00    +0.000 C 
ATOM     20  C   UNL     1      33.640  -8.703  14.858  0.00  0.00    +0.000 C 
ENDBRANCH  17  18
ENDBRANCH  16  17
ENDBRANCH  13  16
ENDBRANCH   2  10
BRANCH   1  21
ATOM     21  N   UNL     1      37.027  -1.473  18.258  0.00  0.00    +0.000 NA
BRANCH  21  22
ATOM     22  S   UNL     1      35.621  -0.458  18.161  0.00  0.00    +0.000 S 
ATOM     23  O   UNL     1      34.413  -1.260  17.806  0.00  0.00    +0.000 OA
ATOM     24  O   UNL     1      35.391   0.170  19.509  0.00  0.00    +0.000 OA
BRANCH  22  29
ATOM     25  C   UNL     1      36.559   3.692  13.836  0.00  0.00    +0.000 C 
ATOM     26  C   UNL     1      36.322   2.660  14.886  0.00  0.00    +0.000 A 
ATOM     27  C   UNL     1      36.586   2.933  16.213  0.00  0.00    +0.000 A 
ATOM     28  C   UNL     1      36.384   2.012  17.221  0.00  0.00    +0.000 A 
ATOM     29  C   UNL     1      35.902   0.762  16.928  0.00  0.00    +0.000 A 
ATOM     30  C   UNL     1      35.636   0.482  15.603  0.00  0.00    +0.000 A 
ATOM     31  C   UNL     1      35.837   1.404  14.586  0.00  0.00    +0.000 A 
ENDBRANCH  22  29
ENDBRANCH  21  22
ENDBRANCH   1  21
TORSDOF 8
ENDMDL
MODEL 3
REMARK VINA RESULT:      -6.8      3.373      5.844
REMARK  Name = 
REMARK  8 active torsions:
REMARK  status: ('A' for Active; 'I' for Inactive)
REMARK    1  A    between atoms: C_5  and  S_6
REMARK    2  A    between atoms: S_6  and  N_9
REMARK    3  A    between atoms: N_9  and  N_10
REMARK    4  A    between atoms: C_11  and  C_12
REMARK    5  A    between atoms: C_11  and  C_19
REMARK    6  A    between atoms: C_22  and  O_23
REMARK    7  A    between atoms: O_23  and  C_24
REMARK    8  A    between atoms: C_24  and  C_25
REMARK                            x       y       z     vdW  Elec       q    Type
REMARK                         _______ _______ _______ _____ _____    ______ ____
ROOT
ATOM      1  N   UNL     1      37.751  -0.512  17.035  0.00  0.00    +0.000 NA
ATOM      2  C   UNL     1      37.555  -0.065  15.840  0.00  0.00    +0.000 C 
ENDROOT
BRANCH   2   3
ATOM      3  C   UNL     1      36.669   1.049  15.559  0.00  0.00    +0.000 A 
ATOM      4  C   UNL     1      36.900   1.881  14.489  0.00  0.00    +0.000 A 
ATOM      5  C   UNL     1      36.085   2.952  14.183  0.00  0.00    +0.000 A 
ATOM      6  C   UNL     1      34.993   3.212  14.969  0.00  0.00    +0.000 A 
ATOM      7  F   UNL     1      34.146   4.258  14.722  0.00  0.00    +0.000 F 
ATOM      8  C   UNL     1      34.750   2.390  16.042  0.00  0.00    +0.000 A 
ATOM      9  C   UNL     1      35.573   1.316  16.342  0.00  0.00    +0.000 A 
ENDBRANCH   2   3
BRANCH   2  10
ATOM     10  C   UNL     1      38.268  -0.731  14.766  0.00  0.00    +0.000 A 
ATOM     11  C   UNL     1      39.591  -0.424  14.568  0.00  0.00    +0.000 A 
ATOM     12  C   UNL     1      40.308  -1.025  13.569  0.00  0.00    +0.000 A 
ATOM     13  C   UNL     1      39.744  -1.950  12.729  0.00  0.00    +0.000 A 
ATOM     14  C   UNL     1      38.413  -2.253  12.933  0.00  0.00    +0.000 A 
ATOM     15  C   UNL     1      37.685  -1.656  13.934  0.00  0.00    +0.000 A 
BRANCH  13  16
ATOM     16  O   UNL     1      40.482  -2.568  11.701  0.00  0.00    +0.000 OA
BRANCH  16  17
ATOM     17  C   UNL     1      40.284  -2.074  10.392  0.00  0.00    +0.000 C 
BRANCH  17  18
ATOM     18  C   UNL     1      40.667  -3.143   9.418  0.00  0.00    +0.000 C 
ATOM     19  C   UNL     1      41.726  -4.072   9.907  0.00  0.00    +0.000 C 
ATOM     20  C   UNL     1      40.853  -2.667   8.018  0.00  0.00    +0.000 C 
ENDBRANCH  17  18
ENDBRANCH  16  17
ENDBRANCH  13  16
ENDBRANCH   2  10
BRANCH   1  21
ATOM     21  N   UNL     1      38.614  -1.588  17.261  0.00  0.00    +0.000 NA
BRANCH  21  22
ATOM     22  S   UNL     1      37.899  -3.045  17.880  0.00  0.00    +0.000 S 
ATOM     23  O   UNL     1      38.919  -4.130  17.990  0.00  0.00    +0.000 OA
ATOM     24  O   UNL     1      37.360  -2.764  19.258  0.00  0.00    +0.000 OA
BRANCH  22  29
ATOM     25  C   UNL     1      33.543  -4.844  14.061  0.00  0.00    +0.000 C 
ATOM     26  C   UNL     1      34.625  -4.415  14.993  0.00  0.00    +0.000 A 
ATOM     27  C   UNL     1      34.435  -3.348  15.847  0.00  0.00    +0.000 A 
ATOM     28  C   UNL     1      35.405  -2.914  16.728  0.00  0.00    +0.000 A 
ATOM     29  C   UNL     1      36.621  -3.545  16.784  0.00  0.00    +0.000 A 
ATOM     30  C   UNL     1      36.817  -4.613  15.932  0.00  0.00    +0.000 A 
ATOM     31  C   UNL     1      35.846  -5.054  15.045  0.00  0.00    +0.000 A 
ENDBRANCH  22  29
ENDBRANCH  21  22
ENDBRANCH   1  21
TORSDOF 8
ENDMDL
MODEL 4
REMARK VINA RESULT:      -6.7      1.114      2.075
REMARK  Name = 
REMARK  8 active torsions:
REMARK  status: ('A' for Active; 'I' for Inactive)
REMARK    1  A    between atoms: C_5  and  S_6
REMARK    2  A    between atoms: S_6  and  N_9
REMARK    3  A    between atoms: N_9  and  N_10
REMARK    4  A    between atoms: C_11  and  C_12
REMARK    5  A    between atoms: C_11  and  C_19
REMARK    6  A    between atoms: C_22  and  O_23
REMARK    7  A    between atoms: O_23  and  C_24
REMARK    8  A    between atoms: C_24  and  C_25
REMARK                            x       y       z     vdW  Elec       q    Type
REMARK                         _______ _______ _______ _____ _____    ______ ____
ROOT
ATOM      1  N   UNL     1      36.352  -1.795  16.465  0.00  0.00    +0.000 NA
ATOM      2  C   UNL     1      36.603  -2.806  15.703  0.00  0.00    +0.000 C 
ENDROOT
BRANCH   2   3
ATOM      3  C   UNL     1      35.709  -3.944  15.597  0.00  0.00    +0.000 A 
ATOM      4  C   UNL     1      36.059  -5.165  16.123  0.00  0.00    +0.000 A 
ATOM      5  C   UNL     1      35.242  -6.276  16.046  0.00  0.00    +0.000 A 
ATOM      6  C   UNL     1      34.026  -6.173  15.422  0.00  0.00    +0.000 A 
ATOM      7  F   UNL     1      33.169  -7.234  15.311  0.00  0.00    +0.000 F 
ATOM      8  C   UNL     1      33.664  -4.959  14.892  0.00  0.00    +0.000 A 
ATOM      9  C   UNL     1      34.490  -3.850  14.974  0.00  0.00    +0.000 A 
ENDBRANCH   2   3
BRANCH   2  10
ATOM     10  C   UNL     1      37.837  -2.761  14.941  0.00  0.00    +0.000 A 
ATOM     11  C   UNL     1      39.027  -2.709  15.623  0.00  0.00    +0.000 A 
ATOM     12  C   UNL     1      40.219  -2.666  14.950  0.00  0.00    +0.000 A 
ATOM     13  C   UNL     1      40.277  -2.672  13.580  0.00  0.00    +0.000 A 
ATOM     14  C   UNL     1      39.076  -2.724  12.902  0.00  0.00    +0.000 A 
ATOM     15  C   UNL     1      37.876  -2.769  13.567  0.00  0.00    +0.000 A 
BRANCH  13  16
ATOM     16  O   UNL     1      41.503  -2.626  12.888  0.00  0.00    +0.000 OA
BRANCH  16  17
ATOM     17  C   UNL     1      41.574  -1.755  11.779  0.00  0.00    +0.000 C 
BRANCH  17  18
ATOM     18  C   UNL     1      41.785  -2.574  10.545  0.00  0.00    +0.000 C 
ATOM     19  C   UNL     1      40.612  -2.616   9.625  0.00  0.00    +0.000 C 
ATOM     20  C   UNL     1      42.441  -3.891  10.780  0.00  0.00    +0.000 C 
ENDBRANCH  17  18
ENDBRANCH  16  17
ENDBRANCH  13  16
ENDBRANCH   2  10
BRANCH   1  21
ATOM     21  N   UNL     1      37.241  -0.718  16.538  0.00  0.00    +0.000 NA
BRANCH  21  22
ATOM     22  S   UNL     1      36.756   0.749  15.746  0.00  0.00    +0.000 S 
ATOM     23  O   UNL     1      35.268   0.833  15.650  0.00  0.00    +0.000 OA
ATOM     24  O   UNL     1      37.242   1.917  16.563  0.00  0.00    +0.000 OA
BRANCH  22  29
ATOM     25  C   UNL     1      39.247   0.817  10.214  0.00  0.00    +0.000 C 
ATOM     26  C   UNL     1      38.652   0.804  11.582  0.00  0.00    +0.000 A 
ATOM     27  C   UNL     1      37.295   0.621  11.756  0.00  0.00    +0.000 A 
ATOM     28  C   UNL     1      36.697   0.600  13.000  0.00  0.00    +0.000 A 
ATOM     29  C   UNL     1      37.452   0.765  14.133  0.00  0.00    +0.000 A 
ATOM     30  C   UNL     1      38.809   0.948  13.965  0.00  0.00    +0.000 A 
ATOM     31  C   UNL     1      39.415   0.970  12.718  0.00  0.00    +0.000 A 
ENDBRANCH  22  29
ENDBRANCH  21  22
ENDBRANCH   1  21
TORSDOF 8
ENDMDL
MODEL 5
REMARK VINA RESULT:      -6.6      2.838      3.550
REMARK  Name = 
REMARK  8 active torsions:
REMARK  status: ('A' for Active; 'I' for Inactive)
REMARK    1  A    between atoms: C_5  and  S_6
REMARK    2  A    between atoms: S_6  and  N_9
REMARK    3  A    between atoms: N_9  and  N_10
REMARK    4  A    between atoms: C_11  and  C_12
REMARK    5  A    between atoms: C_11  and  C_19
REMARK    6  A    between atoms: C_22  and  O_23
REMARK    7  A    between atoms: O_23  and  C_24
REMARK    8  A    between atoms: C_24  and  C_25
REMARK                            x       y       z     vdW  Elec       q    Type
REMARK                         _______ _______ _______ _____ _____    ______ ____
ROOT
ATOM      1  N   UNL     1      36.060  -1.286  17.023  0.00  0.00    +0.000 NA
ATOM      2  C   UNL     1      37.174  -1.889  16.772  0.00  0.00    +0.000 C 
ENDROOT
BRANCH   2   3
ATOM      3  C   UNL     1      37.768  -2.844  17.687  0.00  0.00    +0.000 A 
ATOM      4  C   UNL     1      37.981  -4.147  17.304  0.00  0.00    +0.000 A 
ATOM      5  C   UNL     1      38.543  -5.091  18.140  0.00  0.00    +0.000 A 
ATOM      6  C   UNL     1      38.911  -4.730  19.410  0.00  0.00    +0.000 A 
ATOM      7  F   UNL     1      39.472  -5.616  20.289  0.00  0.00    +0.000 F 
ATOM      8  C   UNL     1      38.704  -3.432  19.806  0.00  0.00    +0.000 A 
ATOM      9  C   UNL     1      38.140  -2.490  18.960  0.00  0.00    +0.000 A 
ENDBRANCH   2   3
BRANCH   2  10
ATOM     10  C   UNL     1      37.822  -1.568  15.513  0.00  0.00    +0.000 A 
ATOM     11  C   UNL     1      39.024  -0.905  15.545  0.00  0.00    +0.000 A 
ATOM     12  C   UNL     1      39.675  -0.581  14.385  0.00  0.00    +0.000 A 
ATOM     13  C   UNL     1      39.163  -0.898  13.153  0.00  0.00    +0.000 A 
ATOM     14  C   UNL     1      37.955  -1.564  13.130  0.00  0.00    +0.000 A 
ATOM     15  C   UNL     1      37.293  -1.896  14.288  0.00  0.00    +0.000 A 
BRANCH  13  16
ATOM     16  O   UNL     1      39.833  -0.564  11.961  0.00  0.00    +0.000 OA
BRANCH  16  17
ATOM     17  C   UNL     1      41.147  -1.059  11.811  0.00  0.00    +0.000 C 
BRANCH  17  18
ATOM     18  C   UNL     1      41.070  -2.510  11.455  0.00  0.00    +0.000 C 
ATOM     19  C   UNL     1      42.352  -3.255  11.624  0.00  0.00    +0.000 C 
ATOM     20  C   UNL     1      40.345  -2.799  10.186  0.00  0.00    +0.000 C 
ENDBRANCH  17  18
ENDBRANCH  16  17
ENDBRANCH  13  16
ENDBRANCH   2  10
BRANCH   1  21
ATOM     21  N   UNL     1      35.522  -0.372  16.112  0.00  0.00    +0.000 NA
BRANCH  21  22
ATOM     22  S   UNL     1      35.820   1.310  16.426  0.00  0.00    +0.000 S 
ATOM     23  O   UNL     1      34.538   2.073  16.484  0.00  0.00    +0.000 OA
ATOM     24  O   UNL     1      36.503   1.433  17.763  0.00  0.00    +0.000 OA
BRANCH  22  29
ATOM     25  C   UNL     1      39.234   3.471  11.900  0.00  0.00    +0.000 C 
ATOM     26  C   UNL     1      38.382   2.933  13.000  0.00  0.00    +0.000 A 
ATOM     27  C   UNL     1      38.740   3.117  14.320  0.00  0.00    +0.000 A 
ATOM     28  C   UNL     1      37.986   2.638  15.373  0.00  0.00    +0.000 A 
ATOM     29  C   UNL     1      36.827   1.946  15.134  0.00  0.00    +0.000 A 
ATOM     30  C   UNL     1      36.463   1.759  13.817  0.00  0.00    +0.000 A 
ATOM     31  C   UNL     1      37.217   2.238  12.755  0.00  0.00    +0.000 A 
ENDBRANCH  22  29
ENDBRANCH  21  22
ENDBRANCH   1  21
TORSDOF 8
ENDMDL
MODEL 6
REMARK VINA RESULT:      -6.5      3.960      5.193
REMARK  Name = 
REMARK  8 active torsions:
REMARK  status: ('A' for Active; 'I' for Inactive)
REMARK    1  A    between atoms: C_5  and  S_6
REMARK    2  A    between atoms: S_6  and  N_9
REMARK    3  A    between atoms: N_9  and  N_10
REMARK    4  A    between atoms: C_11  and  C_12
REMARK    5  A    between atoms: C_11  and  C_19
REMARK    6  A    between atoms: C_22  and  O_23
REMARK    7  A    between atoms: O_23  and  C_24
REMARK    8  A    between atoms: C_24  and  C_25
REMARK                            x       y       z     vdW  Elec       q    Type
REMARK                         _______ _______ _______ _____ _____    ______ ____
ROOT
ATOM      1  N   UNL     1      37.823   1.757  15.588  0.00  0.00    +0.000 NA
ATOM      2  C   UNL     1      37.553   0.516  15.355  0.00  0.00    +0.000 C 
ENDROOT
BRANCH   2   3
ATOM      3  C   UNL     1      36.413  -0.158  15.946  0.00  0.00    +0.000 A 
ATOM      4  C   UNL     1      35.525   0.526  16.741  0.00  0.00    +0.000 A 
ATOM      5  C   UNL     1      34.426  -0.073  17.324  0.00  0.00    +0.000 A 
ATOM      6  C   UNL     1      34.196  -1.408  17.111  0.00  0.00    +0.000 A 
ATOM      7  F   UNL     1      33.128  -2.063  17.659  0.00  0.00    +0.000 F 
ATOM      8  C   UNL     1      35.076  -2.104  16.319  0.00  0.00    +0.000 A 
ATOM      9  C   UNL     1      36.176  -1.494  15.737  0.00  0.00    +0.000 A 
ENDBRANCH   2   3
BRANCH   2  10
ATOM     10  C   UNL     1      38.450  -0.192  14.461  0.00  0.00    +0.000 A 
ATOM     11  C   UNL     1      38.157  -0.217  13.121  0.00  0.00    +0.000 A 
ATOM     12  C   UNL     1      38.972  -0.871  12.237  0.00  0.00    +0.000 A 
ATOM     13  C   UNL     1      40.105  -1.526  12.645  0.00  0.00    +0.000 A 
ATOM     14  C   UNL     1      40.394  -1.497  13.994  0.00  0.00    +0.000 A 
ATOM     15  C   UNL     1      39.583  -0.842  14.889  0.00  0.00    +0.000 A 
BRANCH  13  16
ATOM     16  O   UNL     1      40.943  -2.200  11.735  0.00  0.00    +0.000 OA
BRANCH  16  17
ATOM     17  C   UNL     1      41.582  -1.408  10.755  0.00  0.00    +0.000 C 
BRANCH  17  18
ATOM     18  C   UNL     1      41.235  -1.952   9.406  0.00  0.00    +0.000 C 
ATOM     19  C   UNL     1      40.314  -1.088   8.611  0.00  0.00    +0.000 C 
ATOM     20  C   UNL     1      40.897  -3.403   9.391  0.00  0.00    +0.000 C 
ENDBRANCH  17  18
ENDBRANCH  16  17
ENDBRANCH  13  16
ENDBRANCH   2  10
BRANCH   1  21
ATOM     21  N   UNL     1      38.933   2.369  14.998  0.00  0.00    +0.000 NA
BRANCH  21  22
ATOM     22  S   UNL     1      38.858   4.092  14.794  0.00  0.00    +0.000 S 
ATOM     23  O   UNL     1      39.817   4.544  13.743  0.00  0.00    +0.000 OA
ATOM     24  O   UNL     1      37.466   4.461  14.353  0.00  0.00    +0.000 OA
BRANCH  22  29
ATOM     25  C   UNL     1      40.328   6.756  20.044  0.00  0.00    +0.000 C 
ATOM     26  C   UNL     1      39.981   6.110  18.745  0.00  0.00    +0.000 A 
ATOM     27  C   UNL     1      38.909   5.245  18.654  0.00  0.00    +0.000 A 
ATOM     28  C   UNL     1      38.548   4.623  17.476  0.00  0.00    +0.000 A 
ATOM     29  C   UNL     1      39.262   4.850  16.327  0.00  0.00    +0.000 A 
ATOM     30  C   UNL     1      40.335   5.714  16.411  0.00  0.00    +0.000 A 
ATOM     31  C   UNL     1      40.702   6.342  17.592  0.00  0.00    +0.000 A 
ENDBRANCH  22  29
ENDBRANCH  21  22
ENDBRANCH   1  21
TORSDOF 8
ENDMDL
MODEL 7
REMARK VINA RESULT:      -6.5      3.250      6.667
REMARK  Name = 
REMARK  8 active torsions:
REMARK  status: ('A' for Active; 'I' for Inactive)
REMARK    1  A    between atoms: C_5  and  S_6
REMARK    2  A    between atoms: S_6  and  N_9
REMARK    3  A    between atoms: N_9  and  N_10
REMARK    4  A    between atoms: C_11  and  C_12
REMARK    5  A    between atoms: C_11  and  C_19
REMARK    6  A    between atoms: C_22  and  O_23
REMARK    7  A    between atoms: O_23  and  C_24
REMARK    8  A    between atoms: C_24  and  C_25
REMARK                            x       y       z     vdW  Elec       q    Type
REMARK                         _______ _______ _______ _____ _____    ______ ____
ROOT
ATOM      1  N   UNL     1      38.963  -1.582  16.511  0.00  0.00    +0.000 NA
ATOM      2  C   UNL     1      38.986  -1.172  15.287  0.00  0.00    +0.000 C 
ENDROOT
BRANCH   2   3
ATOM      3  C   UNL     1      39.818  -1.789  14.272  0.00  0.00    +0.000 A 
ATOM      4  C   UNL     1      39.279  -2.207  13.078  0.00  0.00    +0.000 A 
ATOM      5  C   UNL     1      40.031  -2.799  12.083  0.00  0.00    +0.000 A 
ATOM      6  C   UNL     1      41.375  -2.986  12.278  0.00  0.00    +0.000 A 
ATOM      7  F   UNL     1      42.177  -3.566  11.334  0.00  0.00    +0.000 F 
ATOM      8  C   UNL     1      41.927  -2.574  13.466  0.00  0.00    +0.000 A 
ATOM      9  C   UNL     1      41.165  -1.980  14.459  0.00  0.00    +0.000 A 
ENDBRANCH   2   3
BRANCH   2  10
ATOM     10  C   UNL     1      38.130  -0.047  14.958  0.00  0.00    +0.000 A 
ATOM     11  C   UNL     1      38.704   1.191  14.805  0.00  0.00    +0.000 A 
ATOM     12  C   UNL     1      37.940   2.284  14.494  0.00  0.00    +0.000 A 
ATOM     13  C   UNL     1      36.582   2.193  14.325  0.00  0.00    +0.000 A 
ATOM     14  C   UNL     1      36.013   0.946  14.481  0.00  0.00    +0.000 A 
ATOM     15  C   UNL     1      36.771  -0.157  14.791  0.00  0.00    +0.000 A 
BRANCH  13  16
ATOM     16  O   UNL     1      35.796   3.318  14.005  0.00  0.00    +0.000 OA
BRANCH  16  17
ATOM     17  C   UNL     1      36.148   4.535  14.629  0.00  0.00    +0.000 C 
BRANCH  17  18
ATOM     18  C   UNL     1      35.843   5.656  13.687  0.00  0.00    +0.000 C 
ATOM     19  C   UNL     1      34.532   6.325  13.928  0.00  0.00    +0.000 C 
ATOM     20  C   UNL     1      36.139   5.361  12.256  0.00  0.00    +0.000 C 
ENDBRANCH  17  18
ENDBRANCH  16  17
ENDBRANCH  13  16
ENDBRANCH   2  10
BRANCH   1  21
ATOM     21  N   UNL     1      38.146  -0.959  17.458  0.00  0.00    +0.000 NA
BRANCH  21  22
ATOM     22  S   UNL     1      37.022  -1.973  18.309  0.00  0.00    +0.000 S 
ATOM     23  O   UNL     1      37.741  -2.901  19.232  0.00  0.00    +0.000 OA
ATOM     24  O   UNL     1      36.116  -1.098  19.132  0.00  0.00    +0.000 OA
BRANCH  22  29
ATOM     25  C   UNL     1      33.805  -5.124  14.242  0.00  0.00    +0.000 C 
ATOM     26  C   UNL     1      34.582  -4.337  15.244  0.00  0.00    +0.000 A 
ATOM     27  C   UNL     1      35.850  -4.732  15.617  0.00  0.00    +0.000 A 
ATOM     28  C   UNL     1      36.608  -4.038  16.539  0.00  0.00    +0.000 A 
ATOM     29  C   UNL     1      36.112  -2.904  17.129  0.00  0.00    +0.000 A 
ATOM     30  C   UNL     1      34.844  -2.504  16.760  0.00  0.00    +0.000 A 
ATOM     31  C   UNL     1      34.078  -3.197  15.834  0.00  0.00    +0.000 A 
ENDBRANCH  22  29
ENDBRANCH  21  22
ENDBRANCH   1  21
TORSDOF 8
ENDMDL
MODEL 8
REMARK VINA RESULT:      -6.5      3.891      7.027
REMARK  Name = 
REMARK  8 active torsions:
REMARK  status: ('A' for Active; 'I' for Inactive)
REMARK    1  A    between atoms: C_5  and  S_6
REMARK    2  A    between atoms: S_6  and  N_9
REMARK    3  A    between atoms: N_9  and  N_10
REMARK    4  A    between atoms: C_11  and  C_12
REMARK    5  A    between atoms: C_11  and  C_19
REMARK    6  A    between atoms: C_22  and  O_23
REMARK    7  A    between atoms: O_23  and  C_24
REMARK    8  A    between atoms: C_24  and  C_25
REMARK                            x       y       z     vdW  Elec       q    Type
REMARK                         _______ _______ _______ _____ _____    ______ ____
ROOT
ATOM      1  N   UNL     1      39.024   1.154  15.043  0.00  0.00    +0.000 NA
ATOM      2  C   UNL     1      39.378  -0.081  14.918  0.00  0.00    +0.000 C 
ENDROOT
BRANCH   2   3
ATOM      3  C   UNL     1      40.675  -0.472  14.400  0.00  0.00    +0.000 A 
ATOM      4  C   UNL     1      41.557   0.470  13.925  0.00  0.00    +0.000 A 
ATOM      5  C   UNL     1      42.801   0.146  13.423  0.00  0.00    +0.000 A 
ATOM      6  C   UNL     1      43.191  -1.168  13.389  0.00  0.00    +0.000 A 
ATOM      7  F   UNL     1      44.409  -1.558  12.904  0.00  0.00    +0.000 F 
ATOM      8  C   UNL     1      42.320  -2.120  13.860  0.00  0.00    +0.000 A 
ATOM      9  C   UNL     1      41.072  -1.785  14.362  0.00  0.00    +0.000 A 
ENDBRANCH   2   3
BRANCH   2  10
ATOM     10  C   UNL     1      38.411  -1.084  15.323  0.00  0.00    +0.000 A 
ATOM     11  C   UNL     1      37.497  -1.525  14.399  0.00  0.00    +0.000 A 
ATOM     12  C   UNL     1      36.564  -2.470  14.731  0.00  0.00    +0.000 A 
ATOM     13  C   UNL     1      36.499  -3.012  15.990  0.00  0.00    +0.000 A 
ATOM     14  C   UNL     1      37.420  -2.563  16.914  0.00  0.00    +0.000 A 
ATOM     15  C   UNL     1      38.361  -1.616  16.589  0.00  0.00    +0.000 A 
BRANCH  13  16
ATOM     16  O   UNL     1      35.539  -3.984  16.332  0.00  0.00    +0.000 OA
BRANCH  16  17
ATOM     17  C   UNL     1      35.578  -5.197  15.608  0.00  0.00    +0.000 C 
BRANCH  17  18
ATOM     18  C   UNL     1      34.184  -5.548  15.196  0.00  0.00    +0.000 C 
ATOM     19  C   UNL     1      34.087  -6.738  14.301  0.00  0.00    +0.000 C 
ATOM     20  C   UNL     1      33.349  -4.386  14.779  0.00  0.00    +0.000 C 
ENDBRANCH  17  18
ENDBRANCH  16  17
ENDBRANCH  13  16
ENDBRANCH   2  10
BRANCH   1  21
ATOM     21  N   UNL     1      37.763   1.488  15.547  0.00  0.00    +0.000 NA
BRANCH  21  22
ATOM     22  S   UNL     1      37.244   3.130  15.327  0.00  0.00    +0.000 S 
ATOM     23  O   UNL     1      37.306   3.517  13.886  0.00  0.00    +0.000 OA
ATOM     24  O   UNL     1      35.815   3.246  15.785  0.00  0.00    +0.000 OA
BRANCH  22  29
ATOM     25  C   UNL     1      40.846   6.715  18.642  0.00  0.00    +0.000 C 
ATOM     26  C   UNL     1      39.951   5.828  17.843  0.00  0.00    +0.000 A 
ATOM     27  C   UNL     1      40.088   5.744  16.472  0.00  0.00    +0.000 A 
ATOM     28  C   UNL     1      39.285   4.939  15.689  0.00  0.00    +0.000 A 
ATOM     29  C   UNL     1      38.300   4.177  16.264  0.00  0.00    +0.000 A 
ATOM     30  C   UNL     1      38.159   4.256  17.634  0.00  0.00    +0.000 A 
ATOM     31  C   UNL     1      38.963   5.064  18.425  0.00  0.00    +0.000 A 
ENDBRANCH  22  29
ENDBRANCH  21  22
ENDBRANCH   1  21
TORSDOF 8
ENDMDL
MODEL 9
REMARK VINA RESULT:      -6.4     30.741     32.640
REMARK  Name = 
REMARK  8 active torsions:
REMARK  status: ('A' for Active; 'I' for Inactive)
REMARK    1  A    between atoms: C_5  and  S_6
REMARK    2  A    between atoms: S_6  and  N_9
REMARK    3  A    between atoms: N_9  and  N_10
REMARK    4  A    between atoms: C_11  and  C_12
REMARK    5  A    between atoms: C_11  and  C_19
REMARK    6  A    between atoms: C_22  and  O_23
REMARK    7  A    between atoms: O_23  and  C_24
REMARK    8  A    between atoms: C_24  and  C_25
REMARK                            x       y       z     vdW  Elec       q    Type
REMARK                         _______ _______ _______ _____ _____    ______ ____
ROOT
ATOM      1  N   UNL     1      25.653  17.923  37.006  0.00  0.00    +0.000 NA
ATOM      2  C   UNL     1      25.802  16.682  36.683  0.00  0.00    +0.000 C 
ENDROOT
BRANCH   2   3
ATOM      3  C   UNL     1      25.643  16.207  35.322  0.00  0.00    +0.000 A 
ATOM      4  C   UNL     1      26.021  14.931  34.973  0.00  0.00    +0.000 A 
ATOM      5  C   UNL     1      25.889  14.434  33.692  0.00  0.00    +0.000 A 
ATOM      6  C   UNL     1      25.360  15.235  32.712  0.00  0.00    +0.000 A 
ATOM      7  F   UNL     1      25.203  14.805  31.423  0.00  0.00    +0.000 F 
ATOM      8  C   UNL     1      24.979  16.511  33.046  0.00  0.00    +0.000 A 
ATOM      9  C   UNL     1      25.115  17.001  34.335  0.00  0.00    +0.000 A 
ENDBRANCH   2   3
BRANCH   2  10
ATOM     10  C   UNL     1      26.142  15.763  37.753  0.00  0.00    +0.000 A 
ATOM     11  C   UNL     1      27.414  15.795  38.266  0.00  0.00    +0.000 A 
ATOM     12  C   UNL     1      27.784  14.949  39.276  0.00  0.00    +0.000 A 
ATOM     13  C   UNL     1      26.911  14.039  39.815  0.00  0.00    +0.000 A 
ATOM     14  C   UNL     1      25.633  14.013  39.294  0.00  0.00    +0.000 A 
ATOM     15  C   UNL     1      25.252  14.859  38.281  0.00  0.00    +0.000 A 
BRANCH  13  16
ATOM     16  O   UNL     1      27.292  13.168  40.854  0.00  0.00    +0.000 OA
BRANCH  16  17
ATOM     17  C   UNL     1      26.594  11.943  40.943  0.00  0.00    +0.000 C 
BRANCH  17  18
ATOM     18  C   UNL     1      27.579  10.856  41.234  0.00  0.00    +0.000 C 
ATOM     19  C   UNL     1      28.882  10.997  40.522  0.00  0.00    +0.000 C 
ATOM     20  C   UNL     1      27.006   9.481  41.219  0.00  0.00    +0.000 C 
ENDBRANCH  17  18
ENDBRANCH  16  17
ENDBRANCH  13  16
ENDBRANCH   2  10
BRANCH   1  21
ATOM     21  N   UNL     1      25.815  18.340  38.331  0.00  0.00    +0.000 NA
BRANCH  21  22
ATOM     22  S   UNL     1      24.366  18.664  39.230  0.00  0.00    +0.000 S 
ATOM     23  O   UNL     1      24.450  19.991  39.910  0.00  0.00    +0.000 OA
ATOM     24  O   UNL     1      23.206  18.699  38.271  0.00  0.00    +0.000 OA
BRANCH  22  29
ATOM     25  C   UNL     1      23.578  14.275  43.344  0.00  0.00    +0.000 C 
ATOM     26  C   UNL     1      23.754  15.350  42.326  0.00  0.00    +0.000 A 
ATOM     27  C   UNL     1      24.922  16.084  42.273  0.00  0.00    +0.000 A 
ATOM     28  C   UNL     1      25.133  17.089  41.351  0.00  0.00    +0.000 A 
ATOM     29  C   UNL     1      24.163  17.398  40.432  0.00  0.00    +0.000 A 
ATOM     30  C   UNL     1      22.993  16.668  40.479  0.00  0.00    +0.000 A 
ATOM     31  C   UNL     1      22.776  15.658  41.404  0.00  0.00    +0.000 A 
ENDBRANCH  22  29
ENDBRANCH  21  22
ENDBRANCH   1  21
TORSDOF 8
ENDMDL
MODEL 10
REMARK VINA RESULT:      -6.4      2.948      3.980
REMARK  Name = 
REMARK  8 active torsions:
REMARK  status: ('A' for Active; 'I' for Inactive)
REMARK    1  A    between atoms: C_5  and  S_6
REMARK    2  A    between atoms: S_6  and  N_9
REMARK    3  A    between atoms: N_9  and  N_10
REMARK    4  A    between atoms: C_11  and  C_12
REMARK    5  A    between atoms: C_11  and  C_19
REMARK    6  A    between atoms: C_22  and  O_23
REMARK    7  A    between atoms: O_23  and  C_24
REMARK    8  A    between atoms: C_24  and  C_25
REMARK                            x       y       z     vdW  Elec       q    Type
REMARK                         _______ _______ _______ _____ _____    ______ ____
ROOT
ATOM      1  N   UNL     1      36.233  -0.548  16.546  0.00  0.00    +0.000 NA
ATOM      2  C   UNL     1      37.295  -1.227  16.265  0.00  0.00    +0.000 C 
ENDROOT
BRANCH   2   3
ATOM      3  C   UNL     1      37.789  -2.290  17.119  0.00  0.00    +0.000 A 
ATOM      4  C   UNL     1      38.044  -2.063  18.451  0.00  0.00    +0.000 A 
ATOM      5  C   UNL     1      38.515  -3.043  19.302  0.00  0.00    +0.000 A 
ATOM      6  C   UNL     1      38.744  -4.303  18.814  0.00  0.00    +0.000 A 
ATOM      7  F   UNL     1      39.211  -5.319  19.602  0.00  0.00    +0.000 F 
ATOM      8  C   UNL     1      38.495  -4.544  17.485  0.00  0.00    +0.000 A 
ATOM      9  C   UNL     1      38.022  -3.555  16.638  0.00  0.00    +0.000 A 
ENDBRANCH   2   3
BRANCH   2  10
ATOM     10  C   UNL     1      37.988  -0.880  15.039  0.00  0.00    +0.000 A 
ATOM     11  C   UNL     1      39.249  -0.344  15.128  0.00  0.00    +0.000 A 
ATOM     12  C   UNL     1      39.945   0.000  14.000  0.00  0.00    +0.000 A 
ATOM     13  C   UNL     1      39.421  -0.173  12.745  0.00  0.00    +0.000 A 
ATOM     14  C   UNL     1      38.154  -0.712  12.664  0.00  0.00    +0.000 A 
ATOM     15  C   UNL     1      37.447  -1.061  13.789  0.00  0.00    +0.000 A 
BRANCH  13  16
ATOM     16  O   UNL     1      40.138   0.181  11.585  0.00  0.00    +0.000 OA
BRANCH  16  17
ATOM     17  C   UNL     1      39.641  -0.309  10.358  0.00  0.00    +0.000 C 
BRANCH  17  18
ATOM     18  C   UNL     1      39.441   0.846   9.430  0.00  0.00    +0.000 C 
ATOM     19  C   UNL     1      38.055   1.399   9.424  0.00  0.00    +0.000 C 
ATOM     20  C   UNL     1      40.047   0.670   8.080  0.00  0.00    +0.000 C 
ENDBRANCH  17  18
ENDBRANCH  16  17
ENDBRANCH  13  16
ENDBRANCH   2  10
BRANCH   1  21
ATOM     21  N   UNL     1      35.790   0.469  15.695  0.00  0.00    +0.000 NA
BRANCH  21  22
ATOM     22  S   UNL     1      36.212   2.094  16.136  0.00  0.00    +0.000 S 
ATOM     23  O   UNL     1      35.001   2.967  16.164  0.00  0.00    +0.000 OA
ATOM     24  O   UNL     1      36.811   2.075  17.517  0.00  0.00    +0.000 OA
BRANCH  22  29
ATOM     25  C   UNL     1      40.097   4.204  11.981  0.00  0.00    +0.000 C 
ATOM     26  C   UNL     1      39.130   3.681  12.988  0.00  0.00    +0.000 A 
ATOM     27  C   UNL     1      39.435   3.705  14.334  0.00  0.00    +0.000 A 
ATOM     28  C   UNL     1      38.574   3.234  15.304  0.00  0.00    +0.000 A 
ATOM     29  C   UNL     1      37.356   2.712  14.953  0.00  0.00    +0.000 A 
ATOM     30  C   UNL     1      37.044   2.685  13.609  0.00  0.00    +0.000 A 
ATOM     31  C   UNL     1      37.906   3.157  12.630  0.00  0.00    +0.000 A 
ENDBRANCH  22  29
ENDBRANCH  21  22
ENDBRANCH   1  21
TORSDOF 8
ENDMDL
