MODEL 1
REMARK VINA RESULT:      -7.9      0.000      0.000
REMARK  Name = 
REMARK  2 active torsions:
REMARK  status: ('A' for Active; 'I' for Inactive)
REMARK    1  A    between atoms: C_2  and  C_4
REMARK    2  A    between atoms: C_7  and  N_8
REMARK                            x       y       z     vdW  Elec       q    Type
REMARK                         _______ _______ _______ _____ _____    ______ ____
ROOT
ATOM      1  N   UNL     1      17.484   9.988  34.648  0.00  0.00    +0.000 NA
ATOM      2  C   UNL     1      16.604  10.880  33.924  0.00  0.00    +0.000 A 
ATOM      3  N   UNL     1      16.486  11.061  32.628  0.00  0.00    +0.000 NA
ATOM      4  C   UNL     1      15.628  11.918  32.166  0.00  0.00    +0.000 A 
ATOM      5  C   UNL     1      15.382  12.227  30.807  0.00  0.00    +0.000 A 
ATOM      6  C   UNL     1      14.445  13.152  30.510  0.00  0.00    +0.000 A 
ATOM      7  C   UNL     1      13.675  13.852  31.414  0.00  0.00    +0.000 A 
ATOM      8  N   UNL     1      13.927  13.541  32.715  0.00  0.00    +0.000 NA
ATOM      9  C   UNL     1      14.867  12.611  33.065  0.00  0.00    +0.000 A 
ATOM     10  S   UNL     1      15.440  11.976  34.549  0.00  0.00    +0.000 S 
ENDROOT
BRANCH   1  14
ATOM     11  C   UNL     1      17.448   9.825  38.838  0.00  0.00    +0.000 A 
ATOM     12  C   UNL     1      18.475   9.246  38.135  0.00  0.00    +0.000 A 
ATOM     13  C   UNL     1      18.458   9.318  36.745  0.00  0.00    +0.000 A 
ATOM     14  C   UNL     1      17.451   9.946  36.060  0.00  0.00    +0.000 A 
ATOM     15  C   UNL     1      16.432  10.518  36.769  0.00  0.00    +0.000 A 
ATOM     16  C   UNL     1      16.426  10.460  38.172  0.00  0.00    +0.000 A 
BRANCH  11  18
ATOM     17  C   UNL     1      16.159   9.465  40.900  0.00  0.00    +0.000 C 
ATOM     18  C   UNL     1      17.510   9.723  40.317  0.00  0.00    +0.000 C 
ATOM     19  C   UNL     1      18.557   8.728  40.767  0.00  0.00    +0.000 C 
ENDBRANCH  11  18
ENDBRANCH   1  14
TORSDOF 2
ENDMDL
MODEL 2
REMARK VINA RESULT:      -7.7      1.731      2.380
REMARK  Name = 
REMARK  2 active torsions:
REMARK  status: ('A' for Active; 'I' for Inactive)
REMARK    1  A    between atoms: C_2  and  C_4
REMARK    2  A    between atoms: C_7  and  N_8
REMARK                            x       y       z     vdW  Elec       q    Type
REMARK                         _______ _______ _______ _____ _____    ______ ____
ROOT
ATOM      1  N   UNL     1      15.379  12.745  36.622  0.00  0.00    +0.000 NA
ATOM      2  C   UNL     1      15.217  12.645  35.188  0.00  0.00    +0.000 A 
ATOM      3  N   UNL     1      14.419  13.323  34.393  0.00  0.00    +0.000 NA
ATOM      4  C   UNL     1      14.418  13.086  33.116  0.00  0.00    +0.000 A 
ATOM      5  C   UNL     1      13.625  13.724  32.134  0.00  0.00    +0.000 A 
ATOM      6  C   UNL     1      13.757  13.347  30.845  0.00  0.00    +0.000 A 
ATOM      7  C   UNL     1      14.609  12.375  30.364  0.00  0.00    +0.000 A 
ATOM      8  N   UNL     1      15.363  11.774  31.324  0.00  0.00    +0.000 NA
ATOM      9  C   UNL     1      15.263  12.122  32.642  0.00  0.00    +0.000 A 
ATOM     10  S   UNL     1      16.024  11.605  34.087  0.00  0.00    +0.000 S 
ENDROOT
BRANCH   1  14
ATOM     11  C   UNL     1      18.180  10.317  38.585  0.00  0.00    +0.000 A 
ATOM     12  C   UNL     1      18.602  11.380  37.826  0.00  0.00    +0.000 A 
ATOM     13  C   UNL     1      17.647  12.167  37.188  0.00  0.00    +0.000 A 
ATOM     14  C   UNL     1      16.305  11.913  37.293  0.00  0.00    +0.000 A 
ATOM     15  C   UNL     1      15.894  10.851  38.049  0.00  0.00    +0.000 A 
ATOM     16  C   UNL     1      16.838  10.043  38.704  0.00  0.00    +0.000 A 
BRANCH  11  18
ATOM     17  C   UNL     1      18.774   8.106  39.480  0.00  0.00    +0.000 C 
ATOM     18  C   UNL     1      19.234   9.508  39.246  0.00  0.00    +0.000 C 
ATOM     19  C   UNL     1      20.551   9.592  38.507  0.00  0.00    +0.000 C 
ENDBRANCH  11  18
ENDBRANCH   1  14
TORSDOF 2
ENDMDL
MODEL 3
REMARK VINA RESULT:      -7.3     21.653     23.836
REMARK  Name = 
REMARK  2 active torsions:
REMARK  status: ('A' for Active; 'I' for Inactive)
REMARK    1  A    between atoms: C_2  and  C_4
REMARK    2  A    between atoms: C_7  and  N_8
REMARK                            x       y       z     vdW  Elec       q    Type
REMARK                         _______ _______ _______ _____ _____    ______ ____
ROOT
ATOM      1  N   UNL     1      29.472  24.527  20.846  0.00  0.00    +0.000 NA
ATOM      2  C   UNL     1      29.549  25.932  20.506  0.00  0.00    +0.000 A 
ATOM      3  N   UNL     1      30.154  26.509  19.492  0.00  0.00    +0.000 NA
ATOM      4  C   UNL     1      30.109  27.799  19.357  0.00  0.00    +0.000 A 
ATOM      5  C   UNL     1      30.704  28.568  18.329  0.00  0.00    +0.000 A 
ATOM      6  C   UNL     1      30.552  29.909  18.349  0.00  0.00    +0.000 A 
ATOM      7  C   UNL     1      29.859  30.637  19.292  0.00  0.00    +0.000 A 
ATOM      8  N   UNL     1      29.294  29.880  20.272  0.00  0.00    +0.000 NA
ATOM      9  C   UNL     1      29.421  28.518  20.294  0.00  0.00    +0.000 A 
ATOM     10  S   UNL     1      28.868  27.273  21.332  0.00  0.00    +0.000 S 
ENDROOT
BRANCH   1  14
ATOM     11  C   UNL     1      27.426  23.285  24.290  0.00  0.00    +0.000 A 
ATOM     12  C   UNL     1      28.794  23.398  24.305  0.00  0.00    +0.000 A 
ATOM     13  C   UNL     1      29.443  23.813  23.145  0.00  0.00    +0.000 A 
ATOM     14  C   UNL     1      28.761  24.111  21.995  0.00  0.00    +0.000 A 
ATOM     15  C   UNL     1      27.399  23.994  21.990  0.00  0.00    +0.000 A 
ATOM     16  C   UNL     1      26.720  23.578  23.147  0.00  0.00    +0.000 A 
BRANCH  11  18
ATOM     17  C   UNL     1      27.796  22.463  26.577  0.00  0.00    +0.000 C 
ATOM     18  C   UNL     1      26.779  22.840  25.549  0.00  0.00    +0.000 C 
ATOM     19  C   UNL     1      25.768  23.850  26.047  0.00  0.00    +0.000 C 
ENDBRANCH  11  18
ENDBRANCH   1  14
TORSDOF 2
ENDMDL
MODEL 4
REMARK VINA RESULT:      -7.2     18.723     20.177
REMARK  Name = 
REMARK  2 active torsions:
REMARK  status: ('A' for Active; 'I' for Inactive)
REMARK    1  A    between atoms: C_2  and  C_4
REMARK    2  A    between atoms: C_7  and  N_8
REMARK                            x       y       z     vdW  Elec       q    Type
REMARK                         _______ _______ _______ _____ _____    ______ ____
ROOT
ATOM      1  N   UNL     1      33.341   2.878  33.290  0.00  0.00    +0.000 NA
ATOM      2  C   UNL     1      33.702   3.775  34.366  0.00  0.00    +0.000 A 
ATOM      3  N   UNL     1      33.731   5.089  34.378  0.00  0.00    +0.000 NA
ATOM      4  C   UNL     1      34.087   5.722  35.454  0.00  0.00    +0.000 A 
ATOM      5  C   UNL     1      34.170   7.123  35.628  0.00  0.00    +0.000 A 
ATOM      6  C   UNL     1      34.561   7.609  36.826  0.00  0.00    +0.000 A 
ATOM      7  C   UNL     1      34.898   6.864  37.935  0.00  0.00    +0.000 A 
ATOM      8  N   UNL     1      34.811   5.518  37.748  0.00  0.00    +0.000 NA
ATOM      9  C   UNL     1      34.421   4.981  36.553  0.00  0.00    +0.000 A 
ATOM     10  S   UNL     1      34.200   3.388  35.963  0.00  0.00    +0.000 S 
ENDROOT
BRANCH   1  14
ATOM     11  C   UNL     1      33.387  -1.267  33.926  0.00  0.00    +0.000 A 
ATOM     12  C   UNL     1      32.477  -0.479  34.586  0.00  0.00    +0.000 A 
ATOM     13  C   UNL     1      32.487   0.893  34.352  0.00  0.00    +0.000 A 
ATOM     14  C   UNL     1      33.375   1.479  33.488  0.00  0.00    +0.000 A 
ATOM     15  C   UNL     1      34.278   0.685  32.836  0.00  0.00    +0.000 A 
ATOM     16  C   UNL     1      34.287  -0.702  33.054  0.00  0.00    +0.000 A 
BRANCH  11  18
ATOM     17  C   UNL     1      32.086  -3.092  34.938  0.00  0.00    +0.000 C 
ATOM     18  C   UNL     1      33.337  -2.724  34.207  0.00  0.00    +0.000 C 
ATOM     19  C   UNL     1      33.564  -3.544  32.956  0.00  0.00    +0.000 C 
ENDBRANCH  11  18
ENDBRANCH   1  14
TORSDOF 2
ENDMDL
MODEL 5
REMARK VINA RESULT:      -7.0     21.713     23.212
REMARK  Name = 
REMARK  2 active torsions:
REMARK  status: ('A' for Active; 'I' for Inactive)
REMARK    1  A    between atoms: C_2  and  C_4
REMARK    2  A    between atoms: C_7  and  N_8
REMARK                            x       y       z     vdW  Elec       q    Type
REMARK                         _______ _______ _______ _____ _____    ______ ____
ROOT
ATOM      1  N   UNL     1      22.434  -6.002  23.861  0.00  0.00    +0.000 NA
ATOM      2  C   UNL     1      21.418  -6.525  24.749  0.00  0.00    +0.000 A 
ATOM      3  N   UNL     1      20.372  -5.919  25.263  0.00  0.00    +0.000 NA
ATOM      4  C   UNL     1      19.566  -6.566  26.049  0.00  0.00    +0.000 A 
ATOM      5  C   UNL     1      18.404  -6.061  26.678  0.00  0.00    +0.000 A 
ATOM      6  C   UNL     1      17.682  -6.884  27.468  0.00  0.00    +0.000 A 
ATOM      7  C   UNL     1      17.960  -8.207  27.736  0.00  0.00    +0.000 A 
ATOM      8  N   UNL     1      19.081  -8.674  27.121  0.00  0.00    +0.000 NA
ATOM      9  C   UNL     1      19.845  -7.878  26.313  0.00  0.00    +0.000 A 
ATOM     10  S   UNL     1      21.275  -8.108  25.399  0.00  0.00    +0.000 S 
ENDROOT
BRANCH   1  14
ATOM     11  C   UNL     1      25.609  -8.429  22.587  0.00  0.00    +0.000 A 
ATOM     12  C   UNL     1      25.832  -7.423  23.495  0.00  0.00    +0.000 A 
ATOM     13  C   UNL     1      24.756  -6.636  23.898  0.00  0.00    +0.000 A 
ATOM     14  C   UNL     1      23.488  -6.833  23.418  0.00  0.00    +0.000 A 
ATOM     15  C   UNL     1      23.277  -7.836  22.513  0.00  0.00    +0.000 A 
ATOM     16  C   UNL     1      24.345  -8.645  22.091  0.00  0.00    +0.000 A 
BRANCH  11  18
ATOM     17  C   UNL     1      26.471 -10.110  21.014  0.00  0.00    +0.000 C 
ATOM     18  C   UNL     1      26.785  -9.241  22.189  0.00  0.00    +0.000 C 
ATOM     19  C   UNL     1      28.016  -8.385  21.989  0.00  0.00    +0.000 C 
ENDBRANCH  11  18
ENDBRANCH   1  14
TORSDOF 2
ENDMDL
MODEL 6
REMARK VINA RESULT:      -6.7      5.517      8.280
REMARK  Name = 
REMARK  2 active torsions:
REMARK  status: ('A' for Active; 'I' for Inactive)
REMARK    1  A    between atoms: C_2  and  C_4
REMARK    2  A    between atoms: C_7  and  N_8
REMARK                            x       y       z     vdW  Elec       q    Type
REMARK                         _______ _______ _______ _____ _____    ______ ____
ROOT
ATOM      1  N   UNL     1      18.731  10.632  38.070  0.00  0.00    +0.000 NA
ATOM      2  C   UNL     1      18.302   9.804  39.177  0.00  0.00    +0.000 A 
ATOM      3  N   UNL     1      17.096   9.636  39.670  0.00  0.00    +0.000 NA
ATOM      4  C   UNL     1      16.910   8.841  40.679  0.00  0.00    +0.000 A 
ATOM      5  C   UNL     1      15.683   8.554  41.321  0.00  0.00    +0.000 A 
ATOM      6  C   UNL     1      15.679   7.695  42.363  0.00  0.00    +0.000 A 
ATOM      7  C   UNL     1      16.775   7.045  42.887  0.00  0.00    +0.000 A 
ATOM      8  N   UNL     1      17.946   7.333  42.255  0.00  0.00    +0.000 NA
ATOM      9  C   UNL     1      17.999   8.197  41.196  0.00  0.00    +0.000 A 
ATOM     10  S   UNL     1      19.249   8.784  40.182  0.00  0.00    +0.000 S 
ENDROOT
BRANCH   1  14
ATOM     11  C   UNL     1      22.784  10.801  37.002  0.00  0.00    +0.000 A 
ATOM     12  C   UNL     1      22.271  11.700  37.903  0.00  0.00    +0.000 A 
ATOM     13  C   UNL     1      20.922  11.617  38.237  0.00  0.00    +0.000 A 
ATOM     14  C   UNL     1      20.094  10.669  37.695  0.00  0.00    +0.000 A 
ATOM     15  C   UNL     1      20.614   9.779  36.797  0.00  0.00    +0.000 A 
ATOM     16  C   UNL     1      21.971   9.841  36.445  0.00  0.00    +0.000 A 
BRANCH  11  18
ATOM     17  C   UNL     1      24.779  12.227  37.168  0.00  0.00    +0.000 C 
ATOM     18  C   UNL     1      24.226  10.928  36.678  0.00  0.00    +0.000 C 
ATOM     19  C   UNL     1      25.014   9.725  37.148  0.00  0.00    +0.000 C 
ENDBRANCH  11  18
ENDBRANCH   1  14
TORSDOF 2
ENDMDL
MODEL 7
REMARK VINA RESULT:      -6.7      2.390      4.346
REMARK  Name = 
REMARK  2 active torsions:
REMARK  status: ('A' for Active; 'I' for Inactive)
REMARK    1  A    between atoms: C_2  and  C_4
REMARK    2  A    between atoms: C_7  and  N_8
REMARK                            x       y       z     vdW  Elec       q    Type
REMARK                         _______ _______ _______ _____ _____    ______ ____
ROOT
ATOM      1  N   UNL     1      18.365   8.880  38.998  0.00  0.00    +0.000 NA
ATOM      2  C   UNL     1      17.793   9.521  37.834  0.00  0.00    +0.000 A 
ATOM      3  N   UNL     1      18.098   9.365  36.565  0.00  0.00    +0.000 NA
ATOM      4  C   UNL     1      17.463  10.039  35.656  0.00  0.00    +0.000 A 
ATOM      5  C   UNL     1      17.671   9.986  34.258  0.00  0.00    +0.000 A 
ATOM      6  C   UNL     1      16.911  10.763  33.457  0.00  0.00    +0.000 A 
ATOM      7  C   UNL     1      15.921  11.630  33.865  0.00  0.00    +0.000 A 
ATOM      8  N   UNL     1      15.736  11.666  35.213  0.00  0.00    +0.000 NA
ATOM      9  C   UNL     1      16.481  10.899  36.063  0.00  0.00    +0.000 A 
ATOM     10  S   UNL     1      16.531  10.683  37.762  0.00  0.00    +0.000 S 
ENDROOT
BRANCH   1  14
ATOM     11  C   UNL     1      16.872   9.787  42.811  0.00  0.00    +0.000 A 
ATOM     12  C   UNL     1      16.025   9.334  41.830  0.00  0.00    +0.000 A 
ATOM     13  C   UNL     1      16.553   9.041  40.575  0.00  0.00    +0.000 A 
ATOM     14  C   UNL     1      17.885   9.191  40.291  0.00  0.00    +0.000 A 
ATOM     15  C   UNL     1      18.719   9.644  41.275  0.00  0.00    +0.000 A 
ATOM     16  C   UNL     1      18.212   9.946  42.549  0.00  0.00    +0.000 A 
BRANCH  11  18
ATOM     17  C   UNL     1      16.117   8.845  44.953  0.00  0.00    +0.000 C 
ATOM     18  C   UNL     1      16.264  10.085  44.132  0.00  0.00    +0.000 C 
ATOM     19  C   UNL     1      17.000  11.196  44.850  0.00  0.00    +0.000 C 
ENDBRANCH  11  18
ENDBRANCH   1  14
TORSDOF 2
ENDMDL
MODEL 8
REMARK VINA RESULT:      -6.7     21.227     23.251
REMARK  Name = 
REMARK  2 active torsions:
REMARK  status: ('A' for Active; 'I' for Inactive)
REMARK    1  A    between atoms: C_2  and  C_4
REMARK    2  A    between atoms: C_7  and  N_8
REMARK                            x       y       z     vdW  Elec       q    Type
REMARK                         _______ _______ _______ _____ _____    ______ ____
ROOT
ATOM      1  N   UNL     1      31.758  22.866  24.406  0.00  0.00    +0.000 NA
ATOM      2  C   UNL     1      32.548  24.054  24.650  0.00  0.00    +0.000 A 
ATOM      3  N   UNL     1      33.839  24.242  24.489  0.00  0.00    +0.000 NA
ATOM      4  C   UNL     1      34.368  25.394  24.766  0.00  0.00    +0.000 A 
ATOM      5  C   UNL     1      35.731  25.754  24.647  0.00  0.00    +0.000 A 
ATOM      6  C   UNL     1      36.105  27.007  24.982  0.00  0.00    +0.000 A 
ATOM      7  C   UNL     1      35.277  28.008  25.443  0.00  0.00    +0.000 A 
ATOM      8  N   UNL     1      33.970  27.642  25.549  0.00  0.00    +0.000 NA
ATOM      9  C   UNL     1      33.545  26.385  25.222  0.00  0.00    +0.000 A 
ATOM     10  S   UNL     1      32.030  25.586  25.225  0.00  0.00    +0.000 S 
ENDROOT
BRANCH   1  14
ATOM     11  C   UNL     1      27.614  22.920  25.051  0.00  0.00    +0.000 A 
ATOM     12  C   UNL     1      28.127  23.303  23.837  0.00  0.00    +0.000 A 
ATOM     13  C   UNL     1      29.507  23.273  23.655  0.00  0.00    +0.000 A 
ATOM     14  C   UNL     1      30.365  22.876  24.646  0.00  0.00    +0.000 A 
ATOM     15  C   UNL     1      29.845  22.497  25.853  0.00  0.00    +0.000 A 
ATOM     16  C   UNL     1      28.456  22.518  26.062  0.00  0.00    +0.000 A 
BRANCH  11  18
ATOM     17  C   UNL     1      25.736  23.827  26.352  0.00  0.00    +0.000 C 
ATOM     18  C   UNL     1      26.138  22.968  25.198  0.00  0.00    +0.000 C 
ATOM     19  C   UNL     1      25.458  23.348  23.901  0.00  0.00    +0.000 C 
ENDBRANCH  11  18
ENDBRANCH   1  14
TORSDOF 2
ENDMDL
MODEL 9
REMARK VINA RESULT:      -6.5     20.377     21.878
REMARK  Name = 
REMARK  2 active torsions:
REMARK  status: ('A' for Active; 'I' for Inactive)
REMARK    1  A    between atoms: C_2  and  C_4
REMARK    2  A    between atoms: C_7  and  N_8
REMARK                            x       y       z     vdW  Elec       q    Type
REMARK                         _______ _______ _______ _____ _____    ______ ____
ROOT
ATOM      1  N   UNL     1      19.579   1.385  17.357  0.00  0.00    +0.000 NA
ATOM      2  C   UNL     1      18.947   1.755  16.110  0.00  0.00    +0.000 A 
ATOM      3  N   UNL     1      17.727   1.506  15.690  0.00  0.00    +0.000 NA
ATOM      4  C   UNL     1      17.340   1.928  14.525  0.00  0.00    +0.000 A 
ATOM      5  C   UNL     1      16.069   1.743  13.932  0.00  0.00    +0.000 A 
ATOM      6  C   UNL     1      15.843   2.256  12.704  0.00  0.00    +0.000 A 
ATOM      7  C   UNL     1      16.745   2.964  11.938  0.00  0.00    +0.000 A 
ATOM      8  N   UNL     1      17.961   3.132  12.526  0.00  0.00    +0.000 NA
ATOM      9  C   UNL     1      18.236   2.630  13.768  0.00  0.00    +0.000 A 
ATOM     10  S   UNL     1      19.606   2.642  14.796  0.00  0.00    +0.000 S 
ENDROOT
BRANCH   1  14
ATOM     11  C   UNL     1      23.572   2.426  18.107  0.00  0.00    +0.000 A 
ATOM     12  C   UNL     1      23.259   1.158  17.685  0.00  0.00    +0.000 A 
ATOM     13  C   UNL     1      21.924   0.845  17.444  0.00  0.00    +0.000 A 
ATOM     14  C   UNL     1      20.918   1.759  17.616  0.00  0.00    +0.000 A 
ATOM     15  C   UNL     1      21.240   3.018  18.038  0.00  0.00    +0.000 A 
ATOM     16  C   UNL     1      22.579   3.360  18.287  0.00  0.00    +0.000 A 
BRANCH  11  18
ATOM     17  C   UNL     1      25.859   2.199  17.235  0.00  0.00    +0.000 C 
ATOM     18  C   UNL     1      25.008   2.714  18.350  0.00  0.00    +0.000 C 
ATOM     19  C   UNL     1      25.242   4.177  18.657  0.00  0.00    +0.000 C 
ENDBRANCH  11  18
ENDBRANCH   1  14
TORSDOF 2
ENDMDL
MODEL 10
REMARK VINA RESULT:      -6.5     20.716     22.273
REMARK  Name = 
REMARK  2 active torsions:
REMARK  status: ('A' for Active; 'I' for Inactive)
REMARK    1  A    between atoms: C_2  and  C_4
REMARK    2  A    between atoms: C_7  and  N_8
REMARK                            x       y       z     vdW  Elec       q    Type
REMARK                         _______ _______ _______ _____ _____    ______ ____
ROOT
ATOM      1  N   UNL     1      24.565   4.541  18.372  0.00  0.00    +0.000 NA
ATOM      2  C   UNL     1      23.565   3.744  17.695  0.00  0.00    +0.000 A 
ATOM      3  N   UNL     1      22.475   3.192  18.178  0.00  0.00    +0.000 NA
ATOM      4  C   UNL     1      21.694   2.505  17.401  0.00  0.00    +0.000 A 
ATOM      5  C   UNL     1      20.493   1.853  17.764  0.00  0.00    +0.000 A 
ATOM      6  C   UNL     1      19.805   1.180  16.817  0.00  0.00    +0.000 A 
ATOM      7  C   UNL     1      20.157   1.054  15.490  0.00  0.00    +0.000 A 
ATOM      8  N   UNL     1      21.315   1.689  15.161  0.00  0.00    +0.000 NA
ATOM      9  C   UNL     1      22.045   2.382  16.086  0.00  0.00    +0.000 A 
ATOM     10  S   UNL     1      23.504   3.279  16.044  0.00  0.00    +0.000 S 
ENDROOT
BRANCH   1  14
ATOM     11  C   UNL     1      27.826   6.107  16.249  0.00  0.00    +0.000 A 
ATOM     12  C   UNL     1      26.739   6.898  16.524  0.00  0.00    +0.000 A 
ATOM     13  C   UNL     1      25.673   6.349  17.231  0.00  0.00    +0.000 A 
ATOM     14  C   UNL     1      25.675   5.047  17.659  0.00  0.00    +0.000 A 
ATOM     15  C   UNL     1      26.763   4.266  17.380  0.00  0.00    +0.000 A 
ATOM     16  C   UNL     1      27.851   4.797  16.669  0.00  0.00    +0.000 A 
BRANCH  11  18
ATOM     17  C   UNL     1      28.500   8.011  14.848  0.00  0.00    +0.000 C 
ATOM     18  C   UNL     1      28.937   6.736  15.495  0.00  0.00    +0.000 C 
ATOM     19  C   UNL     1      30.177   6.891  16.348  0.00  0.00    +0.000 C 
ENDBRANCH  11  18
ENDBRANCH   1  14
TORSDOF 2
ENDMDL
