MODEL 1
REMARK VINA RESULT:      -5.5      0.000      0.000
REMARK  Name = 
REMARK  4 active torsions:
REMARK  status: ('A' for Active; 'I' for Inactive)
REMARK    1  A    between atoms: C_2  and  O_3
REMARK    2  A    between atoms: O_3  and  C_4
REMARK    3  A    between atoms: C_4  and  C_6
REMARK    4  A    between atoms: C_13  and  C_14
REMARK                            x       y       z     vdW  Elec       q    Type
REMARK                         _______ _______ _______ _____ _____    ______ ____
ROOT
ATOM      1  C   UNL     1      27.765  25.470  23.737  0.00  0.00    +0.000 C 
ATOM      2  C   UNL     1      28.346  26.412  23.124  0.00  0.00    +0.000 C 
ATOM      3  C   UNL     1      28.237  27.846  23.711  0.00  0.00    +0.000 C 
ATOM      4  N   UNL     1      29.070  26.279  21.924  0.00  0.00    +0.000 NA
ATOM      5  C   UNL     1      29.143  24.973  21.365  0.00  0.00    +0.000 C 
ATOM      6  O   UNL     1      29.787  24.813  20.283  0.00  0.00    +0.000 OA
ATOM      7  N   UNL     1      28.512  23.929  22.016  0.00  0.00    +0.000 NA
ATOM      8  C   UNL     1      27.793  23.994  23.314  0.00  0.00    +0.000 C 
ENDROOT
BRANCH   8   9
ATOM      9  C   UNL     1      28.958  23.485  24.303  0.00  0.00    +0.000 A 
ATOM     10  C   UNL     1      30.236  23.759  23.967  0.00  0.00    +0.000 A 
ATOM     11  C   UNL     1      31.239  23.319  24.803  0.00  0.00    +0.000 A 
ATOM     12  C   UNL     1      30.911  22.611  25.956  0.00  0.00    +0.000 A 
ATOM     13  C   UNL     1      29.592  22.349  26.270  0.00  0.00    +0.000 A 
ATOM     14  C   UNL     1      28.585  22.803  25.412  0.00  0.00    +0.000 A 
ATOM     15 CL   UNL     1      26.927  22.465  25.840  0.00  0.00    +0.000 Cl
ENDBRANCH   8   9
BRANCH   1  16
ATOM     16  C   UNL     1      27.010  25.761  24.971  0.00  0.00    +0.000 C 
ATOM     17  O   UNL     1      25.778  25.702  24.906  0.00  0.00    +0.000 OA
BRANCH  16  18
ATOM     18  O   UNL     1      27.601  26.089  26.164  0.00  0.00    +0.000 OA
BRANCH  18  20
ATOM     19  C   UNL     1      27.932  25.054  28.336  0.00  0.00    +0.000 C 
ATOM     20  C   UNL     1      26.993  25.772  27.426  0.00  0.00    +0.000 C 
ENDBRANCH  18  20
ENDBRANCH  16  18
ENDBRANCH   1  16
TORSDOF 4
ENDMDL
MODEL 2
REMARK VINA RESULT:      -5.5      2.321      2.761
REMARK  Name = 
REMARK  4 active torsions:
REMARK  status: ('A' for Active; 'I' for Inactive)
REMARK    1  A    between atoms: C_2  and  O_3
REMARK    2  A    between atoms: O_3  and  C_4
REMARK    3  A    between atoms: C_4  and  C_6
REMARK    4  A    between atoms: C_13  and  C_14
REMARK                            x       y       z     vdW  Elec       q    Type
REMARK                         _______ _______ _______ _____ _____    ______ ____
ROOT
ATOM      1  C   UNL     1      26.600  24.827  25.696  0.00  0.00    +0.000 C 
ATOM      2  C   UNL     1      26.427  25.401  24.581  0.00  0.00    +0.000 C 
ATOM      3  C   UNL     1      26.650  26.935  24.505  0.00  0.00    +0.000 C 
ATOM      4  N   UNL     1      26.018  24.766  23.393  0.00  0.00    +0.000 NA
ATOM      5  C   UNL     1      25.780  23.366  23.467  0.00  0.00    +0.000 C 
ATOM      6  O   UNL     1      25.409  22.758  22.416  0.00  0.00    +0.000 OA
ATOM      7  N   UNL     1      25.958  22.718  24.676  0.00  0.00    +0.000 NA
ATOM      8  C   UNL     1      26.451  23.319  25.943  0.00  0.00    +0.000 C 
ENDROOT
BRANCH   8   9
ATOM      9  C   UNL     1      28.007  22.908  25.857  0.00  0.00    +0.000 A 
ATOM     10  C   UNL     1      28.635  23.060  24.673  0.00  0.00    +0.000 A 
ATOM     11  C   UNL     1      29.964  22.702  24.589  0.00  0.00    +0.000 A 
ATOM     12  C   UNL     1      30.612  22.200  25.715  0.00  0.00    +0.000 A 
ATOM     13  C   UNL     1      29.938  22.059  26.911  0.00  0.00    +0.000 A 
ATOM     14  C   UNL     1      28.590  22.427  26.981  0.00  0.00    +0.000 A 
ATOM     15 CL   UNL     1      27.767  22.248  28.510  0.00  0.00    +0.000 Cl
ENDBRANCH   8   9
BRANCH   1  16
ATOM     16  C   UNL     1      26.998  25.625  26.871  0.00  0.00    +0.000 C 
ATOM     17  O   UNL     1      28.207  25.819  27.037  0.00  0.00    +0.000 OA
BRANCH  16  18
ATOM     18  O   UNL     1      26.107  26.150  27.770  0.00  0.00    +0.000 OA
BRANCH  18  20
ATOM     19  C   UNL     1      25.604  24.883  29.781  0.00  0.00    +0.000 C 
ATOM     20  C   UNL     1      25.133  25.335  28.439  0.00  0.00    +0.000 C 
ENDBRANCH  18  20
ENDBRANCH  16  18
ENDBRANCH   1  16
TORSDOF 4
ENDMDL
MODEL 3
REMARK VINA RESULT:      -5.5     33.018     34.539
REMARK  Name = 
REMARK  4 active torsions:
REMARK  status: ('A' for Active; 'I' for Inactive)
REMARK    1  A    between atoms: C_2  and  O_3
REMARK    2  A    between atoms: O_3  and  C_4
REMARK    3  A    between atoms: C_4  and  C_6
REMARK    4  A    between atoms: C_13  and  C_14
REMARK                            x       y       z     vdW  Elec       q    Type
REMARK                         _______ _______ _______ _____ _____    ______ ____
ROOT
ATOM      1  C   UNL     1      20.042  -9.534  24.712  0.00  0.00    +0.000 C 
ATOM      2  C   UNL     1      20.713  -9.353  23.655  0.00  0.00    +0.000 C 
ATOM      3  C   UNL     1      20.051  -9.709  22.296  0.00  0.00    +0.000 C 
ATOM      4  N   UNL     1      22.037  -8.875  23.602  0.00  0.00    +0.000 NA
ATOM      5  C   UNL     1      22.658  -8.581  24.847  0.00  0.00    +0.000 C 
ATOM      6  O   UNL     1      23.852  -8.148  24.841  0.00  0.00    +0.000 OA
ATOM      7  N   UNL     1      21.945  -8.775  26.016  0.00  0.00    +0.000 NA
ATOM      8  C   UNL     1      20.529  -9.211  26.132  0.00  0.00    +0.000 C 
ENDROOT
BRANCH   8   9
ATOM      9  C   UNL     1      19.812  -7.779  26.310  0.00  0.00    +0.000 A 
ATOM     10  C   UNL     1      20.341  -6.723  25.657  0.00  0.00    +0.000 A 
ATOM     11  C   UNL     1      19.739  -5.493  25.812  0.00  0.00    +0.000 A 
ATOM     12  C   UNL     1      18.616  -5.375  26.627  0.00  0.00    +0.000 A 
ATOM     13  C   UNL     1      18.101  -6.477  27.279  0.00  0.00    +0.000 A 
ATOM     14  C   UNL     1      18.723  -7.719  27.112  0.00  0.00    +0.000 A 
ATOM     15 CL   UNL     1      18.042  -9.097  27.941  0.00  0.00    +0.000 Cl
ENDBRANCH   8   9
BRANCH   1  16
ATOM     16  C   UNL     1      18.672 -10.075  24.621  0.00  0.00    +0.000 C 
ATOM     17  O   UNL     1      18.516 -11.268  24.902  0.00  0.00    +0.000 OA
BRANCH  16  18
ATOM     18  O   UNL     1      17.585  -9.329  24.245  0.00  0.00    +0.000 OA
BRANCH  18  20
ATOM     19  C   UNL     1      15.592  -8.368  25.247  0.00  0.00    +0.000 C 
ATOM     20  C   UNL     1      16.267  -9.601  24.746  0.00  0.00    +0.000 C 
ENDBRANCH  18  20
ENDBRANCH  16  18
ENDBRANCH   1  16
TORSDOF 4
ENDMDL
MODEL 4
REMARK VINA RESULT:      -5.3      1.777      2.185
REMARK  Name = 
REMARK  4 active torsions:
REMARK  status: ('A' for Active; 'I' for Inactive)
REMARK    1  A    between atoms: C_2  and  O_3
REMARK    2  A    between atoms: O_3  and  C_4
REMARK    3  A    between atoms: C_4  and  C_6
REMARK    4  A    between atoms: C_13  and  C_14
REMARK                            x       y       z     vdW  Elec       q    Type
REMARK                         _______ _______ _______ _____ _____    ______ ____
ROOT
ATOM      1  C   UNL     1      28.022  23.977  24.323  0.00  0.00    +0.000 C 
ATOM      2  C   UNL     1      27.547  24.889  23.585  0.00  0.00    +0.000 C 
ATOM      3  C   UNL     1      26.291  25.655  24.082  0.00  0.00    +0.000 C 
ATOM      4  N   UNL     1      28.048  25.259  22.322  0.00  0.00    +0.000 NA
ATOM      5  C   UNL     1      29.179  24.537  21.849  0.00  0.00    +0.000 C 
ATOM      6  O   UNL     1      29.659  24.841  20.714  0.00  0.00    +0.000 OA
ATOM      7  N   UNL     1      29.712  23.533  22.637  0.00  0.00    +0.000 NA
ATOM      8  C   UNL     1      29.270  23.144  24.001  0.00  0.00    +0.000 C 
ENDROOT
BRANCH   8   9
ATOM      9  C   UNL     1      30.339  23.965  24.883  0.00  0.00    +0.000 A 
ATOM     10  C   UNL     1      30.765  25.155  24.412  0.00  0.00    +0.000 A 
ATOM     11  C   UNL     1      31.686  25.860  25.156  0.00  0.00    +0.000 A 
ATOM     12  C   UNL     1      32.148  25.330  26.359  0.00  0.00    +0.000 A 
ATOM     13  C   UNL     1      31.690  24.109  26.811  0.00  0.00    +0.000 A 
ATOM     14  C   UNL     1      30.754  23.406  26.045  0.00  0.00    +0.000 A 
ATOM     15 CL   UNL     1      30.186  21.870  26.648  0.00  0.00    +0.000 Cl
ENDBRANCH   8   9
BRANCH   1  16
ATOM     16  C   UNL     1      27.372  23.672  25.612  0.00  0.00    +0.000 C 
ATOM     17  O   UNL     1      26.705  22.635  25.676  0.00  0.00    +0.000 OA
BRANCH  16  18
ATOM     18  O   UNL     1      27.471  24.472  26.721  0.00  0.00    +0.000 OA
BRANCH  18  20
ATOM     19  C   UNL     1      26.061  24.162  28.674  0.00  0.00    +0.000 C 
ATOM     20  C   UNL     1      27.399  23.938  28.052  0.00  0.00    +0.000 C 
ENDBRANCH  18  20
ENDBRANCH  16  18
ENDBRANCH   1  16
TORSDOF 4
ENDMDL
MODEL 5
REMARK VINA RESULT:      -5.2     33.419     35.008
REMARK  Name = 
REMARK  4 active torsions:
REMARK  status: ('A' for Active; 'I' for Inactive)
REMARK    1  A    between atoms: C_2  and  O_3
REMARK    2  A    between atoms: O_3  and  C_4
REMARK    3  A    between atoms: C_4  and  C_6
REMARK    4  A    between atoms: C_13  and  C_14
REMARK                            x       y       z     vdW  Elec       q    Type
REMARK                         _______ _______ _______ _____ _____    ______ ____
ROOT
ATOM      1  C   UNL     1      19.588  -8.165  26.719  0.00  0.00    +0.000 C 
ATOM      2  C   UNL     1      20.046  -7.363  25.854  0.00  0.00    +0.000 C 
ATOM      3  C   UNL     1      21.162  -7.870  24.901  0.00  0.00    +0.000 C 
ATOM      4  N   UNL     1      19.647  -6.021  25.695  0.00  0.00    +0.000 NA
ATOM      5  C   UNL     1      18.649  -5.544  26.589  0.00  0.00    +0.000 C 
ATOM      6  O   UNL     1      18.263  -4.340  26.477  0.00  0.00    +0.000 OA
ATOM      7  N   UNL     1      18.136  -6.402  27.544  0.00  0.00    +0.000 NA
ATOM      8  C   UNL     1      18.468  -7.840  27.717  0.00  0.00    +0.000 C 
ENDROOT
BRANCH   8   9
ATOM      9  C   UNL     1      17.237  -8.507  26.919  0.00  0.00    +0.000 A 
ATOM     10  C   UNL     1      16.795  -7.884  25.807  0.00  0.00    +0.000 A 
ATOM     11  C   UNL     1      15.736  -8.443  25.124  0.00  0.00    +0.000 A 
ATOM     12  C   UNL     1      15.158  -9.619  25.596  0.00  0.00    +0.000 A 
ATOM     13  C   UNL     1      15.637 -10.229  26.737  0.00  0.00    +0.000 A 
ATOM     14  C   UNL     1      16.712  -9.651  27.419  0.00  0.00    +0.000 A 
ATOM     15 CL   UNL     1      17.302 -10.452  28.854  0.00  0.00    +0.000 Cl
ENDBRANCH   8   9
BRANCH   1  16
ATOM     16  C   UNL     1      20.126  -9.538  26.794  0.00  0.00    +0.000 C 
ATOM     17  O   UNL     1      20.552  -9.917  27.890  0.00  0.00    +0.000 OA
BRANCH  16  18
ATOM     18  O   UNL     1      20.174 -10.395  25.725  0.00  0.00    +0.000 OA
BRANCH  18  20
ATOM     19  C   UNL     1      18.447 -10.799  24.066  0.00  0.00    +0.000 C 
ATOM     20  C   UNL     1      19.056 -11.219  25.362  0.00  0.00    +0.000 C 
ENDBRANCH  18  20
ENDBRANCH  16  18
ENDBRANCH   1  16
TORSDOF 4
ENDMDL
MODEL 6
REMARK VINA RESULT:      -5.2     33.598     35.184
REMARK  Name = 
REMARK  4 active torsions:
REMARK  status: ('A' for Active; 'I' for Inactive)
REMARK    1  A    between atoms: C_2  and  O_3
REMARK    2  A    between atoms: O_3  and  C_4
REMARK    3  A    between atoms: C_4  and  C_6
REMARK    4  A    between atoms: C_13  and  C_14
REMARK                            x       y       z     vdW  Elec       q    Type
REMARK                         _______ _______ _______ _____ _____    ______ ____
ROOT
ATOM      1  C   UNL     1      17.907  -9.759  26.774  0.00  0.00    +0.000 C 
ATOM      2  C   UNL     1      16.751  -9.876  27.275  0.00  0.00    +0.000 C 
ATOM      3  C   UNL     1      16.631 -10.446  28.715  0.00  0.00    +0.000 C 
ATOM      4  N   UNL     1      15.544  -9.557  26.624  0.00  0.00    +0.000 NA
ATOM      5  C   UNL     1      15.648  -9.067  25.293  0.00  0.00    +0.000 C 
ATOM      6  O   UNL     1      14.582  -8.768  24.673  0.00  0.00    +0.000 OA
ATOM      7  N   UNL     1      16.901  -8.934  24.723  0.00  0.00    +0.000 NA
ATOM      8  C   UNL     1      18.209  -9.190  25.380  0.00  0.00    +0.000 C 
ENDROOT
BRANCH   8   9
ATOM      9  C   UNL     1      18.599  -7.688  25.815  0.00  0.00    +0.000 A 
ATOM     10  C   UNL     1      17.662  -6.949  26.443  0.00  0.00    +0.000 A 
ATOM     11  C   UNL     1      17.984  -5.660  26.810  0.00  0.00    +0.000 A 
ATOM     12  C   UNL     1      19.254  -5.163  26.525  0.00  0.00    +0.000 A 
ATOM     13  C   UNL     1      20.189  -5.948  25.882  0.00  0.00    +0.000 A 
ATOM     14  C   UNL     1      19.847  -7.254  25.516  0.00  0.00    +0.000 A 
ATOM     15 CL   UNL     1      21.054  -8.226  24.713  0.00  0.00    +0.000 Cl
ENDBRANCH   8   9
BRANCH   1  16
ATOM     16  C   UNL     1      19.087 -10.165  27.561  0.00  0.00    +0.000 C 
ATOM     17  O   UNL     1      19.559 -11.283  27.333  0.00  0.00    +0.000 OA
BRANCH  16  18
ATOM     18  O   UNL     1      19.671  -9.375  28.517  0.00  0.00    +0.000 OA
BRANCH  18  20
ATOM     19  C   UNL     1      19.471  -9.713  30.914  0.00  0.00    +0.000 C 
ATOM     20  C   UNL     1      20.291  -9.931  29.687  0.00  0.00    +0.000 C 
ENDBRANCH  18  20
ENDBRANCH  16  18
ENDBRANCH   1  16
TORSDOF 4
ENDMDL
MODEL 7
REMARK VINA RESULT:      -5.2     20.937     22.768
REMARK  Name = 
REMARK  4 active torsions:
REMARK  status: ('A' for Active; 'I' for Inactive)
REMARK    1  A    between atoms: C_2  and  O_3
REMARK    2  A    between atoms: O_3  and  C_4
REMARK    3  A    between atoms: C_4  and  C_6
REMARK    4  A    between atoms: C_13  and  C_14
REMARK                            x       y       z     vdW  Elec       q    Type
REMARK                         _______ _______ _______ _____ _____    ______ ____
ROOT
ATOM      1  C   UNL     1      18.237   9.501  38.601  0.00  0.00    +0.000 C 
ATOM      2  C   UNL     1      17.081   9.945  38.859  0.00  0.00    +0.000 C 
ATOM      3  C   UNL     1      16.467   9.630  40.250  0.00  0.00    +0.000 C 
ATOM      4  N   UNL     1      16.278  10.688  37.972  0.00  0.00    +0.000 NA
ATOM      5  C   UNL     1      16.823  10.950  36.685  0.00  0.00    +0.000 C 
ATOM      6  O   UNL     1      16.129  11.617  35.858  0.00  0.00    +0.000 OA
ATOM      7  N   UNL     1      18.084  10.470  36.380  0.00  0.00    +0.000 NA
ATOM      8  C   UNL     1      19.003   9.741  37.292  0.00  0.00    +0.000 C 
ENDROOT
BRANCH   8   9
ATOM      9  C   UNL     1      19.934  10.961  37.781  0.00  0.00    +0.000 A 
ATOM     10  C   UNL     1      19.327  12.065  38.263  0.00  0.00    +0.000 A 
ATOM     11  C   UNL     1      20.116  13.117  38.674  0.00  0.00    +0.000 A 
ATOM     12  C   UNL     1      21.502  13.013  38.582  0.00  0.00    +0.000 A 
ATOM     13  C   UNL     1      22.090  11.868  38.085  0.00  0.00    +0.000 A 
ATOM     14  C   UNL     1      21.276  10.808  37.672  0.00  0.00    +0.000 A 
ATOM     15 CL   UNL     1      22.048   9.369  37.057  0.00  0.00    +0.000 Cl
ENDBRANCH   8   9
BRANCH   1  16
ATOM     16  C   UNL     1      18.954   8.704  39.617  0.00  0.00    +0.000 C 
ATOM     17  O   UNL     1      19.594   9.325  40.472  0.00  0.00    +0.000 OA
BRANCH  16  18
ATOM     18  O   UNL     1      18.942   7.334  39.654  0.00  0.00    +0.000 OA
BRANCH  18  20
ATOM     19  C   UNL     1      17.337   6.185  41.069  0.00  0.00    +0.000 C 
ATOM     20  C   UNL     1      18.755   6.609  40.879  0.00  0.00    +0.000 C 
ENDBRANCH  18  20
ENDBRANCH  16  18
ENDBRANCH   1  16
TORSDOF 4
ENDMDL
MODEL 8
REMARK VINA RESULT:      -5.2     20.671     22.137
REMARK  Name = 
REMARK  4 active torsions:
REMARK  status: ('A' for Active; 'I' for Inactive)
REMARK    1  A    between atoms: C_2  and  O_3
REMARK    2  A    between atoms: O_3  and  C_4
REMARK    3  A    between atoms: C_4  and  C_6
REMARK    4  A    between atoms: C_13  and  C_14
REMARK                            x       y       z     vdW  Elec       q    Type
REMARK                         _______ _______ _______ _____ _____    ______ ____
ROOT
ATOM      1  C   UNL     1      26.861   5.164  15.789  0.00  0.00    +0.000 C 
ATOM      2  C   UNL     1      26.748   6.424  15.822  0.00  0.00    +0.000 C 
ATOM      3  C   UNL     1      26.233   7.148  14.549  0.00  0.00    +0.000 C 
ATOM      4  N   UNL     1      27.080   7.243  16.919  0.00  0.00    +0.000 NA
ATOM      5  C   UNL     1      27.584   6.585  18.075  0.00  0.00    +0.000 C 
ATOM      6  O   UNL     1      27.895   7.290  19.084  0.00  0.00    +0.000 OA
ATOM      7  N   UNL     1      27.720   5.209  18.060  0.00  0.00    +0.000 NA
ATOM      8  C   UNL     1      27.326   4.289  16.962  0.00  0.00    +0.000 C 
ENDROOT
BRANCH   8   9
ATOM      9  C   UNL     1      25.880   3.821  17.497  0.00  0.00    +0.000 A 
ATOM     10  C   UNL     1      25.021   4.775  17.912  0.00  0.00    +0.000 A 
ATOM     11  C   UNL     1      23.786   4.382  18.380  0.00  0.00    +0.000 A 
ATOM     12  C   UNL     1      23.463   3.028  18.413  0.00  0.00    +0.000 A 
ATOM     13  C   UNL     1      24.366   2.079  17.980  0.00  0.00    +0.000 A 
ATOM     14  C   UNL     1      25.615   2.493  17.507  0.00  0.00    +0.000 A 
ATOM     15 CL   UNL     1      26.732   1.269  16.956  0.00  0.00    +0.000 Cl
ENDBRANCH   8   9
BRANCH   1  16
ATOM     16  C   UNL     1      26.507   4.435  14.555  0.00  0.00    +0.000 C 
ATOM     17  O   UNL     1      27.425   3.873  13.949  0.00  0.00    +0.000 OA
BRANCH  16  18
ATOM     18  O   UNL     1      25.231   4.353  14.061  0.00  0.00    +0.000 OA
BRANCH  18  20
ATOM     19  C   UNL     1      23.112   3.336  14.673  0.00  0.00    +0.000 C 
ATOM     20  C   UNL     1      24.476   3.132  14.104  0.00  0.00    +0.000 C 
ENDBRANCH  18  20
ENDBRANCH  16  18
ENDBRANCH   1  16
TORSDOF 4
ENDMDL
MODEL 9
REMARK VINA RESULT:      -5.2     33.532     35.099
REMARK  Name = 
REMARK  4 active torsions:
REMARK  status: ('A' for Active; 'I' for Inactive)
REMARK    1  A    between atoms: C_2  and  O_3
REMARK    2  A    between atoms: O_3  and  C_4
REMARK    3  A    between atoms: C_4  and  C_6
REMARK    4  A    between atoms: C_13  and  C_14
REMARK                            x       y       z     vdW  Elec       q    Type
REMARK                         _______ _______ _______ _____ _____    ______ ____
ROOT
ATOM      1  C   UNL     1      18.051  -8.327  25.546  0.00  0.00    +0.000 C 
ATOM      2  C   UNL     1      17.166  -7.586  26.063  0.00  0.00    +0.000 C 
ATOM      3  C   UNL     1      15.694  -8.079  26.044  0.00  0.00    +0.000 C 
ATOM      4  N   UNL     1      17.397  -6.321  26.639  0.00  0.00    +0.000 NA
ATOM      5  C   UNL     1      18.739  -5.852  26.628  0.00  0.00    +0.000 C 
ATOM      6  O   UNL     1      18.987  -4.716  27.139  0.00  0.00    +0.000 OA
ATOM      7  N   UNL     1      19.723  -6.643  26.064  0.00  0.00    +0.000 NA
ATOM      8  C   UNL     1      19.553  -8.008  25.504  0.00  0.00    +0.000 C 
ENDROOT
BRANCH   8   9
ATOM      9  C   UNL     1      20.019  -8.889  26.770  0.00  0.00    +0.000 A 
ATOM     10  C   UNL     1      19.249  -8.856  27.878  0.00  0.00    +0.000 A 
ATOM     11  C   UNL     1      19.646  -9.599  28.969  0.00  0.00    +0.000 A 
ATOM     12  C   UNL     1      20.815 -10.352  28.899  0.00  0.00    +0.000 A 
ATOM     13  C   UNL     1      21.578 -10.363  27.749  0.00  0.00    +0.000 A 
ATOM     14  C   UNL     1      21.162  -9.605  26.649  0.00  0.00    +0.000 A 
ATOM     15 CL   UNL     1      22.141  -9.646  25.205  0.00  0.00    +0.000 Cl
ENDBRANCH   8   9
BRANCH   1  16
ATOM     16  C   UNL     1      17.660  -9.617  24.945  0.00  0.00    +0.000 C 
ATOM     17  O   UNL     1      17.556  -9.657  23.715  0.00  0.00    +0.000 OA
BRANCH  16  18
ATOM     18  O   UNL     1      17.411 -10.750  25.675  0.00  0.00    +0.000 OA
BRANCH  18  20
ATOM     19  C   UNL     1      18.596 -12.522  26.839  0.00  0.00    +0.000 C 
ATOM     20  C   UNL     1      18.200 -11.940  25.523  0.00  0.00    +0.000 C 
ENDBRANCH  18  20
ENDBRANCH  16  18
ENDBRANCH   1  16
TORSDOF 4
ENDMDL
MODEL 10
REMARK VINA RESULT:      -5.1     12.956     15.694
REMARK  Name = 
REMARK  4 active torsions:
REMARK  status: ('A' for Active; 'I' for Inactive)
REMARK    1  A    between atoms: C_2  and  O_3
REMARK    2  A    between atoms: O_3  and  C_4
REMARK    3  A    between atoms: C_4  and  C_6
REMARK    4  A    between atoms: C_13  and  C_14
REMARK                            x       y       z     vdW  Elec       q    Type
REMARK                         _______ _______ _______ _____ _____    ______ ____
ROOT
ATOM      1  C   UNL     1      31.504  21.807   9.731  0.00  0.00    +0.000 C 
ATOM      2  C   UNL     1      30.532  21.084  10.096  0.00  0.00    +0.000 C 
ATOM      3  C   UNL     1      29.924  20.097   9.063  0.00  0.00    +0.000 C 
ATOM      4  N   UNL     1      29.926  21.115  11.367  0.00  0.00    +0.000 NA
ATOM      5  C   UNL     1      30.458  22.041  12.305  0.00  0.00    +0.000 C 
ATOM      6  O   UNL     1      29.938  22.098  13.461  0.00  0.00    +0.000 OA
ATOM      7  N   UNL     1      31.518  22.845  11.927  0.00  0.00    +0.000 NA
ATOM      8  C   UNL     1      32.241  22.812  10.629  0.00  0.00    +0.000 C 
ENDROOT
BRANCH   8   9
ATOM      9  C   UNL     1      33.499  21.891  11.034  0.00  0.00    +0.000 A 
ATOM     10  C   UNL     1      33.259  20.778  11.757  0.00  0.00    +0.000 A 
ATOM     11  C   UNL     1      34.331  19.990  12.117  0.00  0.00    +0.000 A 
ATOM     12  C   UNL     1      35.616  20.360  11.730  0.00  0.00    +0.000 A 
ATOM     13  C   UNL     1      35.825  21.506  10.989  0.00  0.00    +0.000 A 
ATOM     14  C   UNL     1      34.727  22.295  10.631  0.00  0.00    +0.000 A 
ATOM     15 CL   UNL     1      35.022  23.733   9.686  0.00  0.00    +0.000 Cl
ENDBRANCH   8   9
BRANCH   1  16
ATOM     16  C   UNL     1      32.019  21.693   8.353  0.00  0.00    +0.000 C 
ATOM     17  O   UNL     1      31.896  22.682   7.622  0.00  0.00    +0.000 OA
BRANCH  16  18
ATOM     18  O   UNL     1      32.614  20.563   7.855  0.00  0.00    +0.000 OA
BRANCH  18  20
ATOM     19  C   UNL     1      34.663  19.313   8.227  0.00  0.00    +0.000 C 
ATOM     20  C   UNL     1      34.024  20.501   7.590  0.00  0.00    +0.000 C 
ENDBRANCH  18  20
ENDBRANCH  16  18
ENDBRANCH   1  16
TORSDOF 4
ENDMDL
