MODEL 1
REMARK VINA RESULT:      -6.5      0.000      0.000
REMARK  Name = 
REMARK  1 active torsions:
REMARK  status: ('A' for Active; 'I' for Inactive)
REMARK    1  A    between atoms: C_11  and  C_12
REMARK                            x       y       z     vdW  Elec       q    Type
REMARK                         _______ _______ _______ _____ _____    ______ ____
ROOT
ATOM      1  C   UNL     1      22.439   8.310  40.273  0.00  0.00    +0.000 C 
ATOM      2  C   UNL     1      21.233   8.923  39.654  0.00  0.00    +0.000 A 
ATOM      3  N   UNL     1      19.940   8.829  40.032  0.00  0.00    +0.000 NA
ATOM      4  N   UNL     1      19.153   9.521  39.221  0.00  0.00    +0.000 N 
ATOM      5  C   UNL     1      17.818   9.671  39.268  0.00  0.00    +0.000 A 
ATOM      6  N   UNL     1      16.972   9.084  40.241  0.00  0.00    +0.000 NA
ATOM      7  C   UNL     1      17.248  10.458  38.285  0.00  0.00    +0.000 A 
ATOM      8  C   UNL     1      18.074  11.038  37.323  0.00  0.00    +0.000 A 
ATOM      9  N   UNL     1      19.396  10.848  37.333  0.00  0.00    +0.000 NA
ATOM     10  C   UNL     1      19.939  10.082  38.291  0.00  0.00    +0.000 A 
ATOM     11  C   UNL     1      21.273   9.723  38.537  0.00  0.00    +0.000 A 
ATOM     12  C   UNL     1      17.269  11.841  36.363  0.00  0.00    +0.000 C 
ATOM     13  C   UNL     1      15.994  12.075  37.127  0.00  0.00    +0.000 C 
ATOM     14  C   UNL     1      15.849  10.850  38.006  0.00  0.00    +0.000 C 
ENDROOT
BRANCH  11  15
ATOM     15  C   UNL     1      22.382  10.161  37.730  0.00  0.00    +0.000 A 
ATOM     16  C   UNL     1      22.760   9.430  36.634  0.00  0.00    +0.000 A 
ATOM     17  C   UNL     1      23.832   9.826  35.840  0.00  0.00    +0.000 A 
ATOM     18  C   UNL     1      24.520  10.972  36.168  0.00  0.00    +0.000 A 
ATOM     19  C   UNL     1      24.132  11.697  37.270  0.00  0.00    +0.000 A 
ATOM     20  C   UNL     1      23.065  11.297  38.054  0.00  0.00    +0.000 A 
ENDBRANCH  11  15
TORSDOF 1
ENDMDL
MODEL 2
REMARK VINA RESULT:      -6.4     21.244     22.233
REMARK  Name = 
REMARK  1 active torsions:
REMARK  status: ('A' for Active; 'I' for Inactive)
REMARK    1  A    between atoms: C_11  and  C_12
REMARK                            x       y       z     vdW  Elec       q    Type
REMARK                         _______ _______ _______ _____ _____    ______ ____
ROOT
ATOM      1  C   UNL     1      15.827  -8.807  25.072  0.00  0.00    +0.000 C 
ATOM      2  C   UNL     1      16.328  -9.231  26.408  0.00  0.00    +0.000 A 
ATOM      3  N   UNL     1      15.908 -10.248  27.191  0.00  0.00    +0.000 NA
ATOM      4  N   UNL     1      16.606 -10.304  28.316  0.00  0.00    +0.000 N 
ATOM      5  C   UNL     1      16.488 -11.170  29.338  0.00  0.00    +0.000 A 
ATOM      6  N   UNL     1      15.547 -12.226  29.399  0.00  0.00    +0.000 NA
ATOM      7  C   UNL     1      17.357 -10.997  30.400  0.00  0.00    +0.000 A 
ATOM      8  C   UNL     1      18.285  -9.958  30.348  0.00  0.00    +0.000 A 
ATOM      9  N   UNL     1      18.350  -9.132  29.300  0.00  0.00    +0.000 NA
ATOM     10  C   UNL     1      17.502  -9.308  28.276  0.00  0.00    +0.000 A 
ATOM     11  C   UNL     1      17.353  -8.602  27.072  0.00  0.00    +0.000 A 
ATOM     12  C   UNL     1      19.120  -9.945  31.580  0.00  0.00    +0.000 C 
ATOM     13  C   UNL     1      18.929 -11.339  32.113  0.00  0.00    +0.000 C 
ATOM     14  C   UNL     1      17.532 -11.725  31.676  0.00  0.00    +0.000 C 
ENDROOT
BRANCH  11  15
ATOM     15  C   UNL     1      18.164  -7.472  26.701  0.00  0.00    +0.000 A 
ATOM     16  C   UNL     1      17.793  -6.210  27.085  0.00  0.00    +0.000 A 
ATOM     17  C   UNL     1      18.553  -5.098  26.735  0.00  0.00    +0.000 A 
ATOM     18  C   UNL     1      19.697  -5.278  25.990  0.00  0.00    +0.000 A 
ATOM     19  C   UNL     1      20.059  -6.549  25.610  0.00  0.00    +0.000 A 
ATOM     20  C   UNL     1      19.298  -7.649  25.962  0.00  0.00    +0.000 A 
ENDBRANCH  11  15
TORSDOF 1
ENDMDL
MODEL 3
REMARK VINA RESULT:      -6.4     22.014     22.612
REMARK  Name = 
REMARK  1 active torsions:
REMARK  status: ('A' for Active; 'I' for Inactive)
REMARK    1  A    between atoms: C_11  and  C_12
REMARK                            x       y       z     vdW  Elec       q    Type
REMARK                         _______ _______ _______ _____ _____    ______ ____
ROOT
ATOM      1  C   UNL     1      18.835  -9.342  29.220  0.00  0.00    +0.000 C 
ATOM      2  C   UNL     1      17.712  -9.416  28.246  0.00  0.00    +0.000 A 
ATOM      3  N   UNL     1      16.693 -10.299  28.186  0.00  0.00    +0.000 NA
ATOM      4  N   UNL     1      15.890 -10.035  27.166  0.00  0.00    +0.000 N 
ATOM      5  C   UNL     1      14.777 -10.683  26.780  0.00  0.00    +0.000 A 
ATOM      6  N   UNL     1      14.238 -11.822  27.427  0.00  0.00    +0.000 NA
ATOM      7  C   UNL     1      14.125 -10.186  25.667  0.00  0.00    +0.000 A 
ATOM      8  C   UNL     1      14.650  -9.065  25.023  0.00  0.00    +0.000 A 
ATOM      9  N   UNL     1      15.763  -8.468  25.459  0.00  0.00    +0.000 NA
ATOM     10  C   UNL     1      16.387  -8.959  26.540  0.00  0.00    +0.000 A 
ATOM     11  C   UNL     1      17.550  -8.536  27.203  0.00  0.00    +0.000 A 
ATOM     12  C   UNL     1      13.806  -8.694  23.856  0.00  0.00    +0.000 C 
ATOM     13  C   UNL     1      12.503  -9.380  24.168  0.00  0.00    +0.000 C 
ATOM     14  C   UNL     1      12.902 -10.613  24.951  0.00  0.00    +0.000 C 
ENDROOT
BRANCH  11  15
ATOM     15  C   UNL     1      18.335  -7.399  26.797  0.00  0.00    +0.000 A 
ATOM     16  C   UNL     1      17.941  -6.137  27.153  0.00  0.00    +0.000 A 
ATOM     17  C   UNL     1      18.676  -5.018  26.769  0.00  0.00    +0.000 A 
ATOM     18  C   UNL     1      19.816  -5.193  26.018  0.00  0.00    +0.000 A 
ATOM     19  C   UNL     1      20.201  -6.465  25.667  0.00  0.00    +0.000 A 
ATOM     20  C   UNL     1      19.466  -7.572  26.053  0.00  0.00    +0.000 A 
ENDBRANCH  11  15
TORSDOF 1
ENDMDL
MODEL 4
REMARK VINA RESULT:      -6.2      2.103      4.766
REMARK  Name = 
REMARK  1 active torsions:
REMARK  status: ('A' for Active; 'I' for Inactive)
REMARK    1  A    between atoms: C_11  and  C_12
REMARK                            x       y       z     vdW  Elec       q    Type
REMARK                         _______ _______ _______ _____ _____    ______ ____
ROOT
ATOM      1  C   UNL     1      21.421   9.936  36.705  0.00  0.00    +0.000 C 
ATOM      2  C   UNL     1      20.465   9.779  37.834  0.00  0.00    +0.000 A 
ATOM      3  N   UNL     1      20.716   9.498  39.131  0.00  0.00    +0.000 NA
ATOM      4  N   UNL     1      19.594   9.437  39.833  0.00  0.00    +0.000 N 
ATOM      5  C   UNL     1      19.433   9.185  41.144  0.00  0.00    +0.000 A 
ATOM      6  N   UNL     1      20.487   8.922  42.052  0.00  0.00    +0.000 NA
ATOM      7  C   UNL     1      18.135   9.183  41.619  0.00  0.00    +0.000 A 
ATOM      8  C   UNL     1      17.092   9.439  40.730  0.00  0.00    +0.000 A 
ATOM      9  N   UNL     1      17.321   9.683  39.438  0.00  0.00    +0.000 NA
ATOM     10  C   UNL     1      18.584   9.682  38.986  0.00  0.00    +0.000 A 
ATOM     11  C   UNL     1      19.103   9.905  37.701  0.00  0.00    +0.000 A 
ATOM     12  C   UNL     1      15.783   9.391  41.438  0.00  0.00    +0.000 C 
ATOM     13  C   UNL     1      16.187   9.573  42.876  0.00  0.00    +0.000 C 
ATOM     14  C   UNL     1      17.565   8.951  42.965  0.00  0.00    +0.000 C 
ENDROOT
BRANCH  11  15
ATOM     15  C   UNL     1      18.291  10.204  36.550  0.00  0.00    +0.000 A 
ATOM     16  C   UNL     1      17.645  11.409  36.465  0.00  0.00    +0.000 A 
ATOM     17  C   UNL     1      16.848  11.723  35.368  0.00  0.00    +0.000 A 
ATOM     18  C   UNL     1      16.712  10.800  34.356  0.00  0.00    +0.000 A 
ATOM     19  C   UNL     1      17.364   9.594  34.452  0.00  0.00    +0.000 A 
ATOM     20  C   UNL     1      18.155   9.290  35.546  0.00  0.00    +0.000 A 
ENDBRANCH  11  15
TORSDOF 1
ENDMDL
MODEL 5
REMARK VINA RESULT:      -6.2     20.149     22.215
REMARK  Name = 
REMARK  1 active torsions:
REMARK  status: ('A' for Active; 'I' for Inactive)
REMARK    1  A    between atoms: C_11  and  C_12
REMARK                            x       y       z     vdW  Elec       q    Type
REMARK                         _______ _______ _______ _____ _____    ______ ____
ROOT
ATOM      1  C   UNL     1      32.436  23.386  28.007  0.00  0.00    +0.000 C 
ATOM      2  C   UNL     1      31.530  23.503  26.832  0.00  0.00    +0.000 A 
ATOM      3  N   UNL     1      30.244  23.109  26.706  0.00  0.00    +0.000 NA
ATOM      4  N   UNL     1      29.776  23.386  25.498  0.00  0.00    +0.000 N 
ATOM      5  C   UNL     1      28.551  23.150  24.995  0.00  0.00    +0.000 A 
ATOM      6  N   UNL     1      27.492  22.530  25.701  0.00  0.00    +0.000 NA
ATOM      7  C   UNL     1      28.331  23.548  23.689  0.00  0.00    +0.000 A 
ATOM      8  C   UNL     1      29.369  24.159  22.987  0.00  0.00    +0.000 A 
ATOM      9  N   UNL     1      30.564  24.364  23.547  0.00  0.00    +0.000 NA
ATOM     10  C   UNL     1      30.768  23.973  24.814  0.00  0.00    +0.000 A 
ATOM     11  C   UNL     1      31.903  24.065  25.635  0.00  0.00    +0.000 A 
ATOM     12  C   UNL     1      28.930  24.508  21.609  0.00  0.00    +0.000 C 
ATOM     13  C   UNL     1      27.430  24.497  21.736  0.00  0.00    +0.000 C 
ATOM     14  C   UNL     1      27.148  23.462  22.805  0.00  0.00    +0.000 C 
ENDROOT
BRANCH  11  15
ATOM     15  C   UNL     1      33.149  24.651  25.216  0.00  0.00    +0.000 A 
ATOM     16  C   UNL     1      34.086  23.881  24.579  0.00  0.00    +0.000 A 
ATOM     17  C   UNL     1      35.302  24.419  24.169  0.00  0.00    +0.000 A 
ATOM     18  C   UNL     1      35.560  25.750  24.411  0.00  0.00    +0.000 A 
ATOM     19  C   UNL     1      34.612  26.512  25.051  0.00  0.00    +0.000 A 
ATOM     20  C   UNL     1      33.406  25.970  25.456  0.00  0.00    +0.000 A 
ENDBRANCH  11  15
TORSDOF 1
ENDMDL
MODEL 6
REMARK VINA RESULT:      -6.1     17.822     20.377
REMARK  Name = 
REMARK  1 active torsions:
REMARK  status: ('A' for Active; 'I' for Inactive)
REMARK    1  A    between atoms: C_11  and  C_12
REMARK                            x       y       z     vdW  Elec       q    Type
REMARK                         _______ _______ _______ _____ _____    ______ ____
ROOT
ATOM      1  C   UNL     1      33.767  -7.572  34.118  0.00  0.00    +0.000 C 
ATOM      2  C   UNL     1      33.683  -6.096  34.288  0.00  0.00    +0.000 A 
ATOM      3  N   UNL     1      33.636  -5.371  35.426  0.00  0.00    +0.000 NA
ATOM      4  N   UNL     1      33.562  -4.074  35.165  0.00  0.00    +0.000 N 
ATOM      5  C   UNL     1      33.500  -3.043  36.026  0.00  0.00    +0.000 A 
ATOM      6  N   UNL     1      33.498  -3.167  37.436  0.00  0.00    +0.000 NA
ATOM      7  C   UNL     1      33.430  -1.778  35.473  0.00  0.00    +0.000 A 
ATOM      8  C   UNL     1      33.429  -1.648  34.084  0.00  0.00    +0.000 A 
ATOM      9  N   UNL     1      33.493  -2.716  33.284  0.00  0.00    +0.000 NA
ATOM     10  C   UNL     1      33.561  -3.939  33.831  0.00  0.00    +0.000 A 
ATOM     11  C   UNL     1      33.637  -5.210  33.239  0.00  0.00    +0.000 A 
ATOM     12  C   UNL     1      33.349  -0.214  33.696  0.00  0.00    +0.000 C 
ATOM     13  C   UNL     1      33.795   0.485  34.952  0.00  0.00    +0.000 C 
ATOM     14  C   UNL     1      33.348  -0.428  36.074  0.00  0.00    +0.000 C 
ENDROOT
BRANCH  11  15
ATOM     15  C   UNL     1      33.663  -5.429  31.816  0.00  0.00    +0.000 A 
ATOM     16  C   UNL     1      32.490  -5.492  31.113  0.00  0.00    +0.000 A 
ATOM     17  C   UNL     1      32.484  -5.710  29.738  0.00  0.00    +0.000 A 
ATOM     18  C   UNL     1      33.684  -5.865  29.082  0.00  0.00    +0.000 A 
ATOM     19  C   UNL     1      34.856  -5.801  29.798  0.00  0.00    +0.000 A 
ATOM     20  C   UNL     1      34.852  -5.583  31.164  0.00  0.00    +0.000 A 
ENDBRANCH  11  15
TORSDOF 1
ENDMDL
MODEL 7
REMARK VINA RESULT:      -6.0     18.768     21.417
REMARK  Name = 
REMARK  1 active torsions:
REMARK  status: ('A' for Active; 'I' for Inactive)
REMARK    1  A    between atoms: C_11  and  C_12
REMARK                            x       y       z     vdW  Elec       q    Type
REMARK                         _______ _______ _______ _____ _____    ______ ____
ROOT
ATOM      1  C   UNL     1      35.371  -4.377  36.327  0.00  0.00    +0.000 C 
ATOM      2  C   UNL     1      35.049  -4.806  34.939  0.00  0.00    +0.000 A 
ATOM      3  N   UNL     1      35.451  -5.910  34.274  0.00  0.00    +0.000 NA
ATOM      4  N   UNL     1      34.951  -5.939  33.048  0.00  0.00    +0.000 N 
ATOM      5  C   UNL     1      35.121  -6.868  32.090  0.00  0.00    +0.000 A 
ATOM      6  N   UNL     1      35.906  -8.038  32.228  0.00  0.00    +0.000 NA
ATOM      7  C   UNL     1      34.474  -6.644  30.889  0.00  0.00    +0.000 A 
ATOM      8  C   UNL     1      33.700  -5.493  30.745  0.00  0.00    +0.000 A 
ATOM      9  N   UNL     1      33.573  -4.609  31.738  0.00  0.00    +0.000 NA
ATOM     10  C   UNL     1      34.205  -4.835  32.899  0.00  0.00    +0.000 A 
ATOM     11  C   UNL     1      34.244  -4.089  34.087  0.00  0.00    +0.000 A 
ATOM     12  C   UNL     1      33.093  -5.441  29.387  0.00  0.00    +0.000 C 
ATOM     13  C   UNL     1      33.179  -6.876  28.940  0.00  0.00    +0.000 C 
ATOM     14  C   UNL     1      34.418  -7.413  29.626  0.00  0.00    +0.000 C 
ENDROOT
BRANCH  11  15
ATOM     15  C   UNL     1      33.544  -2.845  34.275  0.00  0.00    +0.000 A 
ATOM     16  C   UNL     1      34.045  -1.691  33.733  0.00  0.00    +0.000 A 
ATOM     17  C   UNL     1      33.394  -0.473  33.904  0.00  0.00    +0.000 A 
ATOM     18  C   UNL     1      32.225  -0.436  34.631  0.00  0.00    +0.000 A 
ATOM     19  C   UNL     1      31.732  -1.601  35.170  0.00  0.00    +0.000 A 
ATOM     20  C   UNL     1      32.385  -2.807  34.995  0.00  0.00    +0.000 A 
ENDBRANCH  11  15
TORSDOF 1
ENDMDL
MODEL 8
REMARK VINA RESULT:      -6.0     17.815     20.491
REMARK  Name = 
REMARK  1 active torsions:
REMARK  status: ('A' for Active; 'I' for Inactive)
REMARK    1  A    between atoms: C_11  and  C_12
REMARK                            x       y       z     vdW  Elec       q    Type
REMARK                         _______ _______ _______ _____ _____    ______ ____
ROOT
ATOM      1  C   UNL     1      32.380  23.452  24.511  0.00  0.00    +0.000 C 
ATOM      2  C   UNL     1      31.238  23.422  25.465  0.00  0.00    +0.000 A 
ATOM      3  N   UNL     1      31.225  23.061  26.766  0.00  0.00    +0.000 NA
ATOM      4  N   UNL     1      30.009  23.168  27.280  0.00  0.00    +0.000 N 
ATOM      5  C   UNL     1      29.597  22.904  28.533  0.00  0.00    +0.000 A 
ATOM      6  N   UNL     1      30.432  22.437  29.577  0.00  0.00    +0.000 NA
ATOM      7  C   UNL     1      28.256  23.106  28.799  0.00  0.00    +0.000 A 
ATOM      8  C   UNL     1      27.427  23.564  27.775  0.00  0.00    +0.000 A 
ATOM      9  N   UNL     1      27.901  23.808  26.551  0.00  0.00    +0.000 NA
ATOM     10  C   UNL     1      29.204  23.608  26.302  0.00  0.00    +0.000 A 
ATOM     11  C   UNL     1      29.955  23.781  25.129  0.00  0.00    +0.000 A 
ATOM     12  C   UNL     1      26.030  23.716  28.266  0.00  0.00    +0.000 C 
ATOM     13  C   UNL     1      26.218  23.780  29.758  0.00  0.00    +0.000 C 
ATOM     14  C   UNL     1      27.443  22.930  30.023  0.00  0.00    +0.000 C 
ENDROOT
BRANCH  11  15
ATOM     15  C   UNL     1      29.402  24.251  23.886  0.00  0.00    +0.000 A 
ATOM     16  C   UNL     1      28.744  23.379  23.059  0.00  0.00    +0.000 A 
ATOM     17  C   UNL     1      28.205  23.803  21.848  0.00  0.00    +0.000 A 
ATOM     18  C   UNL     1      28.339  25.124  21.483  0.00  0.00    +0.000 A 
ATOM     19  C   UNL     1      29.001  25.989  22.321  0.00  0.00    +0.000 A 
ATOM     20  C   UNL     1      29.534  25.560  23.523  0.00  0.00    +0.000 A 
ENDBRANCH  11  15
TORSDOF 1
ENDMDL
MODEL 9
REMARK VINA RESULT:      -6.0     19.179     21.170
REMARK  Name = 
REMARK  1 active torsions:
REMARK  status: ('A' for Active; 'I' for Inactive)
REMARK    1  A    between atoms: C_11  and  C_12
REMARK                            x       y       z     vdW  Elec       q    Type
REMARK                         _______ _______ _______ _____ _____    ______ ____
ROOT
ATOM      1  C   UNL     1      33.314  24.160  25.232  0.00  0.00    +0.000 C 
ATOM      2  C   UNL     1      31.878  24.036  24.864  0.00  0.00    +0.000 A 
ATOM      3  N   UNL     1      31.298  24.134  23.648  0.00  0.00    +0.000 NA
ATOM      4  N   UNL     1      29.987  23.965  23.728  0.00  0.00    +0.000 N 
ATOM      5  C   UNL     1      29.072  23.991  22.742  0.00  0.00    +0.000 A 
ATOM      6  N   UNL     1      29.363  24.217  21.375  0.00  0.00    +0.000 NA
ATOM      7  C   UNL     1      27.757  23.780  23.113  0.00  0.00    +0.000 A 
ATOM      8  C   UNL     1      27.463  23.557  24.458  0.00  0.00    +0.000 A 
ATOM      9  N   UNL     1      28.421  23.545  25.388  0.00  0.00    +0.000 NA
ATOM     10  C   UNL     1      29.694  23.751  25.019  0.00  0.00    +0.000 A 
ATOM     11  C   UNL     1      30.877  23.789  25.772  0.00  0.00    +0.000 A 
ATOM     12  C   UNL     1      26.000  23.355  24.643  0.00  0.00    +0.000 C 
ATOM     13  C   UNL     1      25.546  22.993  23.255  0.00  0.00    +0.000 C 
ATOM     14  C   UNL     1      26.496  23.736  22.339  0.00  0.00    +0.000 C 
ENDROOT
BRANCH  11  15
ATOM     15  C   UNL     1      30.925  23.590  27.197  0.00  0.00    +0.000 A 
ATOM     16  C   UNL     1      31.245  22.358  27.704  0.00  0.00    +0.000 A 
ATOM     17  C   UNL     1      31.293  22.135  29.077  0.00  0.00    +0.000 A 
ATOM     18  C   UNL     1      31.012  23.175  29.934  0.00  0.00    +0.000 A 
ATOM     19  C   UNL     1      30.692  24.406  29.413  0.00  0.00    +0.000 A 
ATOM     20  C   UNL     1      30.648  24.621  28.048  0.00  0.00    +0.000 A 
ENDBRANCH  11  15
TORSDOF 1
ENDMDL
MODEL 10
REMARK VINA RESULT:      -5.9     19.000     21.068
REMARK  Name = 
REMARK  1 active torsions:
REMARK  status: ('A' for Active; 'I' for Inactive)
REMARK    1  A    between atoms: C_11  and  C_12
REMARK                            x       y       z     vdW  Elec       q    Type
REMARK                         _______ _______ _______ _____ _____    ______ ____
ROOT
ATOM      1  C   UNL     1      31.655  -5.233  36.146  0.00  0.00    +0.000 C 
ATOM      2  C   UNL     1      32.036  -5.470  34.727  0.00  0.00    +0.000 A 
ATOM      3  N   UNL     1      31.631  -6.446  33.887  0.00  0.00    +0.000 NA
ATOM      4  N   UNL     1      32.198  -6.320  32.697  0.00  0.00    +0.000 N 
ATOM      5  C   UNL     1      32.047  -7.091  31.605  0.00  0.00    +0.000 A 
ATOM      6  N   UNL     1      31.215  -8.234  31.531  0.00  0.00    +0.000 NA
ATOM      7  C   UNL     1      32.767  -6.724  30.484  0.00  0.00    +0.000 A 
ATOM      8  C   UNL     1      33.590  -5.600  30.549  0.00  0.00    +0.000 A 
ATOM      9  N   UNL     1      33.695  -4.877  31.667  0.00  0.00    +0.000 NA
ATOM     10  C   UNL     1      32.992  -5.241  32.750  0.00  0.00    +0.000 A 
ATOM     11  C   UNL     1      32.914  -4.673  34.031  0.00  0.00    +0.000 A 
ATOM     12  C   UNL     1      34.273  -5.379  29.245  0.00  0.00    +0.000 C 
ATOM     13  C   UNL     1      33.411  -6.164  28.293  0.00  0.00    +0.000 C 
ATOM     14  C   UNL     1      32.867  -7.305  29.127  0.00  0.00    +0.000 C 
ENDROOT
BRANCH  11  15
ATOM     15  C   UNL     1      33.637  -3.494  34.430  0.00  0.00    +0.000 A 
ATOM     16  C   UNL     1      34.685  -3.600  35.306  0.00  0.00    +0.000 A 
ATOM     17  C   UNL     1      35.398  -2.477  35.715  0.00  0.00    +0.000 A 
ATOM     18  C   UNL     1      35.038  -1.242  35.225  0.00  0.00    +0.000 A 
ATOM     19  C   UNL     1      33.985  -1.148  34.346  0.00  0.00    +0.000 A 
ATOM     20  C   UNL     1      33.281  -2.269  33.944  0.00  0.00    +0.000 A 
ENDBRANCH  11  15
TORSDOF 1
ENDMDL
