MODEL 1
REMARK VINA RESULT:      -7.8      0.000      0.000
REMARK  Name = 
REMARK  7 active torsions:
REMARK  status: ('A' for Active; 'I' for Inactive)
REMARK    1  A    between atoms: C_2  and  C_28
REMARK    2  A    between atoms: N_3  and  C_4
REMARK    3  A    between atoms: N_7  and  C_8
REMARK    4  A    between atoms: C_8  and  C_9
REMARK    5  A    between atoms: C_9  and  C_10
REMARK    6  A    between atoms: N_12  and  C_13
REMARK    7  A    between atoms: C_13  and  C_14
REMARK                            x       y       z     vdW  Elec       q    Type
REMARK                         _______ _______ _______ _____ _____    ______ ____
ROOT
ATOM      1  C   UNL     1      38.803   1.852  13.467  0.00  0.00    +0.000 C 
ENDROOT
BRANCH   1   2
ATOM      2  C   UNL     1      38.989   0.380  13.558  0.00  0.00    +0.000 A 
ATOM      3  C   UNL     1      38.038  -0.610  13.338  0.00  0.00    +0.000 A 
ATOM      4  N   UNL     1      38.595  -1.799  13.494  0.00  0.00    +0.000 N 
ATOM      5  C   UNL     1      39.889  -1.671  13.817  0.00  0.00    +0.000 A 
ATOM      6  C   UNL     1      40.864  -2.609  14.082  0.00  0.00    +0.000 A 
ATOM      7  C   UNL     1      42.134  -2.177  14.393  0.00  0.00    +0.000 A 
ATOM      8  C   UNL     1      42.384  -0.822  14.430  0.00  0.00    +0.000 A 
ATOM      9  C   UNL     1      41.414   0.120  14.169  0.00  0.00    +0.000 A 
ATOM     10  C   UNL     1      40.138  -0.322  13.857  0.00  0.00    +0.000 A 
BRANCH   4  11
ATOM     11  C   UNL     1      37.898  -3.067  13.344  0.00  0.00    +0.000 C 
BRANCH  11  12
ATOM     12  C   UNL     1      36.929  -3.283  14.434  0.00  0.00    +0.000 A 
ATOM     13  C   UNL     1      35.956  -2.389  14.785  0.00  0.00    +0.000 A 
ATOM     14  C   UNL     1      35.075  -2.619  15.813  0.00  0.00    +0.000 A 
ATOM     15  C   UNL     1      35.142  -3.782  16.541  0.00  0.00    +0.000 A 
ATOM     16  C   UNL     1      36.124  -4.686  16.189  0.00  0.00    +0.000 A 
ATOM     17  C   UNL     1      37.000  -4.457  15.166  0.00  0.00    +0.000 A 
ENDBRANCH  11  12
ENDBRANCH   4  11
ENDBRANCH   1   2
BRANCH   1  18
ATOM     18  C   UNL     1      38.101   2.321  14.731  0.00  0.00    +0.000 C 
BRANCH  18  22
ATOM     19  C   UNL     1      36.218   1.744  16.400  0.00  0.00    +0.000 C 
ATOM     20  C   UNL     1      36.809   3.081  16.670  0.00  0.00    +0.000 C 
ATOM     21  C   UNL     1      36.733   4.033  15.511  0.00  0.00    +0.000 C 
ATOM     22  N   UNL     1      37.095   3.272  14.311  0.00  0.00    +0.000 NA
ATOM     23  C   UNL     1      35.898   2.486  13.998  0.00  0.00    +0.000 C 
ATOM     24  C   UNL     1      35.505   1.591  15.116  0.00  0.00    +0.000 C 
BRANCH  19  27
ATOM     25  O   UNL     1      35.531   0.143  18.510  0.00  0.00    +0.000 OA
ATOM     26  C   UNL     1      36.604  -0.169  17.909  0.00  0.00    +0.000 C 
ATOM     27  N   UNL     1      37.025   0.624  16.797  0.00  0.00    +0.000 NA
BRANCH  26  28
ATOM     28  C   UNL     1      37.325  -1.325  18.409  0.00  0.00    +0.000 A 
ATOM     29  C   UNL     1      37.159  -1.806  19.698  0.00  0.00    +0.000 A 
ATOM     30  C   UNL     1      37.811  -2.881  20.220  0.00  0.00    +0.000 A 
ATOM     31  C   UNL     1      38.701  -3.552  19.427  0.00  0.00    +0.000 A 
ATOM     32  C   UNL     1      38.909  -3.120  18.131  0.00  0.00    +0.000 A 
ATOM     33  C   UNL     1      38.230  -2.023  17.632  0.00  0.00    +0.000 A 
ENDBRANCH  26  28
ENDBRANCH  19  27
ENDBRANCH  18  22
ENDBRANCH   1  18
TORSDOF 7
ENDMDL
MODEL 2
REMARK VINA RESULT:      -7.7      1.946      5.274
REMARK  Name = 
REMARK  7 active torsions:
REMARK  status: ('A' for Active; 'I' for Inactive)
REMARK    1  A    between atoms: C_2  and  C_28
REMARK    2  A    between atoms: N_3  and  C_4
REMARK    3  A    between atoms: N_7  and  C_8
REMARK    4  A    between atoms: C_8  and  C_9
REMARK    5  A    between atoms: C_9  and  C_10
REMARK    6  A    between atoms: N_12  and  C_13
REMARK    7  A    between atoms: C_13  and  C_14
REMARK                            x       y       z     vdW  Elec       q    Type
REMARK                         _______ _______ _______ _____ _____    ______ ____
ROOT
ATOM      1  C   UNL     1      35.365   1.395  16.358  0.00  0.00    +0.000 C 
ENDROOT
BRANCH   1   2
ATOM      2  C   UNL     1      36.284   1.674  15.224  0.00  0.00    +0.000 A 
ATOM      3  C   UNL     1      36.278   1.086  13.964  0.00  0.00    +0.000 A 
ATOM      4  N   UNL     1      37.238   1.615  13.225  0.00  0.00    +0.000 N 
ATOM      5  C   UNL     1      37.910   2.541  13.924  0.00  0.00    +0.000 A 
ATOM      6  C   UNL     1      38.980   3.343  13.590  0.00  0.00    +0.000 A 
ATOM      7  C   UNL     1      39.473   4.219  14.531  0.00  0.00    +0.000 A 
ATOM      8  C   UNL     1      38.879   4.261  15.774  0.00  0.00    +0.000 A 
ATOM      9  C   UNL     1      37.812   3.460  16.116  0.00  0.00    +0.000 A 
ATOM     10  C   UNL     1      37.322   2.581  15.163  0.00  0.00    +0.000 A 
BRANCH   4  11
ATOM     11  C   UNL     1      37.530   1.241  11.850  0.00  0.00    +0.000 C 
BRANCH  11  12
ATOM     12  C   UNL     1      38.270  -0.033  11.783  0.00  0.00    +0.000 A 
ATOM     13  C   UNL     1      37.946  -1.148  12.503  0.00  0.00    +0.000 A 
ATOM     14  C   UNL     1      38.664  -2.316  12.422  0.00  0.00    +0.000 A 
ATOM     15  C   UNL     1      39.758  -2.406  11.596  0.00  0.00    +0.000 A 
ATOM     16  C   UNL     1      40.088  -1.280  10.868  0.00  0.00    +0.000 A 
ATOM     17  C   UNL     1      39.372  -0.118  10.948  0.00  0.00    +0.000 A 
ENDBRANCH  11  12
ENDBRANCH   4  11
ENDBRANCH   1   2
BRANCH   1  18
ATOM     18  C   UNL     1      36.114   0.555  17.380  0.00  0.00    +0.000 C 
BRANCH  18  22
ATOM     19  C   UNL     1      37.327  -1.721  17.273  0.00  0.00    +0.000 C 
ATOM     20  C   UNL     1      37.225  -1.211  18.666  0.00  0.00    +0.000 C 
ATOM     21  C   UNL     1      35.818  -0.954  19.125  0.00  0.00    +0.000 C 
ATOM     22  N   UNL     1      35.125  -0.286  18.020  0.00  0.00    +0.000 NA
ATOM     23  C   UNL     1      34.827  -1.360  17.069  0.00  0.00    +0.000 C 
ATOM     24  C   UNL     1      36.054  -2.055  16.604  0.00  0.00    +0.000 C 
BRANCH  19  27
ATOM     25  O   UNL     1      39.504  -3.051  16.284  0.00  0.00    +0.000 OA
ATOM     26  C   UNL     1      39.417  -1.825  15.968  0.00  0.00    +0.000 C 
ATOM     27  N   UNL     1      38.306  -1.068  16.450  0.00  0.00    +0.000 NA
BRANCH  26  28
ATOM     28  C   UNL     1      40.472  -1.288  15.129  0.00  0.00    +0.000 A 
ATOM     29  C   UNL     1      40.483   0.028  14.695  0.00  0.00    +0.000 A 
ATOM     30  C   UNL     1      41.442   0.582  13.904  0.00  0.00    +0.000 A 
ATOM     31  C   UNL     1      42.486  -0.203  13.497  0.00  0.00    +0.000 A 
ATOM     32  C   UNL     1      42.531  -1.525  13.898  0.00  0.00    +0.000 A 
ATOM     33  C   UNL     1      41.539  -2.057  14.701  0.00  0.00    +0.000 A 
ENDBRANCH  26  28
ENDBRANCH  19  27
ENDBRANCH  18  22
ENDBRANCH   1  18
TORSDOF 7
ENDMDL
MODEL 3
REMARK VINA RESULT:      -7.5      2.793      7.406
REMARK  Name = 
REMARK  7 active torsions:
REMARK  status: ('A' for Active; 'I' for Inactive)
REMARK    1  A    between atoms: C_2  and  C_28
REMARK    2  A    between atoms: N_3  and  C_4
REMARK    3  A    between atoms: N_7  and  C_8
REMARK    4  A    between atoms: C_8  and  C_9
REMARK    5  A    between atoms: C_9  and  C_10
REMARK    6  A    between atoms: N_12  and  C_13
REMARK    7  A    between atoms: C_13  and  C_14
REMARK                            x       y       z     vdW  Elec       q    Type
REMARK                         _______ _______ _______ _____ _____    ______ ____
ROOT
ATOM      1  C   UNL     1      35.291   2.093  16.498  0.00  0.00    +0.000 C 
ENDROOT
BRANCH   1   2
ATOM      2  C   UNL     1      36.276   3.170  16.213  0.00  0.00    +0.000 A 
ATOM      3  C   UNL     1      37.444   3.456  16.911  0.00  0.00    +0.000 A 
ATOM      4  N   UNL     1      38.063   4.473  16.337  0.00  0.00    +0.000 N 
ATOM      5  C   UNL     1      37.369   4.904  15.275  0.00  0.00    +0.000 A 
ATOM      6  C   UNL     1      37.604   5.926  14.380  0.00  0.00    +0.000 A 
ATOM      7  C   UNL     1      36.698   6.143  13.367  0.00  0.00    +0.000 A 
ATOM      8  C   UNL     1      35.587   5.331  13.284  0.00  0.00    +0.000 A 
ATOM      9  C   UNL     1      35.344   4.311  14.177  0.00  0.00    +0.000 A 
ATOM     10  C   UNL     1      36.261   4.099  15.194  0.00  0.00    +0.000 A 
BRANCH   4  11
ATOM     11  C   UNL     1      39.317   5.049  16.798  0.00  0.00    +0.000 C 
BRANCH  11  12
ATOM     12  C   UNL     1      39.098   6.014  17.891  0.00  0.00    +0.000 A 
ATOM     13  C   UNL     1      38.149   6.997  17.870  0.00  0.00    +0.000 A 
ATOM     14  C   UNL     1      37.979   7.886  18.903  0.00  0.00    +0.000 A 
ATOM     15  C   UNL     1      38.774   7.815  20.021  0.00  0.00    +0.000 A 
ATOM     16  C   UNL     1      39.734   6.822  20.045  0.00  0.00    +0.000 A 
ATOM     17  C   UNL     1      39.903   5.939  19.017  0.00  0.00    +0.000 A 
ENDBRANCH  11  12
ENDBRANCH   4  11
ENDBRANCH   1   2
BRANCH   1  18
ATOM     18  C   UNL     1      35.970   1.045  17.365  0.00  0.00    +0.000 C 
BRANCH  18  22
ATOM     19  C   UNL     1      37.016  -1.314  17.355  0.00  0.00    +0.000 C 
ATOM     20  C   UNL     1      36.924  -0.754  18.729  0.00  0.00    +0.000 C 
ATOM     21  C   UNL     1      35.531  -0.381  19.149  0.00  0.00    +0.000 C 
ATOM     22  N   UNL     1      34.911   0.300  18.009  0.00  0.00    +0.000 NA
ATOM     23  C   UNL     1      34.553  -0.781  17.085  0.00  0.00    +0.000 C 
ATOM     24  C   UNL     1      35.735  -1.577  16.669  0.00  0.00    +0.000 C 
BRANCH  19  27
ATOM     25  O   UNL     1      38.883  -2.893  16.127  0.00  0.00    +0.000 OA
ATOM     26  C   UNL     1      38.997  -1.646  15.923  0.00  0.00    +0.000 C 
ATOM     27  N   UNL     1      38.056  -0.761  16.533  0.00  0.00    +0.000 NA
BRANCH  26  28
ATOM     28  C   UNL     1      40.090  -1.218  15.071  0.00  0.00    +0.000 A 
ATOM     29  C   UNL     1      41.130  -2.060  14.711  0.00  0.00    +0.000 A 
ATOM     30  C   UNL     1      42.181  -1.710  13.921  0.00  0.00    +0.000 A 
ATOM     31  C   UNL     1      42.233  -0.433  13.432  0.00  0.00    +0.000 A 
ATOM     32  C   UNL     1      41.224   0.454  13.756  0.00  0.00    +0.000 A 
ATOM     33  C   UNL     1      40.170   0.066  14.562  0.00  0.00    +0.000 A 
ENDBRANCH  26  28
ENDBRANCH  19  27
ENDBRANCH  18  22
ENDBRANCH   1  18
TORSDOF 7
ENDMDL
MODEL 4
REMARK VINA RESULT:      -7.5      2.509      6.535
REMARK  Name = 
REMARK  7 active torsions:
REMARK  status: ('A' for Active; 'I' for Inactive)
REMARK    1  A    between atoms: C_2  and  C_28
REMARK    2  A    between atoms: N_3  and  C_4
REMARK    3  A    between atoms: N_7  and  C_8
REMARK    4  A    between atoms: C_8  and  C_9
REMARK    5  A    between atoms: C_9  and  C_10
REMARK    6  A    between atoms: N_12  and  C_13
REMARK    7  A    between atoms: C_13  and  C_14
REMARK                            x       y       z     vdW  Elec       q    Type
REMARK                         _______ _______ _______ _____ _____    ______ ____
ROOT
ATOM      1  C   UNL     1      35.621   1.270  16.189  0.00  0.00    +0.000 C 
ENDROOT
BRANCH   1   2
ATOM      2  C   UNL     1      36.673   2.233  15.767  0.00  0.00    +0.000 A 
ATOM      3  C   UNL     1      36.738   3.592  16.048  0.00  0.00    +0.000 A 
ATOM      4  N   UNL     1      37.837   4.100  15.517  0.00  0.00    +0.000 N 
ATOM      5  C   UNL     1      38.531   3.148  14.877  0.00  0.00    +0.000 A 
ATOM      6  C   UNL     1      39.717   3.194  14.176  0.00  0.00    +0.000 A 
ATOM      7  C   UNL     1      40.200   2.034  13.613  0.00  0.00    +0.000 A 
ATOM      8  C   UNL     1      39.480   0.869  13.770  0.00  0.00    +0.000 A 
ATOM      9  C   UNL     1      38.293   0.818  14.467  0.00  0.00    +0.000 A 
ATOM     10  C   UNL     1      37.813   1.989  15.031  0.00  0.00    +0.000 A 
BRANCH   4  11
ATOM     11  C   UNL     1      38.234   5.497  15.607  0.00  0.00    +0.000 C 
BRANCH  11  12
ATOM     12  C   UNL     1      39.098   5.738  16.778  0.00  0.00    +0.000 A 
ATOM     13  C   UNL     1      38.675   5.649  18.074  0.00  0.00    +0.000 A 
ATOM     14  C   UNL     1      39.506   5.890  19.142  0.00  0.00    +0.000 A 
ATOM     15  C   UNL     1      40.820   6.235  18.939  0.00  0.00    +0.000 A 
ATOM     16  C   UNL     1      41.249   6.325  17.629  0.00  0.00    +0.000 A 
ATOM     17  C   UNL     1      40.422   6.086  16.568  0.00  0.00    +0.000 A 
ENDBRANCH  11  12
ENDBRANCH   4  11
ENDBRANCH   1   2
BRANCH   1  18
ATOM     18  C   UNL     1      36.189   0.401  17.299  0.00  0.00    +0.000 C 
BRANCH  18  22
ATOM     19  C   UNL     1      36.813  -2.083  17.616  0.00  0.00    +0.000 C 
ATOM     20  C   UNL     1      36.906  -1.320  18.889  0.00  0.00    +0.000 C 
ATOM     21  C   UNL     1      35.627  -0.647  19.298  0.00  0.00    +0.000 C 
ATOM     22  N   UNL     1      35.061  -0.040  18.089  0.00  0.00    +0.000 NA
ATOM     23  C   UNL     1      34.465  -1.163  17.358  0.00  0.00    +0.000 C 
ATOM     24  C   UNL     1      35.465  -2.210  17.027  0.00  0.00    +0.000 C 
BRANCH  19  27
ATOM     25  O   UNL     1      37.468  -3.911  15.689  0.00  0.00    +0.000 OA
ATOM     26  C   UNL     1      38.164  -2.850  15.700  0.00  0.00    +0.000 C 
ATOM     27  N   UNL     1      37.878  -1.851  16.681  0.00  0.00    +0.000 NA
BRANCH  26  28
ATOM     28  C   UNL     1      39.209  -2.739  14.699  0.00  0.00    +0.000 A 
ATOM     29  C   UNL     1      40.537  -2.516  15.028  0.00  0.00    +0.000 A 
ATOM     30  C   UNL     1      41.553  -2.398  14.132  0.00  0.00    +0.000 A 
ATOM     31  C   UNL     1      41.264  -2.508  12.799  0.00  0.00    +0.000 A 
ATOM     32  C   UNL     1      39.958  -2.731  12.408  0.00  0.00    +0.000 A 
ATOM     33  C   UNL     1      38.947  -2.844  13.345  0.00  0.00    +0.000 A 
ENDBRANCH  26  28
ENDBRANCH  19  27
ENDBRANCH  18  22
ENDBRANCH   1  18
TORSDOF 7
ENDMDL
MODEL 5
REMARK VINA RESULT:      -7.5      2.298      6.788
REMARK  Name = 
REMARK  7 active torsions:
REMARK  status: ('A' for Active; 'I' for Inactive)
REMARK    1  A    between atoms: C_2  and  C_28
REMARK    2  A    between atoms: N_3  and  C_4
REMARK    3  A    between atoms: N_7  and  C_8
REMARK    4  A    between atoms: C_8  and  C_9
REMARK    5  A    between atoms: C_9  and  C_10
REMARK    6  A    between atoms: N_12  and  C_13
REMARK    7  A    between atoms: C_13  and  C_14
REMARK                            x       y       z     vdW  Elec       q    Type
REMARK                         _______ _______ _______ _____ _____    ______ ____
ROOT
ATOM      1  C   UNL     1      35.221   1.421  17.039  0.00  0.00    +0.000 C 
ENDROOT
BRANCH   1   2
ATOM      2  C   UNL     1      36.077   2.242  16.142  0.00  0.00    +0.000 A 
ATOM      3  C   UNL     1      36.639   3.485  16.410  0.00  0.00    +0.000 A 
ATOM      4  N   UNL     1      37.353   3.880  15.370  0.00  0.00    +0.000 N 
ATOM      5  C   UNL     1      37.305   2.964  14.393  0.00  0.00    +0.000 A 
ATOM      6  C   UNL     1      37.873   2.932  13.138  0.00  0.00    +0.000 A 
ATOM      7  C   UNL     1      37.645   1.839  12.333  0.00  0.00    +0.000 A 
ATOM      8  C   UNL     1      36.854   0.816  12.811  0.00  0.00    +0.000 A 
ATOM      9  C   UNL     1      36.281   0.843  14.063  0.00  0.00    +0.000 A 
ATOM     10  C   UNL     1      36.515   1.947  14.868  0.00  0.00    +0.000 A 
BRANCH   4  11
ATOM     11  C   UNL     1      38.083   5.136  15.294  0.00  0.00    +0.000 C 
BRANCH  11  12
ATOM     12  C   UNL     1      38.432   5.640  16.635  0.00  0.00    +0.000 A 
ATOM     13  C   UNL     1      39.183   4.950  17.544  0.00  0.00    +0.000 A 
ATOM     14  C   UNL     1      39.480   5.447  18.790  0.00  0.00    +0.000 A 
ATOM     15  C   UNL     1      39.023   6.684  19.173  0.00  0.00    +0.000 A 
ATOM     16  C   UNL     1      38.265   7.384  18.256  0.00  0.00    +0.000 A 
ATOM     17  C   UNL     1      37.969   6.889  17.017  0.00  0.00    +0.000 A 
ENDBRANCH  11  12
ENDBRANCH   4  11
ENDBRANCH   1   2
BRANCH   1  18
ATOM     18  C   UNL     1      36.114   0.435  17.775  0.00  0.00    +0.000 C 
BRANCH  18  22
ATOM     19  C   UNL     1      37.374  -1.781  17.371  0.00  0.00    +0.000 C 
ATOM     20  C   UNL     1      37.415  -1.371  18.800  0.00  0.00    +0.000 C 
ATOM     21  C   UNL     1      36.062  -1.199  19.429  0.00  0.00    +0.000 C 
ATOM     22  N   UNL     1      35.229  -0.484  18.458  0.00  0.00    +0.000 NA
ATOM     23  C   UNL     1      34.857  -1.502  17.471  0.00  0.00    +0.000 C 
ATOM     24  C   UNL     1      36.044  -2.117  16.825  0.00  0.00    +0.000 C 
BRANCH  19  27
ATOM     25  O   UNL     1      39.478  -2.954  16.073  0.00  0.00    +0.000 OA
ATOM     26  C   UNL     1      39.314  -1.716  15.849  0.00  0.00    +0.000 C 
ATOM     27  N   UNL     1      38.234  -1.038  16.494  0.00  0.00    +0.000 NA
BRANCH  26  28
ATOM     28  C   UNL     1      40.251  -1.083  14.940  0.00  0.00    +0.000 A 
ATOM     29  C   UNL     1      40.141   0.246  14.560  0.00  0.00    +0.000 A 
ATOM     30  C   UNL     1      40.988   0.886  13.709  0.00  0.00    +0.000 A 
ATOM     31  C   UNL     1      42.035   0.184  13.178  0.00  0.00    +0.000 A 
ATOM     32  C   UNL     1      42.198  -1.145  13.519  0.00  0.00    +0.000 A 
ATOM     33  C   UNL     1      41.319  -1.767  14.387  0.00  0.00    +0.000 A 
ENDBRANCH  26  28
ENDBRANCH  19  27
ENDBRANCH  18  22
ENDBRANCH   1  18
TORSDOF 7
ENDMDL
MODEL 6
REMARK VINA RESULT:      -7.4      1.727      5.827
REMARK  Name = 
REMARK  7 active torsions:
REMARK  status: ('A' for Active; 'I' for Inactive)
REMARK    1  A    between atoms: C_2  and  C_28
REMARK    2  A    between atoms: N_3  and  C_4
REMARK    3  A    between atoms: N_7  and  C_8
REMARK    4  A    between atoms: C_8  and  C_9
REMARK    5  A    between atoms: C_9  and  C_10
REMARK    6  A    between atoms: N_12  and  C_13
REMARK    7  A    between atoms: C_13  and  C_14
REMARK                            x       y       z     vdW  Elec       q    Type
REMARK                         _______ _______ _______ _____ _____    ______ ____
ROOT
ATOM      1  C   UNL     1      40.292  -3.061  15.386  0.00  0.00    +0.000 C 
ENDROOT
BRANCH   1   2
ATOM      2  C   UNL     1      40.493  -1.833  14.571  0.00  0.00    +0.000 A 
ATOM      3  C   UNL     1      39.526  -1.098  13.894  0.00  0.00    +0.000 A 
ATOM      4  N   UNL     1      40.094  -0.061  13.303  0.00  0.00    +0.000 N 
ATOM      5  C   UNL     1      41.413  -0.052  13.539  0.00  0.00    +0.000 A 
ATOM      6  C   UNL     1      42.411   0.810  13.136  0.00  0.00    +0.000 A 
ATOM      7  C   UNL     1      43.704   0.564  13.539  0.00  0.00    +0.000 A 
ATOM      8  C   UNL     1      43.955  -0.535  14.331  0.00  0.00    +0.000 A 
ATOM      9  C   UNL     1      42.964  -1.402  14.736  0.00  0.00    +0.000 A 
ATOM     10  C   UNL     1      41.665  -1.148  14.325  0.00  0.00    +0.000 A 
BRANCH   4  11
ATOM     11  C   UNL     1      39.388   0.927  12.502  0.00  0.00    +0.000 C 
BRANCH  11  12
ATOM     12  C   UNL     1      39.156   2.170  13.261  0.00  0.00    +0.000 A 
ATOM     13  C   UNL     1      39.207   2.259  14.623  0.00  0.00    +0.000 A 
ATOM     14  C   UNL     1      38.975   3.433  15.298  0.00  0.00    +0.000 A 
ATOM     15  C   UNL     1      38.678   4.585  14.611  0.00  0.00    +0.000 A 
ATOM     16  C   UNL     1      38.626   4.497  13.233  0.00  0.00    +0.000 A 
ATOM     17  C   UNL     1      38.857   3.329  12.563  0.00  0.00    +0.000 A 
ENDBRANCH  11  12
ENDBRANCH   4  11
ENDBRANCH   1   2
BRANCH   1  18
ATOM     18  C   UNL     1      39.233  -2.766  16.436  0.00  0.00    +0.000 C 
BRANCH  18  22
ATOM     19  C   UNL     1      36.884  -2.461  17.460  0.00  0.00    +0.000 C 
ATOM     20  C   UNL     1      36.945  -3.635  16.549  0.00  0.00    +0.000 C 
ATOM     21  C   UNL     1      37.976  -4.658  16.933  0.00  0.00    +0.000 C 
ATOM     22  N   UNL     1      39.188  -3.922  17.304  0.00  0.00    +0.000 NA
ATOM     23  C   UNL     1      38.910  -3.410  18.650  0.00  0.00    +0.000 C 
ATOM     24  C   UNL     1      37.709  -2.537  18.682  0.00  0.00    +0.000 C 
BRANCH  19  27
ATOM     25  O   UNL     1      34.538  -1.149  16.949  0.00  0.00    +0.000 OA
ATOM     26  C   UNL     1      35.594  -0.553  16.576  0.00  0.00    +0.000 C 
ATOM     27  N   UNL     1      36.856  -1.180  16.810  0.00  0.00    +0.000 NA
BRANCH  26  28
ATOM     28  C   UNL     1      35.428   0.737  15.933  0.00  0.00    +0.000 A 
ATOM     29  C   UNL     1      35.795   0.968  14.617  0.00  0.00    +0.000 A 
ATOM     30  C   UNL     1      35.666   2.156  13.968  0.00  0.00    +0.000 A 
ATOM     31  C   UNL     1      35.134   3.218  14.647  0.00  0.00    +0.000 A 
ATOM     32  C   UNL     1      34.748   3.050  15.964  0.00  0.00    +0.000 A 
ATOM     33  C   UNL     1      34.893   1.828  16.595  0.00  0.00    +0.000 A 
ENDBRANCH  26  28
ENDBRANCH  19  27
ENDBRANCH  18  22
ENDBRANCH   1  18
TORSDOF 7
ENDMDL
MODEL 7
REMARK VINA RESULT:      -7.3      3.133      6.098
REMARK  Name = 
REMARK  7 active torsions:
REMARK  status: ('A' for Active; 'I' for Inactive)
REMARK    1  A    between atoms: C_2  and  C_28
REMARK    2  A    between atoms: N_3  and  C_4
REMARK    3  A    between atoms: N_7  and  C_8
REMARK    4  A    between atoms: C_8  and  C_9
REMARK    5  A    between atoms: C_9  and  C_10
REMARK    6  A    between atoms: N_12  and  C_13
REMARK    7  A    between atoms: C_13  and  C_14
REMARK                            x       y       z     vdW  Elec       q    Type
REMARK                         _______ _______ _______ _____ _____    ______ ____
ROOT
ATOM      1  C   UNL     1      35.317   2.259  16.205  0.00  0.00    +0.000 C 
ENDROOT
BRANCH   1   2
ATOM      2  C   UNL     1      36.041   0.960  16.209  0.00  0.00    +0.000 A 
ATOM      3  C   UNL     1      36.601   0.299  15.122  0.00  0.00    +0.000 A 
ATOM      4  N   UNL     1      37.178  -0.817  15.534  0.00  0.00    +0.000 N 
ATOM      5  C   UNL     1      37.035  -0.956  16.859  0.00  0.00    +0.000 A 
ATOM      6  C   UNL     1      37.451  -1.943  17.727  0.00  0.00    +0.000 A 
ATOM      7  C   UNL     1      37.154  -1.819  19.066  0.00  0.00    +0.000 A 
ATOM      8  C   UNL     1      36.450  -0.713  19.490  0.00  0.00    +0.000 A 
ATOM      9  C   UNL     1      36.028   0.275  18.628  0.00  0.00    +0.000 A 
ATOM     10  C   UNL     1      36.331   0.143  17.282  0.00  0.00    +0.000 A 
BRANCH   4  11
ATOM     11  C   UNL     1      37.864  -1.765  14.670  0.00  0.00    +0.000 C 
BRANCH  11  12
ATOM     12  C   UNL     1      39.296  -1.437  14.541  0.00  0.00    +0.000 A 
ATOM     13  C   UNL     1      40.307  -2.346  14.683  0.00  0.00    +0.000 A 
ATOM     14  C   UNL     1      41.633  -2.003  14.564  0.00  0.00    +0.000 A 
ATOM     15  C   UNL     1      41.996  -0.707  14.293  0.00  0.00    +0.000 A 
ATOM     16  C   UNL     1      40.976   0.213  14.149  0.00  0.00    +0.000 A 
ATOM     17  C   UNL     1      39.658  -0.128  14.267  0.00  0.00    +0.000 A 
ENDBRANCH  11  12
ENDBRANCH   4  11
ENDBRANCH   1   2
BRANCH   1  18
ATOM     18  C   UNL     1      36.196   3.291  15.516  0.00  0.00    +0.000 C 
BRANCH  18  22
ATOM     19  C   UNL     1      37.816   5.083  14.610  0.00  0.00    +0.000 C 
ATOM     20  C   UNL     1      37.972   3.784  13.902  0.00  0.00    +0.000 C 
ATOM     21  C   UNL     1      36.715   3.285  13.249  0.00  0.00    +0.000 C 
ATOM     22  N   UNL     1      35.624   3.502  14.205  0.00  0.00    +0.000 NA
ATOM     23  C   UNL     1      35.335   4.937  14.113  0.00  0.00    +0.000 C 
ATOM     24  C   UNL     1      36.521   5.770  14.437  0.00  0.00    +0.000 C 
BRANCH  19  27
ATOM     25  O   UNL     1      39.693   6.943  15.320  0.00  0.00    +0.000 OA
ATOM     26  C   UNL     1      39.348   6.132  16.233  0.00  0.00    +0.000 C 
ATOM     27  N   UNL     1      38.372   5.133  15.933  0.00  0.00    +0.000 NA
BRANCH  26  28
ATOM     28  C   UNL     1      39.985   6.292  17.527  0.00  0.00    +0.000 A 
ATOM     29  C   UNL     1      39.262   6.419  18.703  0.00  0.00    +0.000 A 
ATOM     30  C   UNL     1      39.807   6.576  19.940  0.00  0.00    +0.000 A 
ATOM     31  C   UNL     1      41.170   6.611  20.054  0.00  0.00    +0.000 A 
ATOM     32  C   UNL     1      41.945   6.489  18.917  0.00  0.00    +0.000 A 
ATOM     33  C   UNL     1      41.360   6.332  17.674  0.00  0.00    +0.000 A 
ENDBRANCH  26  28
ENDBRANCH  19  27
ENDBRANCH  18  22
ENDBRANCH   1  18
TORSDOF 7
ENDMDL
MODEL 8
REMARK VINA RESULT:      -7.3      1.893      4.738
REMARK  Name = 
REMARK  7 active torsions:
REMARK  status: ('A' for Active; 'I' for Inactive)
REMARK    1  A    between atoms: C_2  and  C_28
REMARK    2  A    between atoms: N_3  and  C_4
REMARK    3  A    between atoms: N_7  and  C_8
REMARK    4  A    between atoms: C_8  and  C_9
REMARK    5  A    between atoms: C_9  and  C_10
REMARK    6  A    between atoms: N_12  and  C_13
REMARK    7  A    between atoms: C_13  and  C_14
REMARK                            x       y       z     vdW  Elec       q    Type
REMARK                         _______ _______ _______ _____ _____    ______ ____
ROOT
ATOM      1  C   UNL     1      37.786  -0.276  12.875  0.00  0.00    +0.000 C 
ENDROOT
BRANCH   1   2
ATOM      2  C   UNL     1      36.858  -0.278  14.037  0.00  0.00    +0.000 A 
ATOM      3  C   UNL     1      36.380  -1.380  14.737  0.00  0.00    +0.000 A 
ATOM      4  N   UNL     1      35.594  -0.972  15.719  0.00  0.00    +0.000 N 
ATOM      5  C   UNL     1      35.506   0.366  15.723  0.00  0.00    +0.000 A 
ATOM      6  C   UNL     1      34.812   1.236  16.536  0.00  0.00    +0.000 A 
ATOM      7  C   UNL     1      34.911   2.589  16.298  0.00  0.00    +0.000 A 
ATOM      8  C   UNL     1      35.700   3.024  15.255  0.00  0.00    +0.000 A 
ATOM      9  C   UNL     1      36.393   2.159  14.437  0.00  0.00    +0.000 A 
ATOM     10  C   UNL     1      36.289   0.799  14.682  0.00  0.00    +0.000 A 
BRANCH   4  11
ATOM     11  C   UNL     1      34.915  -1.850  16.658  0.00  0.00    +0.000 C 
BRANCH  11  12
ATOM     12  C   UNL     1      34.898  -3.244  16.178  0.00  0.00    +0.000 A 
ATOM     13  C   UNL     1      35.886  -4.155  16.429  0.00  0.00    +0.000 A 
ATOM     14  C   UNL     1      35.842  -5.444  15.957  0.00  0.00    +0.000 A 
ATOM     15  C   UNL     1      34.779  -5.873  15.200  0.00  0.00    +0.000 A 
ATOM     16  C   UNL     1      33.779  -4.955  14.946  0.00  0.00    +0.000 A 
ATOM     17  C   UNL     1      33.824  -3.673  15.415  0.00  0.00    +0.000 A 
ENDBRANCH  11  12
ENDBRANCH   4  11
ENDBRANCH   1   2
BRANCH   1  18
ATOM     18  C   UNL     1      39.211  -0.285  13.406  0.00  0.00    +0.000 C 
BRANCH  18  22
ATOM     19  C   UNL     1      40.444  -2.312  14.423  0.00  0.00    +0.000 C 
ATOM     20  C   UNL     1      39.510  -2.717  13.338  0.00  0.00    +0.000 C 
ATOM     21  C   UNL     1      39.783  -2.060  12.016  0.00  0.00    +0.000 C 
ATOM     22  N   UNL     1      40.059  -0.647  12.291  0.00  0.00    +0.000 NA
ATOM     23  C   UNL     1      41.433  -0.633  12.802  0.00  0.00    +0.000 C 
ATOM     24  C   UNL     1      41.587  -1.468  14.021  0.00  0.00    +0.000 C 
BRANCH  19  27
ATOM     25  O   UNL     1      39.619  -4.210  16.213  0.00  0.00    +0.000 OA
ATOM     26  C   UNL     1      39.418  -3.005  16.556  0.00  0.00    +0.000 C 
ATOM     27  N   UNL     1      39.823  -1.961  15.669  0.00  0.00    +0.000 NA
BRANCH  26  28
ATOM     28  C   UNL     1      38.783  -2.786  17.843  0.00  0.00    +0.000 A 
ATOM     29  C   UNL     1      38.843  -3.714  18.871  0.00  0.00    +0.000 A 
ATOM     30  C   UNL     1      38.263  -3.562  20.092  0.00  0.00    +0.000 A 
ATOM     31  C   UNL     1      37.565  -2.413  20.346  0.00  0.00    +0.000 A 
ATOM     32  C   UNL     1      37.471  -1.450  19.360  0.00  0.00    +0.000 A 
ATOM     33  C   UNL     1      38.071  -1.635  18.128  0.00  0.00    +0.000 A 
ENDBRANCH  26  28
ENDBRANCH  19  27
ENDBRANCH  18  22
ENDBRANCH   1  18
TORSDOF 7
ENDMDL
MODEL 9
REMARK VINA RESULT:      -7.2      2.411      6.479
REMARK  Name = 
REMARK  7 active torsions:
REMARK  status: ('A' for Active; 'I' for Inactive)
REMARK    1  A    between atoms: C_2  and  C_28
REMARK    2  A    between atoms: N_3  and  C_4
REMARK    3  A    between atoms: N_7  and  C_8
REMARK    4  A    between atoms: C_8  and  C_9
REMARK    5  A    between atoms: C_9  and  C_10
REMARK    6  A    between atoms: N_12  and  C_13
REMARK    7  A    between atoms: C_13  and  C_14
REMARK                            x       y       z     vdW  Elec       q    Type
REMARK                         _______ _______ _______ _____ _____    ______ ____
ROOT
ATOM      1  C   UNL     1      39.895  -2.915  15.464  0.00  0.00    +0.000 C 
ENDROOT
BRANCH   1   2
ATOM      2  C   UNL     1      38.528  -2.464  15.838  0.00  0.00    +0.000 A 
ATOM      3  C   UNL     1      38.177  -1.313  16.534  0.00  0.00    +0.000 A 
ATOM      4  N   UNL     1      36.861  -1.253  16.651  0.00  0.00    +0.000 N 
ATOM      5  C   UNL     1      36.290  -2.317  16.069  0.00  0.00    +0.000 A 
ATOM      6  C   UNL     1      34.970  -2.693  15.941  0.00  0.00    +0.000 A 
ATOM      7  C   UNL     1      34.674  -3.863  15.279  0.00  0.00    +0.000 A 
ATOM      8  C   UNL     1      35.709  -4.617  14.768  0.00  0.00    +0.000 A 
ATOM      9  C   UNL     1      37.030  -4.248  14.895  0.00  0.00    +0.000 A 
ATOM     10  C   UNL     1      37.320  -3.070  15.563  0.00  0.00    +0.000 A 
BRANCH   4  11
ATOM     11  C   UNL     1      36.135  -0.187  17.324  0.00  0.00    +0.000 C 
BRANCH  11  12
ATOM     12  C   UNL     1      35.737   0.874  16.380  0.00  0.00    +0.000 A 
ATOM     13  C   UNL     1      35.011   1.978  16.727  0.00  0.00    +0.000 A 
ATOM     14  C   UNL     1      34.649   2.943  15.818  0.00  0.00    +0.000 A 
ATOM     15  C   UNL     1      35.015   2.829  14.499  0.00  0.00    +0.000 A 
ATOM     16  C   UNL     1      35.749   1.714  14.146  0.00  0.00    +0.000 A 
ATOM     17  C   UNL     1      36.108   0.755  15.050  0.00  0.00    +0.000 A 
ENDBRANCH  11  12
ENDBRANCH   4  11
ENDBRANCH   1   2
BRANCH   1  18
ATOM     18  C   UNL     1      40.400  -2.021  14.342  0.00  0.00    +0.000 C 
BRANCH  18  22
ATOM     19  C   UNL     1      40.343  -0.361  12.367  0.00  0.00    +0.000 C 
ATOM     20  C   UNL     1      41.729  -0.786  12.696  0.00  0.00    +0.000 C 
ATOM     21  C   UNL     1      41.951  -2.269  12.627  0.00  0.00    +0.000 C 
ATOM     22  N   UNL     1      40.792  -2.902  13.265  0.00  0.00    +0.000 NA
ATOM     23  C   UNL     1      39.728  -2.818  12.260  0.00  0.00    +0.000 C 
ATOM     24  C   UNL     1      39.437  -1.415  11.867  0.00  0.00    +0.000 C 
BRANCH  19  27
ATOM     25  O   UNL     1      40.039   2.281  11.725  0.00  0.00    +0.000 OA
ATOM     26  C   UNL     1      39.628   1.944  12.877  0.00  0.00    +0.000 C 
ATOM     27  N   UNL     1      39.755   0.579  13.280  0.00  0.00    +0.000 NA
BRANCH  26  28
ATOM     28  C   UNL     1      39.051   2.990  13.701  0.00  0.00    +0.000 A 
ATOM     29  C   UNL     1      38.431   4.106  13.163  0.00  0.00    +0.000 A 
ATOM     30  C   UNL     1      37.879   5.117  13.887  0.00  0.00    +0.000 A 
ATOM     31  C   UNL     1      37.929   5.045  15.253  0.00  0.00    +0.000 A 
ATOM     32  C   UNL     1      38.535   3.956  15.849  0.00  0.00    +0.000 A 
ATOM     33  C   UNL     1      39.087   2.945  15.083  0.00  0.00    +0.000 A 
ENDBRANCH  26  28
ENDBRANCH  19  27
ENDBRANCH  18  22
ENDBRANCH   1  18
TORSDOF 7
ENDMDL
MODEL 10
REMARK VINA RESULT:      -7.1      2.350      6.681
REMARK  Name = 
REMARK  7 active torsions:
REMARK  status: ('A' for Active; 'I' for Inactive)
REMARK    1  A    between atoms: C_2  and  C_28
REMARK    2  A    between atoms: N_3  and  C_4
REMARK    3  A    between atoms: N_7  and  C_8
REMARK    4  A    between atoms: C_8  and  C_9
REMARK    5  A    between atoms: C_9  and  C_10
REMARK    6  A    between atoms: N_12  and  C_13
REMARK    7  A    between atoms: C_13  and  C_14
REMARK                            x       y       z     vdW  Elec       q    Type
REMARK                         _______ _______ _______ _____ _____    ______ ____
ROOT
ATOM      1  C   UNL     1      35.173   0.705  16.535  0.00  0.00    +0.000 C 
ENDROOT
BRANCH   1   2
ATOM      2  C   UNL     1      35.881   1.587  15.570  0.00  0.00    +0.000 A 
ATOM      3  C   UNL     1      36.061   2.962  15.653  0.00  0.00    +0.000 A 
ATOM      4  N   UNL     1      36.762   3.380  14.613  0.00  0.00    +0.000 N 
ATOM      5  C   UNL     1      37.069   2.350  13.812  0.00  0.00    +0.000 A 
ATOM      6  C   UNL     1      37.768   2.289  12.625  0.00  0.00    +0.000 A 
ATOM      7  C   UNL     1      37.929   1.067  12.011  0.00  0.00    +0.000 A 
ATOM      8  C   UNL     1      37.386  -0.051  12.606  0.00  0.00    +0.000 A 
ATOM      9  C   UNL     1      36.684   0.003  13.790  0.00  0.00    +0.000 A 
ATOM     10  C   UNL     1      36.525   1.237  14.401  0.00  0.00    +0.000 A 
BRANCH   4  11
ATOM     11  C   UNL     1      37.140   4.763  14.368  0.00  0.00    +0.000 C 
BRANCH  11  12
ATOM     12  C   UNL     1      36.112   5.472  13.583  0.00  0.00    +0.000 A 
ATOM     13  C   UNL     1      36.197   5.706  12.240  0.00  0.00    +0.000 A 
ATOM     14  C   UNL     1      35.224   6.379  11.542  0.00  0.00    +0.000 A 
ATOM     15  C   UNL     1      34.106   6.851  12.186  0.00  0.00    +0.000 A 
ATOM     16  C   UNL     1      34.018   6.616  13.544  0.00  0.00    +0.000 A 
ATOM     17  C   UNL     1      34.986   5.946  14.237  0.00  0.00    +0.000 A 
ENDBRANCH  11  12
ENDBRANCH   4  11
ENDBRANCH   1   2
BRANCH   1  18
ATOM     18  C   UNL     1      36.216  -0.033  17.358  0.00  0.00    +0.000 C 
BRANCH  18  22
ATOM     19  C   UNL     1      37.852  -2.029  17.374  0.00  0.00    +0.000 C 
ATOM     20  C   UNL     1      37.788  -1.353  18.697  0.00  0.00    +0.000 C 
ATOM     21  C   UNL     1      36.412  -1.303  19.296  0.00  0.00    +0.000 C 
ATOM     22  N   UNL     1      35.490  -0.944  18.215  0.00  0.00    +0.000 NA
ATOM     23  C   UNL     1      35.323  -2.182  17.446  0.00  0.00    +0.000 C 
ATOM     24  C   UNL     1      36.614  -2.691  16.918  0.00  0.00    +0.000 C 
BRANCH  19  27
ATOM     25  O   UNL     1      39.976  -3.171  16.081  0.00  0.00    +0.000 OA
ATOM     26  C   UNL     1      39.687  -1.987  15.727  0.00  0.00    +0.000 C 
ATOM     27  N   UNL     1      38.589  -1.328  16.361  0.00  0.00    +0.000 NA
BRANCH  26  28
ATOM     28  C   UNL     1      40.510  -1.393  14.689  0.00  0.00    +0.000 A 
ATOM     29  C   UNL     1      40.562  -0.026  14.470  0.00  0.00    +0.000 A 
ATOM     30  C   UNL     1      41.311   0.582  13.510  0.00  0.00    +0.000 A 
ATOM     31  C   UNL     1      42.080  -0.197  12.690  0.00  0.00    +0.000 A 
ATOM     32  C   UNL     1      42.070  -1.569  12.860  0.00  0.00    +0.000 A 
ATOM     33  C   UNL     1      41.297  -2.156  13.845  0.00  0.00    +0.000 A 
ENDBRANCH  26  28
ENDBRANCH  19  27
ENDBRANCH  18  22
ENDBRANCH   1  18
TORSDOF 7
ENDMDL
