MODEL 1
REMARK VINA RESULT:      -6.6      0.000      0.000
REMARK  Name = 
REMARK  3 active torsions:
REMARK  status: ('A' for Active; 'I' for Inactive)
REMARK    1  A    between atoms: C_4  and  N_5
REMARK    2  A    between atoms: N_5  and  N_6
REMARK    3  A    between atoms: C_7  and  C_9
REMARK                            x       y       z     vdW  Elec       q    Type
REMARK                         _______ _______ _______ _____ _____    ______ ____
ROOT
ATOM      1  N   UNL     1      31.370  21.853   8.977  0.00  0.00    +0.000 NA
ENDROOT
BRANCH   1   5
ATOM      2  C   UNL     1      33.295  21.141  11.596  0.00  0.00    +0.000 C 
ATOM      3  C   UNL     1      34.088  20.073  10.655  0.00  0.00    +0.000 C 
ATOM      4  C   UNL     1      33.285  20.336   9.269  0.00  0.00    +0.000 C 
ATOM      5  C   UNL     1      32.723  21.668   9.228  0.00  0.00    +0.000 C 
ATOM      6  C   UNL     1      33.564  22.666   9.438  0.00  0.00    +0.000 C 
ATOM      7  C   UNL     1      34.948  22.298   9.683  0.00  0.00    +0.000 C 
ATOM      8  C   UNL     1      35.660  22.390   8.315  0.00  0.00    +0.000 C 
ATOM      9  C   UNL     1      35.576  23.454  10.476  0.00  0.00    +0.000 C 
ATOM     10  C   UNL     1      35.315  21.062  10.302  0.00  0.00    +0.000 C 
ENDBRANCH   1   5
BRANCH   1  11
ATOM     11  N   UNL     1      30.428  22.503   9.769  0.00  0.00    +0.000 NA
ATOM     12  C   UNL     1      29.661  21.741  10.692  0.00  0.00    +0.000 C 
ATOM     13  O   UNL     1      29.893  20.499  10.737  0.00  0.00    +0.000 OA
BRANCH  12  14
ATOM     14  C   UNL     1      28.635  22.341  11.569  0.00  0.00    +0.000 A 
ATOM     15  C   UNL     1      27.299  22.326  11.254  0.00  0.00    +0.000 A 
ATOM     16  C   UNL     1      26.371  22.889  12.096  0.00  0.00    +0.000 A 
ATOM     17  C   UNL     1      26.740  23.494  13.287  0.00  0.00    +0.000 A 
ATOM     18  C   UNL     1      28.088  23.496  13.578  0.00  0.00    +0.000 A 
ATOM     19  C   UNL     1      29.027  22.935  12.746  0.00  0.00    +0.000 A 
ATOM     20  O   UNL     1      30.394  22.936  13.035  0.00  0.00    +0.000 OA
ENDBRANCH  12  14
ENDBRANCH   1  11
TORSDOF 3
ENDMDL
MODEL 2
REMARK VINA RESULT:      -6.2      1.365      2.249
REMARK  Name = 
REMARK  3 active torsions:
REMARK  status: ('A' for Active; 'I' for Inactive)
REMARK    1  A    between atoms: C_4  and  N_5
REMARK    2  A    between atoms: N_5  and  N_6
REMARK    3  A    between atoms: C_7  and  C_9
REMARK                            x       y       z     vdW  Elec       q    Type
REMARK                         _______ _______ _______ _____ _____    ______ ____
ROOT
ATOM      1  N   UNL     1      32.746  22.066  11.544  0.00  0.00    +0.000 NA
ENDROOT
BRANCH   1   5
ATOM      2  C   UNL     1      33.698  19.818   9.283  0.00  0.00    +0.000 C 
ATOM      3  C   UNL     1      33.507  20.965   8.141  0.00  0.00    +0.000 C 
ATOM      4  C   UNL     1      33.079  22.195   9.110  0.00  0.00    +0.000 C 
ATOM      5  C   UNL     1      33.597  22.019  10.448  0.00  0.00    +0.000 C 
ATOM      6  C   UNL     1      34.900  21.819  10.551  0.00  0.00    +0.000 C 
ATOM      7  C   UNL     1      35.646  21.802   9.306  0.00  0.00    +0.000 C 
ATOM      8  C   UNL     1      36.191  23.236   9.118  0.00  0.00    +0.000 C 
ATOM      9  C   UNL     1      36.918  20.982   9.567  0.00  0.00    +0.000 C 
ATOM     10  C   UNL     1      35.068  21.373   8.070  0.00  0.00    +0.000 C 
ENDBRANCH   1   5
BRANCH   1  11
ATOM     11  N   UNL     1      31.517  22.711  11.654  0.00  0.00    +0.000 NA
ATOM     12  C   UNL     1      30.536  22.181  12.535  0.00  0.00    +0.000 C 
ATOM     13  O   UNL     1      30.852  21.139  13.179  0.00  0.00    +0.000 OA
BRANCH  12  14
ATOM     14  C   UNL     1      29.204  22.793  12.713  0.00  0.00    +0.000 A 
ATOM     15  C   UNL     1      28.911  23.620  13.769  0.00  0.00    +0.000 A 
ATOM     16  C   UNL     1      27.662  24.177  13.901  0.00  0.00    +0.000 A 
ATOM     17  C   UNL     1      26.653  23.929  12.985  0.00  0.00    +0.000 A 
ATOM     18  C   UNL     1      26.974  23.094  11.935  0.00  0.00    +0.000 A 
ATOM     19  C   UNL     1      28.220  22.531  11.789  0.00  0.00    +0.000 A 
ATOM     20  O   UNL     1      28.551  21.684  10.728  0.00  0.00    +0.000 OA
ENDBRANCH  12  14
ENDBRANCH   1  11
TORSDOF 3
ENDMDL
MODEL 3
REMARK VINA RESULT:      -6.1     32.503     33.753
REMARK  Name = 
REMARK  3 active torsions:
REMARK  status: ('A' for Active; 'I' for Inactive)
REMARK    1  A    between atoms: C_4  and  N_5
REMARK    2  A    between atoms: N_5  and  N_6
REMARK    3  A    between atoms: C_7  and  C_9
REMARK                            x       y       z     vdW  Elec       q    Type
REMARK                         _______ _______ _______ _____ _____    ______ ____
ROOT
ATOM      1  N   UNL     1      33.544  -4.204  33.344  0.00  0.00    +0.000 NA
ENDROOT
BRANCH   1   5
ATOM      2  C   UNL     1      35.951  -5.974  31.880  0.00  0.00    +0.000 C 
ATOM      3  C   UNL     1      35.114  -7.322  32.254  0.00  0.00    +0.000 C 
ATOM      4  C   UNL     1      33.830  -6.617  32.954  0.00  0.00    +0.000 C 
ATOM      5  C   UNL     1      33.632  -5.272  32.461  0.00  0.00    +0.000 C 
ATOM      6  C   UNL     1      33.539  -5.136  31.149  0.00  0.00    +0.000 C 
ATOM      7  C   UNL     1      33.649  -6.356  30.368  0.00  0.00    +0.000 C 
ATOM      8  C   UNL     1      32.200  -6.829  30.114  0.00  0.00    +0.000 C 
ATOM      9  C   UNL     1      34.126  -5.940  28.969  0.00  0.00    +0.000 C 
ATOM     10  C   UNL     1      34.421  -7.479  30.804  0.00  0.00    +0.000 C 
ENDBRANCH   1   5
BRANCH   1  11
ATOM     11  N   UNL     1      33.391  -2.853  33.049  0.00  0.00    +0.000 NA
ATOM     12  C   UNL     1      33.933  -1.887  33.940  0.00  0.00    +0.000 C 
ATOM     13  O   UNL     1      34.536  -2.329  34.961  0.00  0.00    +0.000 OA
BRANCH  12  14
ATOM     14  C   UNL     1      33.816  -0.433  33.714  0.00  0.00    +0.000 A 
ATOM     15  C   UNL     1      34.382   0.191  32.629  0.00  0.00    +0.000 A 
ATOM     16  C   UNL     1      34.249   1.545  32.447  0.00  0.00    +0.000 A 
ATOM     17  C   UNL     1      33.546   2.336  33.342  0.00  0.00    +0.000 A 
ATOM     18  C   UNL     1      32.989   1.684  34.423  0.00  0.00    +0.000 A 
ATOM     19  C   UNL     1      33.113   0.329  34.617  0.00  0.00    +0.000 A 
ATOM     20  O   UNL     1      32.551  -0.335  35.711  0.00  0.00    +0.000 OA
ENDBRANCH  12  14
ENDBRANCH   1  11
TORSDOF 3
ENDMDL
MODEL 4
REMARK VINA RESULT:      -6.0     33.520     34.774
REMARK  Name = 
REMARK  3 active torsions:
REMARK  status: ('A' for Active; 'I' for Inactive)
REMARK    1  A    between atoms: C_4  and  N_5
REMARK    2  A    between atoms: N_5  and  N_6
REMARK    3  A    between atoms: C_7  and  C_9
REMARK                            x       y       z     vdW  Elec       q    Type
REMARK                         _______ _______ _______ _____ _____    ______ ____
ROOT
ATOM      1  N   UNL     1      33.364  -6.243  32.521  0.00  0.00    +0.000 NA
ENDROOT
BRANCH   1   5
ATOM      2  C   UNL     1      32.718  -5.858  29.279  0.00  0.00    +0.000 C 
ATOM      3  C   UNL     1      34.320  -5.683  29.036  0.00  0.00    +0.000 C 
ATOM      4  C   UNL     1      34.818  -5.904  30.565  0.00  0.00    +0.000 C 
ATOM      5  C   UNL     1      33.877  -6.705  31.316  0.00  0.00    +0.000 C 
ATOM      6  C   UNL     1      33.554  -7.875  30.792  0.00  0.00    +0.000 C 
ATOM      7  C   UNL     1      34.185  -8.208  29.527  0.00  0.00    +0.000 C 
ATOM      8  C   UNL     1      35.427  -9.055  29.882  0.00  0.00    +0.000 C 
ATOM      9  C   UNL     1      33.265  -9.221  28.830  0.00  0.00    +0.000 C 
ATOM     10  C   UNL     1      34.574  -7.210  28.578  0.00  0.00    +0.000 C 
ENDBRANCH   1   5
BRANCH   1  11
ATOM     11  N   UNL     1      32.934  -4.958  32.837  0.00  0.00    +0.000 NA
ATOM     12  C   UNL     1      33.721  -4.164  33.714  0.00  0.00    +0.000 C 
ATOM     13  O   UNL     1      34.786  -4.687  34.154  0.00  0.00    +0.000 OA
BRANCH  12  14
ATOM     14  C   UNL     1      33.343  -2.793  34.112  0.00  0.00    +0.000 A 
ATOM     15  C   UNL     1      33.784  -1.683  33.433  0.00  0.00    +0.000 A 
ATOM     16  C   UNL     1      33.408  -0.422  33.828  0.00  0.00    +0.000 A 
ATOM     17  C   UNL     1      32.577  -0.217  34.918  0.00  0.00    +0.000 A 
ATOM     18  C   UNL     1      32.151  -1.348  35.582  0.00  0.00    +0.000 A 
ATOM     19  C   UNL     1      32.518  -2.616  35.197  0.00  0.00    +0.000 A 
ATOM     20  O   UNL     1      32.090  -3.765  35.867  0.00  0.00    +0.000 OA
ENDBRANCH  12  14
ENDBRANCH   1  11
TORSDOF 3
ENDMDL
MODEL 5
REMARK VINA RESULT:      -5.8     32.818     33.756
REMARK  Name = 
REMARK  3 active torsions:
REMARK  status: ('A' for Active; 'I' for Inactive)
REMARK    1  A    between atoms: C_4  and  N_5
REMARK    2  A    between atoms: N_5  and  N_6
REMARK    3  A    between atoms: C_7  and  C_9
REMARK                            x       y       z     vdW  Elec       q    Type
REMARK                         _______ _______ _______ _____ _____    ______ ____
ROOT
ATOM      1  N   UNL     1      24.202  -6.541  24.305  0.00  0.00    +0.000 NA
ENDROOT
BRANCH   1   5
ATOM      2  C   UNL     1      24.426  -9.859  24.181  0.00  0.00    +0.000 C 
ATOM      3  C   UNL     1      24.283  -9.754  22.561  0.00  0.00    +0.000 C 
ATOM      4  C   UNL     1      24.214  -8.137  22.433  0.00  0.00    +0.000 C 
ATOM      5  C   UNL     1      24.873  -7.490  23.546  0.00  0.00    +0.000 C 
ATOM      6  C   UNL     1      26.122  -7.854  23.779  0.00  0.00    +0.000 C 
ATOM      7  C   UNL     1      26.676  -8.858  22.888  0.00  0.00    +0.000 C 
ATOM      8  C   UNL     1      27.431  -8.079  21.788  0.00  0.00    +0.000 C 
ATOM      9  C   UNL     1      27.808  -9.552  23.658  0.00  0.00    +0.000 C 
ATOM     10  C   UNL     1      25.866  -9.856  22.260  0.00  0.00    +0.000 C 
ENDBRANCH   1   5
BRANCH   1  11
ATOM     11  N   UNL     1      23.078  -6.717  25.107  0.00  0.00    +0.000 NA
ATOM     12  C   UNL     1      21.825  -6.220  24.657  0.00  0.00    +0.000 C 
ATOM     13  O   UNL     1      21.812  -5.643  23.531  0.00  0.00    +0.000 OA
BRANCH  12  14
ATOM     14  C   UNL     1      20.581  -6.354  25.441  0.00  0.00    +0.000 A 
ATOM     15  C   UNL     1      19.900  -5.267  25.931  0.00  0.00    +0.000 A 
ATOM     16  C   UNL     1      18.742  -5.428  26.652  0.00  0.00    +0.000 A 
ATOM     17  C   UNL     1      18.217  -6.683  26.916  0.00  0.00    +0.000 A 
ATOM     18  C   UNL     1      18.921  -7.757  26.414  0.00  0.00    +0.000 A 
ATOM     19  C   UNL     1      20.080  -7.610  25.689  0.00  0.00    +0.000 A 
ATOM     20  O   UNL     1      20.798  -8.695  25.179  0.00  0.00    +0.000 OA
ENDBRANCH  12  14
ENDBRANCH   1  11
TORSDOF 3
ENDMDL
MODEL 6
REMARK VINA RESULT:      -5.8     31.640     34.529
REMARK  Name = 
REMARK  3 active torsions:
REMARK  status: ('A' for Active; 'I' for Inactive)
REMARK    1  A    between atoms: C_4  and  N_5
REMARK    2  A    between atoms: N_5  and  N_6
REMARK    3  A    between atoms: C_7  and  C_9
REMARK                            x       y       z     vdW  Elec       q    Type
REMARK                         _______ _______ _______ _____ _____    ______ ____
ROOT
ATOM      1  N   UNL     1      18.656   8.623  39.759  0.00  0.00    +0.000 NA
ENDROOT
BRANCH   1   5
ATOM      2  C   UNL     1      15.561   9.217  40.828  0.00  0.00    +0.000 C 
ATOM      3  C   UNL     1      15.562   7.727  41.490  0.00  0.00    +0.000 C 
ATOM      4  C   UNL     1      17.076   7.293  41.096  0.00  0.00    +0.000 C 
ATOM      5  C   UNL     1      17.930   8.448  40.929  0.00  0.00    +0.000 C 
ATOM      6  C   UNL     1      17.972   9.297  41.942  0.00  0.00    +0.000 C 
ATOM      7  C   UNL     1      17.153   8.963  43.094  0.00  0.00    +0.000 C 
ATOM      8  C   UNL     1      18.087   8.221  44.077  0.00  0.00    +0.000 C 
ATOM      9  C   UNL     1      16.863  10.282  43.824  0.00  0.00    +0.000 C 
ATOM     10  C   UNL     1      15.935   8.221  42.981  0.00  0.00    +0.000 C 
ENDBRANCH   1   5
BRANCH   1  11
ATOM     11  N   UNL     1      18.177   8.732  38.457  0.00  0.00    +0.000 NA
ATOM     12  C   UNL     1      18.139  10.013  37.840  0.00  0.00    +0.000 C 
ATOM     13  O   UNL     1      18.556  10.988  38.529  0.00  0.00    +0.000 OA
BRANCH  12  14
ATOM     14  C   UNL     1      17.644  10.227  36.466  0.00  0.00    +0.000 A 
ATOM     15  C   UNL     1      18.295   9.730  35.364  0.00  0.00    +0.000 A 
ATOM     16  C   UNL     1      17.803   9.944  34.100  0.00  0.00    +0.000 A 
ATOM     17  C   UNL     1      16.639  10.665  33.883  0.00  0.00    +0.000 A 
ATOM     18  C   UNL     1      16.006  11.153  35.007  0.00  0.00    +0.000 A 
ATOM     19  C   UNL     1      16.486  10.945  36.278  0.00  0.00    +0.000 A 
ATOM     20  O   UNL     1      15.849  11.438  37.420  0.00  0.00    +0.000 OA
ENDBRANCH  12  14
ENDBRANCH   1  11
TORSDOF 3
ENDMDL
MODEL 7
REMARK VINA RESULT:      -5.8     33.392     34.859
REMARK  Name = 
REMARK  3 active torsions:
REMARK  status: ('A' for Active; 'I' for Inactive)
REMARK    1  A    between atoms: C_4  and  N_5
REMARK    2  A    between atoms: N_5  and  N_6
REMARK    3  A    between atoms: C_7  and  C_9
REMARK                            x       y       z     vdW  Elec       q    Type
REMARK                         _______ _______ _______ _____ _____    ______ ____
ROOT
ATOM      1  N   UNL     1      32.863  -4.088  33.978  0.00  0.00    +0.000 NA
ENDROOT
BRANCH   1   5
ATOM      2  C   UNL     1      33.914  -0.975  33.455  0.00  0.00    +0.000 C 
ATOM      3  C   UNL     1      32.772  -0.471  34.502  0.00  0.00    +0.000 C 
ATOM      4  C   UNL     1      32.171  -1.921  34.915  0.00  0.00    +0.000 C 
ATOM      5  C   UNL     1      33.154  -2.968  34.745  0.00  0.00    +0.000 C 
ATOM      6  C   UNL     1      34.313  -2.789  35.355  0.00  0.00    +0.000 C 
ATOM      7  C   UNL     1      34.453  -1.562  36.119  0.00  0.00    +0.000 C 
ATOM      8  C   UNL     1      34.091  -1.926  37.576  0.00  0.00    +0.000 C 
ATOM      9  C   UNL     1      35.958  -1.265  36.203  0.00  0.00    +0.000 C 
ATOM     10  C   UNL     1      33.764  -0.358  35.770  0.00  0.00    +0.000 C 
ENDBRANCH   1   5
BRANCH   1  11
ATOM     11  N   UNL     1      33.437  -4.480  32.772  0.00  0.00    +0.000 NA
ATOM     12  C   UNL     1      32.863  -5.565  32.055  0.00  0.00    +0.000 C 
ATOM     13  O   UNL     1      31.845  -6.112  32.570  0.00  0.00    +0.000 OA
BRANCH  12  14
ATOM     14  C   UNL     1      33.404  -6.054  30.772  0.00  0.00    +0.000 A 
ATOM     15  C   UNL     1      33.017  -5.530  29.563  0.00  0.00    +0.000 A 
ATOM     16  C   UNL     1      33.545  -6.006  28.388  0.00  0.00    +0.000 A 
ATOM     17  C   UNL     1      34.482  -7.027  28.371  0.00  0.00    +0.000 A 
ATOM     18  C   UNL     1      34.853  -7.535  29.598  0.00  0.00    +0.000 A 
ATOM     19  C   UNL     1      34.333  -7.068  30.782  0.00  0.00    +0.000 A 
ATOM     20  O   UNL     1      34.705  -7.580  32.028  0.00  0.00    +0.000 OA
ENDBRANCH  12  14
ENDBRANCH   1  11
TORSDOF 3
ENDMDL
MODEL 8
REMARK VINA RESULT:      -5.8      9.011     11.347
REMARK  Name = 
REMARK  3 active torsions:
REMARK  status: ('A' for Active; 'I' for Inactive)
REMARK    1  A    between atoms: C_4  and  N_5
REMARK    2  A    between atoms: N_5  and  N_6
REMARK    3  A    between atoms: C_7  and  C_9
REMARK                            x       y       z     vdW  Elec       q    Type
REMARK                         _______ _______ _______ _____ _____    ______ ____
ROOT
ATOM      1  N   UNL     1      30.013  26.294  19.407  0.00  0.00    +0.000 NA
ENDROOT
BRANCH   1   5
ATOM      2  C   UNL     1      30.814  29.516  19.198  0.00  0.00    +0.000 C 
ATOM      3  C   UNL     1      31.838  29.128  17.991  0.00  0.00    +0.000 C 
ATOM      4  C   UNL     1      31.527  27.537  17.918  0.00  0.00    +0.000 C 
ATOM      5  C   UNL     1      30.199  27.236  18.404  0.00  0.00    +0.000 C 
ATOM      6  C   UNL     1      29.204  27.899  17.840  0.00  0.00    +0.000 C 
ATOM      7  C   UNL     1      29.571  28.847  16.803  0.00  0.00    +0.000 C 
ATOM      8  C   UNL     1      29.420  28.091  15.464  0.00  0.00    +0.000 C 
ATOM      9  C   UNL     1      28.443  29.887  16.739  0.00  0.00    +0.000 C 
ATOM     10  C   UNL     1      30.828  29.529  16.798  0.00  0.00    +0.000 C 
ENDBRANCH   1   5
BRANCH   1  11
ATOM     11  N   UNL     1      29.209  26.388  20.539  0.00  0.00    +0.000 NA
ATOM     12  C   UNL     1      29.090  25.260  21.396  0.00  0.00    +0.000 C 
ATOM     13  O   UNL     1      29.741  24.226  21.070  0.00  0.00    +0.000 OA
BRANCH  12  14
ATOM     14  C   UNL     1      28.257  25.264  22.615  0.00  0.00    +0.000 A 
ATOM     15  C   UNL     1      28.537  26.066  23.694  0.00  0.00    +0.000 A 
ATOM     16  C   UNL     1      27.737  26.048  24.811  0.00  0.00    +0.000 A 
ATOM     17  C   UNL     1      26.624  25.226  24.897  0.00  0.00    +0.000 A 
ATOM     18  C   UNL     1      26.368  24.430  23.800  0.00  0.00    +0.000 A 
ATOM     19  C   UNL     1      27.159  24.439  22.676  0.00  0.00    +0.000 A 
ATOM     20  O   UNL     1      26.904  23.634  21.563  0.00  0.00    +0.000 OA
ENDBRANCH  12  14
ENDBRANCH   1  11
TORSDOF 3
ENDMDL
MODEL 9
REMARK VINA RESULT:      -5.8      8.916     11.295
REMARK  Name = 
REMARK  3 active torsions:
REMARK  status: ('A' for Active; 'I' for Inactive)
REMARK    1  A    between atoms: C_4  and  N_5
REMARK    2  A    between atoms: N_5  and  N_6
REMARK    3  A    between atoms: C_7  and  C_9
REMARK                            x       y       z     vdW  Elec       q    Type
REMARK                         _______ _______ _______ _____ _____    ______ ____
ROOT
ATOM      1  N   UNL     1      29.837  26.335  19.570  0.00  0.00    +0.000 NA
ENDROOT
BRANCH   1   5
ATOM      2  C   UNL     1      30.026  27.121  16.343  0.00  0.00    +0.000 C 
ATOM      3  C   UNL     1      29.288  28.530  16.697  0.00  0.00    +0.000 C 
ATOM      4  C   UNL     1      29.162  28.333  18.304  0.00  0.00    +0.000 C 
ATOM      5  C   UNL     1      30.183  27.443  18.809  0.00  0.00    +0.000 C 
ATOM      6  C   UNL     1      31.433  27.752  18.506  0.00  0.00    +0.000 C 
ATOM      7  C   UNL     1      31.622  28.947  17.704  0.00  0.00    +0.000 C 
ATOM      8  C   UNL     1      31.905  30.089  18.704  0.00  0.00    +0.000 C 
ATOM      9  C   UNL     1      32.966  28.782  16.979  0.00  0.00    +0.000 C 
ATOM     10  C   UNL     1      30.644  29.402  16.763  0.00  0.00    +0.000 C 
ENDBRANCH   1   5
BRANCH   1  11
ATOM     11  N   UNL     1      29.062  26.292  20.726  0.00  0.00    +0.000 NA
ATOM     12  C   UNL     1      29.014  25.087  21.479  0.00  0.00    +0.000 C 
ATOM     13  O   UNL     1      29.697  24.115  21.043  0.00  0.00    +0.000 OA
BRANCH  12  14
ATOM     14  C   UNL     1      28.217  24.945  22.714  0.00  0.00    +0.000 A 
ATOM     15  C   UNL     1      28.597  25.515  23.904  0.00  0.00    +0.000 A 
ATOM     16  C   UNL     1      27.828  25.367  25.032  0.00  0.00    +0.000 A 
ATOM     17  C   UNL     1      26.647  24.641  25.020  0.00  0.00    +0.000 A 
ATOM     18  C   UNL     1      26.290  24.079  23.812  0.00  0.00    +0.000 A 
ATOM     19  C   UNL     1      27.049  24.220  22.675  0.00  0.00    +0.000 A 
ATOM     20  O   UNL     1      26.692  23.652  21.449  0.00  0.00    +0.000 OA
ENDBRANCH  12  14
ENDBRANCH   1  11
TORSDOF 3
ENDMDL
MODEL 10
REMARK VINA RESULT:      -5.7     13.451     16.803
REMARK  Name = 
REMARK  3 active torsions:
REMARK  status: ('A' for Active; 'I' for Inactive)
REMARK    1  A    between atoms: C_4  and  N_5
REMARK    2  A    between atoms: N_5  and  N_6
REMARK    3  A    between atoms: C_7  and  C_9
REMARK                            x       y       z     vdW  Elec       q    Type
REMARK                         _______ _______ _______ _____ _____    ______ ____
ROOT
ATOM      1  N   UNL     1      27.229  22.705  26.195  0.00  0.00    +0.000 NA
ENDROOT
BRANCH   1   5
ATOM      2  C   UNL     1      28.067  25.047  28.405  0.00  0.00    +0.000 C 
ATOM      3  C   UNL     1      26.528  25.015  28.942  0.00  0.00    +0.000 C 
ATOM      4  C   UNL     1      25.963  23.842  27.973  0.00  0.00    +0.000 C 
ATOM      5  C   UNL     1      27.022  22.955  27.545  0.00  0.00    +0.000 C 
ATOM      6  C   UNL     1      27.754  22.411  28.502  0.00  0.00    +0.000 C 
ATOM      7  C   UNL     1      27.403  22.775  29.864  0.00  0.00    +0.000 C 
ATOM      8  C   UNL     1      26.462  21.660  30.372  0.00  0.00    +0.000 C 
ATOM      9  C   UNL     1      28.667  22.574  30.713  0.00  0.00    +0.000 C 
ATOM     10  C   UNL     1      26.823  24.041  30.194  0.00  0.00    +0.000 C 
ENDBRANCH   1   5
BRANCH   1  11
ATOM     11  N   UNL     1      27.361  23.626  25.159  0.00  0.00    +0.000 NA
ATOM     12  C   UNL     1      28.645  23.841  24.588  0.00  0.00    +0.000 C 
ATOM     13  O   UNL     1      29.601  23.164  25.065  0.00  0.00    +0.000 OA
BRANCH  12  14
ATOM     14  C   UNL     1      28.884  24.800  23.491  0.00  0.00    +0.000 A 
ATOM     15  C   UNL     1      29.315  26.084  23.718  0.00  0.00    +0.000 A 
ATOM     16  C   UNL     1      29.532  26.948  22.673  0.00  0.00    +0.000 A 
ATOM     17  C   UNL     1      29.326  26.567  21.357  0.00  0.00    +0.000 A 
ATOM     18  C   UNL     1      28.892  25.273  21.158  0.00  0.00    +0.000 A 
ATOM     19  C   UNL     1      28.672  24.397  22.194  0.00  0.00    +0.000 A 
ATOM     20  O   UNL     1      28.231  23.085  21.997  0.00  0.00    +0.000 OA
ENDBRANCH  12  14
ENDBRANCH   1  11
TORSDOF 3
ENDMDL
