MODEL 1
REMARK VINA RESULT:      -7.3      0.000      0.000
REMARK  Name = 
REMARK  4 active torsions:
REMARK  status: ('A' for Active; 'I' for Inactive)
REMARK    1  A    between atoms: C_2  and  C_3
REMARK    2  A    between atoms: C_7  and  N_8
REMARK    3  A    between atoms: C_9  and  C_11
REMARK    4  A    between atoms: C_15  and  N_16
REMARK                            x       y       z     vdW  Elec       q    Type
REMARK                         _______ _______ _______ _____ _____    ______ ____
ROOT
ATOM      1  N   UNL     1      15.628  11.254  35.437  0.00  0.00    +0.000 NA
ATOM      2  C   UNL     1      16.649  11.696  36.314  0.00  0.00    +0.000 C 
ATOM      3  O   UNL     1      16.946  12.917  36.299  0.00  0.00    +0.000 OA
ENDROOT
BRANCH   2   4
ATOM      4  C   UNL     1      17.362  10.810  37.223  0.00  0.00    +0.000 A 
ATOM      5  C   UNL     1      18.638  10.354  36.966  0.00  0.00    +0.000 A 
ATOM      6  C   UNL     1      19.285   9.516  37.851  0.00  0.00    +0.000 A 
ATOM      7  C   UNL     1      18.703   9.094  39.017  0.00  0.00    +0.000 A 
ATOM      8  C   UNL     1      17.425   9.543  39.286  0.00  0.00    +0.000 A 
ATOM      9  C   UNL     1      16.786  10.373  38.411  0.00  0.00    +0.000 A 
ATOM     10  C   UNL     1      15.401  10.873  38.679  0.00  0.00    +0.000 C 
BRANCH   8  11
ATOM     11  N   UNL     1      16.791   9.122  40.493  0.00  0.00    +0.000 N 
ATOM     12  O   UNL     1      16.302   7.985  40.628  0.00  0.00    +0.000 OA
ATOM     13  O   UNL     1      16.682   9.960  41.591  0.00  0.00    +0.000 OA
ENDBRANCH   8  11
ENDBRANCH   2   4
BRANCH   1  18
ATOM     14  C   UNL     1      14.501  13.023  32.394  0.00  0.00    +0.000 A 
ATOM     15  C   UNL     1      13.726  13.997  32.975  0.00  0.00    +0.000 A 
ATOM     16  C   UNL     1      13.558  14.096  34.327  0.00  0.00    +0.000 A 
ATOM     17  C   UNL     1      14.200  13.176  35.121  0.00  0.00    +0.000 A 
ATOM     18  C   UNL     1      14.985  12.183  34.586  0.00  0.00    +0.000 A 
ATOM     19  C   UNL     1      15.129  12.116  33.221  0.00  0.00    +0.000 A 
BRANCH  14  21
ATOM     20  C   UNL     1      16.120  13.236  30.541  0.00  0.00    +0.000 C 
ATOM     21  C   UNL     1      14.666  12.939  30.898  0.00  0.00    +0.000 C 
ENDBRANCH  14  21
ENDBRANCH   1  18
TORSDOF 4
ENDMDL
MODEL 2
REMARK VINA RESULT:      -6.6      2.707      7.485
REMARK  Name = 
REMARK  4 active torsions:
REMARK  status: ('A' for Active; 'I' for Inactive)
REMARK    1  A    between atoms: C_2  and  C_3
REMARK    2  A    between atoms: C_7  and  N_8
REMARK    3  A    between atoms: C_9  and  C_11
REMARK    4  A    between atoms: C_15  and  N_16
REMARK                            x       y       z     vdW  Elec       q    Type
REMARK                         _______ _______ _______ _____ _____    ______ ____
ROOT
ATOM      1  N   UNL     1      18.170  11.478  37.047  0.00  0.00    +0.000 NA
ATOM      2  C   UNL     1      17.155  10.804  36.325  0.00  0.00    +0.000 C 
ATOM      3  O   UNL     1      17.065   9.559  36.466  0.00  0.00    +0.000 OA
ENDROOT
BRANCH   2   4
ATOM      4  C   UNL     1      16.220  11.480  35.437  0.00  0.00    +0.000 A 
ATOM      5  C   UNL     1      15.260  12.356  35.897  0.00  0.00    +0.000 A 
ATOM      6  C   UNL     1      14.391  12.980  35.026  0.00  0.00    +0.000 A 
ATOM      7  C   UNL     1      14.433  12.766  33.673  0.00  0.00    +0.000 A 
ATOM      8  C   UNL     1      15.389  11.890  33.199  0.00  0.00    +0.000 A 
ATOM      9  C   UNL     1      16.249  11.274  34.062  0.00  0.00    +0.000 A 
ATOM     10  C   UNL     1      17.295  10.320  33.574  0.00  0.00    +0.000 C 
BRANCH   8  11
ATOM     11  N   UNL     1      15.459  11.646  31.796  0.00  0.00    +0.000 N 
ATOM     12  O   UNL     1      16.221  12.284  31.045  0.00  0.00    +0.000 OA
ATOM     13  O   UNL     1      14.679  10.679  31.183  0.00  0.00    +0.000 OA
ENDBRANCH   8  11
ENDBRANCH   2   4
BRANCH   1  18
ATOM     14  C   UNL     1      21.165   9.734  38.331  0.00  0.00    +0.000 A 
ATOM     15  C   UNL     1      20.679   9.321  39.548  0.00  0.00    +0.000 A 
ATOM     16  C   UNL     1      19.406   9.592  39.964  0.00  0.00    +0.000 A 
ATOM     17  C   UNL     1      18.595  10.308  39.117  0.00  0.00    +0.000 A 
ATOM     18  C   UNL     1      19.036  10.743  37.891  0.00  0.00    +0.000 A 
ATOM     19  C   UNL     1      20.323  10.451  37.507  0.00  0.00    +0.000 A 
BRANCH  14  21
ATOM     20  C   UNL     1      22.775   9.899  36.464  0.00  0.00    +0.000 C 
ATOM     21  C   UNL     1      22.575   9.420  37.900  0.00  0.00    +0.000 C 
ENDBRANCH  14  21
ENDBRANCH   1  18
TORSDOF 4
ENDMDL
MODEL 3
REMARK VINA RESULT:      -6.5      2.921      4.577
REMARK  Name = 
REMARK  4 active torsions:
REMARK  status: ('A' for Active; 'I' for Inactive)
REMARK    1  A    between atoms: C_2  and  C_3
REMARK    2  A    between atoms: C_7  and  N_8
REMARK    3  A    between atoms: C_9  and  C_11
REMARK    4  A    between atoms: C_15  and  N_16
REMARK                            x       y       z     vdW  Elec       q    Type
REMARK                         _______ _______ _______ _____ _____    ______ ____
ROOT
ATOM      1  N   UNL     1      17.797  11.464  37.375  0.00  0.00    +0.000 NA
ATOM      2  C   UNL     1      18.420  10.222  37.103  0.00  0.00    +0.000 C 
ATOM      3  O   UNL     1      17.720   9.318  36.581  0.00  0.00    +0.000 OA
ENDROOT
BRANCH   2   4
ATOM      4  C   UNL     1      19.820   9.946  37.395  0.00  0.00    +0.000 A 
ATOM      5  C   UNL     1      20.795   9.945  36.421  0.00  0.00    +0.000 A 
ATOM      6  C   UNL     1      22.112   9.681  36.734  0.00  0.00    +0.000 A 
ATOM      7  C   UNL     1      22.518   9.405  38.013  0.00  0.00    +0.000 A 
ATOM      8  C   UNL     1      21.551   9.402  38.999  0.00  0.00    +0.000 A 
ATOM      9  C   UNL     1      20.248   9.665  38.688  0.00  0.00    +0.000 A 
ATOM     10  C   UNL     1      19.180   9.668  39.737  0.00  0.00    +0.000 C 
BRANCH   8  11
ATOM     11  N   UNL     1      21.941   9.120  40.341  0.00  0.00    +0.000 N 
ATOM     12  O   UNL     1      22.325  10.009  41.125  0.00  0.00    +0.000 OA
ATOM     13  O   UNL     1      21.916   7.834  40.855  0.00  0.00    +0.000 OA
ENDBRANCH   8  11
ENDBRANCH   2   4
BRANCH   1  18
ATOM     14  C   UNL     1      14.108  11.355  37.571  0.00  0.00    +0.000 A 
ATOM     15  C   UNL     1      13.802  12.023  36.411  0.00  0.00    +0.000 A 
ATOM     16  C   UNL     1      14.760  12.509  35.566  0.00  0.00    +0.000 A 
ATOM     17  C   UNL     1      16.075  12.310  35.908  0.00  0.00    +0.000 A 
ATOM     18  C   UNL     1      16.431  11.648  37.058  0.00  0.00    +0.000 A 
ATOM     19  C   UNL     1      15.439  11.174  37.883  0.00  0.00    +0.000 A 
BRANCH  14  21
ATOM     20  C   UNL     1      11.688  10.892  37.755  0.00  0.00    +0.000 C 
ATOM     21  C   UNL     1      13.029  10.830  38.484  0.00  0.00    +0.000 C 
ENDBRANCH  14  21
ENDBRANCH   1  18
TORSDOF 4
ENDMDL
MODEL 4
REMARK VINA RESULT:      -6.4     22.258     23.511
REMARK  Name = 
REMARK  4 active torsions:
REMARK  status: ('A' for Active; 'I' for Inactive)
REMARK    1  A    between atoms: C_2  and  C_3
REMARK    2  A    between atoms: C_7  and  N_8
REMARK    3  A    between atoms: C_9  and  C_11
REMARK    4  A    between atoms: C_15  and  N_16
REMARK                            x       y       z     vdW  Elec       q    Type
REMARK                         _______ _______ _______ _____ _____    ______ ____
ROOT
ATOM      1  N   UNL     1      22.155  -6.725  23.857  0.00  0.00    +0.000 NA
ATOM      2  C   UNL     1      21.606  -7.205  25.071  0.00  0.00    +0.000 C 
ATOM      3  O   UNL     1      22.254  -8.076  25.702  0.00  0.00    +0.000 OA
ENDROOT
BRANCH   2   4
ATOM      4  C   UNL     1      20.338  -6.740  25.615  0.00  0.00    +0.000 A 
ATOM      5  C   UNL     1      20.147  -5.445  26.048  0.00  0.00    +0.000 A 
ATOM      6  C   UNL     1      18.931  -5.038  26.558  0.00  0.00    +0.000 A 
ATOM      7  C   UNL     1      17.861  -5.888  26.663  0.00  0.00    +0.000 A 
ATOM      8  C   UNL     1      18.040  -7.188  26.234  0.00  0.00    +0.000 A 
ATOM      9  C   UNL     1      19.243  -7.589  25.729  0.00  0.00    +0.000 A 
ATOM     10  C   UNL     1      19.463  -8.993  25.257  0.00  0.00    +0.000 C 
BRANCH   8  11
ATOM     11  N   UNL     1      16.945  -8.097  26.329  0.00  0.00    +0.000 N 
ATOM     12  O   UNL     1      16.813  -8.883  27.287  0.00  0.00    +0.000 OA
ATOM     13  O   UNL     1      15.961  -8.160  25.357  0.00  0.00    +0.000 OA
ENDBRANCH   8  11
ENDBRANCH   2   4
BRANCH   1  18
ATOM     14  C   UNL     1      24.662  -8.791  22.094  0.00  0.00    +0.000 A 
ATOM     15  C   UNL     1      25.809  -8.180  22.539  0.00  0.00    +0.000 A 
ATOM     16  C   UNL     1      25.792  -7.115  23.396  0.00  0.00    +0.000 A 
ATOM     17  C   UNL     1      24.569  -6.653  23.818  0.00  0.00    +0.000 A 
ATOM     18  C   UNL     1      23.395  -7.230  23.400  0.00  0.00    +0.000 A 
ATOM     19  C   UNL     1      23.453  -8.300  22.538  0.00  0.00    +0.000 A 
BRANCH  14  21
ATOM     20  C   UNL     1      23.597 -10.942  21.509  0.00  0.00    +0.000 C 
ATOM     21  C   UNL     1      24.713  -9.964  21.149  0.00  0.00    +0.000 C 
ENDBRANCH  14  21
ENDBRANCH   1  18
TORSDOF 4
ENDMDL
MODEL 5
REMARK VINA RESULT:      -6.3     19.436     21.844
REMARK  Name = 
REMARK  4 active torsions:
REMARK  status: ('A' for Active; 'I' for Inactive)
REMARK    1  A    between atoms: C_2  and  C_3
REMARK    2  A    between atoms: C_7  and  N_8
REMARK    3  A    between atoms: C_9  and  C_11
REMARK    4  A    between atoms: C_15  and  N_16
REMARK                            x       y       z     vdW  Elec       q    Type
REMARK                         _______ _______ _______ _____ _____    ______ ____
ROOT
ATOM      1  N   UNL     1      34.290  -0.921  34.158  0.00  0.00    +0.000 NA
ATOM      2  C   UNL     1      33.291   0.029  34.485  0.00  0.00    +0.000 C 
ATOM      3  O   UNL     1      32.169  -0.404  34.848  0.00  0.00    +0.000 OA
ENDROOT
BRANCH   2   4
ATOM      4  C   UNL     1      33.503   1.468  34.420  0.00  0.00    +0.000 A 
ATOM      5  C   UNL     1      33.372   2.185  33.250  0.00  0.00    +0.000 A 
ATOM      6  C   UNL     1      33.579   3.549  33.225  0.00  0.00    +0.000 A 
ATOM      7  C   UNL     1      33.923   4.257  34.347  0.00  0.00    +0.000 A 
ATOM      8  C   UNL     1      34.058   3.550  35.526  0.00  0.00    +0.000 A 
ATOM      9  C   UNL     1      33.852   2.201  35.549  0.00  0.00    +0.000 A 
ATOM     10  C   UNL     1      33.992   1.412  36.813  0.00  0.00    +0.000 C 
BRANCH   8  11
ATOM     11  N   UNL     1      34.415   4.258  36.711  0.00  0.00    +0.000 N 
ATOM     12  O   UNL     1      35.600   4.482  37.023  0.00  0.00    +0.000 OA
ATOM     13  O   UNL     1      33.459   4.739  37.591  0.00  0.00    +0.000 OA
ENDBRANCH   8  11
ENDBRANCH   2   4
BRANCH   1  18
ATOM     14  C   UNL     1      33.381  -4.380  33.227  0.00  0.00    +0.000 A 
ATOM     15  C   UNL     1      33.446  -4.970  34.466  0.00  0.00    +0.000 A 
ATOM     16  C   UNL     1      33.777  -4.277  35.596  0.00  0.00    +0.000 A 
ATOM     17  C   UNL     1      34.051  -2.936  35.467  0.00  0.00    +0.000 A 
ATOM     18  C   UNL     1      34.000  -2.302  34.249  0.00  0.00    +0.000 A 
ATOM     19  C   UNL     1      33.663  -3.034  33.135  0.00  0.00    +0.000 A 
BRANCH  14  21
ATOM     20  C   UNL     1      34.273  -5.415  31.168  0.00  0.00    +0.000 C 
ATOM     21  C   UNL     1      33.014  -5.172  31.998  0.00  0.00    +0.000 C 
ENDBRANCH  14  21
ENDBRANCH   1  18
TORSDOF 4
ENDMDL
MODEL 6
REMARK VINA RESULT:      -6.3     22.184     23.570
REMARK  Name = 
REMARK  4 active torsions:
REMARK  status: ('A' for Active; 'I' for Inactive)
REMARK    1  A    between atoms: C_2  and  C_3
REMARK    2  A    between atoms: C_7  and  N_8
REMARK    3  A    between atoms: C_9  and  C_11
REMARK    4  A    between atoms: C_15  and  N_16
REMARK                            x       y       z     vdW  Elec       q    Type
REMARK                         _______ _______ _______ _____ _____    ______ ____
ROOT
ATOM      1  N   UNL     1      22.922  -7.152  25.235  0.00  0.00    +0.000 NA
ATOM      2  C   UNL     1      21.583  -7.381  24.834  0.00  0.00    +0.000 C 
ATOM      3  O   UNL     1      21.393  -7.999  23.756  0.00  0.00    +0.000 OA
ENDROOT
BRANCH   2   4
ATOM      4  C   UNL     1      20.430  -6.940  25.604  0.00  0.00    +0.000 A 
ATOM      5  C   UNL     1      20.029  -5.621  25.651  0.00  0.00    +0.000 A 
ATOM      6  C   UNL     1      18.930  -5.238  26.391  0.00  0.00    +0.000 A 
ATOM      7  C   UNL     1      18.186  -6.134  27.113  0.00  0.00    +0.000 A 
ATOM      8  C   UNL     1      18.577  -7.458  27.075  0.00  0.00    +0.000 A 
ATOM      9  C   UNL     1      19.664  -7.836  26.342  0.00  0.00    +0.000 A 
ATOM     10  C   UNL     1      20.109  -9.264  26.285  0.00  0.00    +0.000 C 
BRANCH   8  11
ATOM     11  N   UNL     1      17.823  -8.416  27.815  0.00  0.00    +0.000 N 
ATOM     12  O   UNL     1      16.789  -8.944  27.364  0.00  0.00    +0.000 OA
ATOM     13  O   UNL     1      18.198  -8.817  29.087  0.00  0.00    +0.000 OA
ENDBRANCH   8  11
ENDBRANCH   2   4
BRANCH   1  18
ATOM     14  C   UNL     1      25.264  -9.412  23.483  0.00  0.00    +0.000 A 
ATOM     15  C   UNL     1      26.051  -8.477  22.856  0.00  0.00    +0.000 A 
ATOM     16  C   UNL     1      25.843  -7.133  22.986  0.00  0.00    +0.000 A 
ATOM     17  C   UNL     1      24.801  -6.720  23.780  0.00  0.00    +0.000 A 
ATOM     18  C   UNL     1      23.986  -7.617  24.426  0.00  0.00    +0.000 A 
ATOM     19  C   UNL     1      24.226  -8.962  24.272  0.00  0.00    +0.000 A 
BRANCH  14  21
ATOM     20  C   UNL     1      27.010 -11.114  23.085  0.00  0.00    +0.000 C 
ATOM     21  C   UNL     1      25.518 -10.889  23.320  0.00  0.00    +0.000 C 
ENDBRANCH  14  21
ENDBRANCH   1  18
TORSDOF 4
ENDMDL
MODEL 7
REMARK VINA RESULT:      -6.2     19.080     20.329
REMARK  Name = 
REMARK  4 active torsions:
REMARK  status: ('A' for Active; 'I' for Inactive)
REMARK    1  A    between atoms: C_2  and  C_3
REMARK    2  A    between atoms: C_7  and  N_8
REMARK    3  A    between atoms: C_9  and  C_11
REMARK    4  A    between atoms: C_15  and  N_16
REMARK                            x       y       z     vdW  Elec       q    Type
REMARK                         _______ _______ _______ _____ _____    ______ ____
ROOT
ATOM      1  N   UNL     1      35.712   5.154  35.542  0.00  0.00    +0.000 NA
ATOM      2  C   UNL     1      34.389   4.661  35.440  0.00  0.00    +0.000 C 
ATOM      3  O   UNL     1      33.460   5.384  35.881  0.00  0.00    +0.000 OA
ENDROOT
BRANCH   2   4
ATOM      4  C   UNL     1      34.057   3.370  34.855  0.00  0.00    +0.000 A 
ATOM      5  C   UNL     1      33.849   3.199  33.503  0.00  0.00    +0.000 A 
ATOM      6  C   UNL     1      33.537   1.961  32.982  0.00  0.00    +0.000 A 
ATOM      7  C   UNL     1      33.417   0.846  33.770  0.00  0.00    +0.000 A 
ATOM      8  C   UNL     1      33.622   1.003  35.127  0.00  0.00    +0.000 A 
ATOM      9  C   UNL     1      33.932   2.229  35.640  0.00  0.00    +0.000 A 
ATOM     10  C   UNL     1      34.159   2.426  37.107  0.00  0.00    +0.000 C 
BRANCH   8  11
ATOM     11  N   UNL     1      33.505  -0.138  35.974  0.00  0.00    +0.000 N 
ATOM     12  O   UNL     1      32.412  -0.515  36.438  0.00  0.00    +0.000 OA
ATOM     13  O   UNL     1      34.606  -0.898  36.332  0.00  0.00    +0.000 OA
ENDBRANCH   8  11
ENDBRANCH   2   4
BRANCH   1  18
ATOM     14  C   UNL     1      36.148   8.803  35.937  0.00  0.00    +0.000 A 
ATOM     15  C   UNL     1      36.403   8.853  37.286  0.00  0.00    +0.000 A 
ATOM     16  C   UNL     1      36.437   7.736  38.072  0.00  0.00    +0.000 A 
ATOM     17  C   UNL     1      36.206   6.523  37.469  0.00  0.00    +0.000 A 
ATOM     18  C   UNL     1      35.946   6.422  36.124  0.00  0.00    +0.000 A 
ATOM     19  C   UNL     1      35.920   7.569  35.367  0.00  0.00    +0.000 A 
BRANCH  14  21
ATOM     20  C   UNL     1      34.777  10.758  35.304  0.00  0.00    +0.000 C 
ATOM     21  C   UNL     1      36.116  10.054  35.096  0.00  0.00    +0.000 C 
ENDBRANCH  14  21
ENDBRANCH   1  18
TORSDOF 4
ENDMDL
MODEL 8
REMARK VINA RESULT:      -6.2      3.799      5.231
REMARK  Name = 
REMARK  4 active torsions:
REMARK  status: ('A' for Active; 'I' for Inactive)
REMARK    1  A    between atoms: C_2  and  C_3
REMARK    2  A    between atoms: C_7  and  N_8
REMARK    3  A    between atoms: C_9  and  C_11
REMARK    4  A    between atoms: C_15  and  N_16
REMARK                            x       y       z     vdW  Elec       q    Type
REMARK                         _______ _______ _______ _____ _____    ______ ____
ROOT
ATOM      1  N   UNL     1      19.001   9.667  37.100  0.00  0.00    +0.000 NA
ATOM      2  C   UNL     1      20.126  10.432  37.494  0.00  0.00    +0.000 C 
ATOM      3  O   UNL     1      19.928  11.618  37.857  0.00  0.00    +0.000 OA
ENDROOT
BRANCH   2   4
ATOM      4  C   UNL     1      21.486   9.912  37.498  0.00  0.00    +0.000 A 
ATOM      5  C   UNL     1      22.263   9.860  36.361  0.00  0.00    +0.000 A 
ATOM      6  C   UNL     1      23.549   9.362  36.401  0.00  0.00    +0.000 A 
ATOM      7  C   UNL     1      24.117   8.896  37.558  0.00  0.00    +0.000 A 
ATOM      8  C   UNL     1      23.348   8.942  38.704  0.00  0.00    +0.000 A 
ATOM      9  C   UNL     1      22.077   9.436  38.663  0.00  0.00    +0.000 A 
ATOM     10  C   UNL     1      21.223   9.497  39.891  0.00  0.00    +0.000 C 
BRANCH   8  11
ATOM     11  N   UNL     1      23.910   8.466  39.925  0.00  0.00    +0.000 N 
ATOM     12  O   UNL     1      24.604   9.187  40.667  0.00  0.00    +0.000 OA
ATOM     13  O   UNL     1      23.716   7.165  40.361  0.00  0.00    +0.000 OA
ENDBRANCH   8  11
ENDBRANCH   2   4
BRANCH   1  18
ATOM     14  C   UNL     1      15.906  11.380  36.028  0.00  0.00    +0.000 A 
ATOM     15  C   UNL     1      15.220  11.368  37.218  0.00  0.00    +0.000 A 
ATOM     16  C   UNL     1      15.733  10.819  38.359  0.00  0.00    +0.000 A 
ATOM     17  C   UNL     1      16.988  10.263  38.294  0.00  0.00    +0.000 A 
ATOM     18  C   UNL     1      17.712  10.250  37.127  0.00  0.00    +0.000 A 
ATOM     19  C   UNL     1      17.162  10.812  35.999  0.00  0.00    +0.000 A 
BRANCH  14  21
ATOM     20  C   UNL     1      15.862  11.264  33.561  0.00  0.00    +0.000 C 
ATOM     21  C   UNL     1      15.312  11.992  34.785  0.00  0.00    +0.000 C 
ENDBRANCH  14  21
ENDBRANCH   1  18
TORSDOF 4
ENDMDL
MODEL 9
REMARK VINA RESULT:      -6.2     19.286     22.058
REMARK  Name = 
REMARK  4 active torsions:
REMARK  status: ('A' for Active; 'I' for Inactive)
REMARK    1  A    between atoms: C_2  and  C_3
REMARK    2  A    between atoms: C_7  and  N_8
REMARK    3  A    between atoms: C_9  and  C_11
REMARK    4  A    between atoms: C_15  and  N_16
REMARK                            x       y       z     vdW  Elec       q    Type
REMARK                         _______ _______ _______ _____ _____    ______ ____
ROOT
ATOM      1  N   UNL     1      29.475  23.586  27.397  0.00  0.00    +0.000 NA
ATOM      2  C   UNL     1      29.217  22.721  26.305  0.00  0.00    +0.000 C 
ATOM      3  O   UNL     1      29.609  21.531  26.397  0.00  0.00    +0.000 OA
ENDROOT
BRANCH   2   4
ATOM      4  C   UNL     1      28.527  23.143  25.095  0.00  0.00    +0.000 A 
ATOM      5  C   UNL     1      27.176  22.947  24.904  0.00  0.00    +0.000 A 
ATOM      6  C   UNL     1      26.554  23.361  23.745  0.00  0.00    +0.000 A 
ATOM      7  C   UNL     1      27.236  23.979  22.730  0.00  0.00    +0.000 A 
ATOM      8  C   UNL     1      28.591  24.181  22.907  0.00  0.00    +0.000 A 
ATOM      9  C   UNL     1      29.204  23.772  24.056  0.00  0.00    +0.000 A 
ATOM     10  C   UNL     1      30.671  23.978  24.273  0.00  0.00    +0.000 C 
BRANCH   8  11
ATOM     11  N   UNL     1      29.330  24.823  21.870  0.00  0.00    +0.000 N 
ATOM     12  O   UNL     1      29.741  24.209  20.867  0.00  0.00    +0.000 OA
ATOM     13  O   UNL     1      29.634  26.173  21.917  0.00  0.00    +0.000 OA
ENDBRANCH   8  11
ENDBRANCH   2   4
BRANCH   1  18
ATOM     14  C   UNL     1      32.158  22.348  29.617  0.00  0.00    +0.000 A 
ATOM     15  C   UNL     1      31.425  22.142  30.761  0.00  0.00    +0.000 A 
ATOM     16  C   UNL     1      30.084  22.394  30.832  0.00  0.00    +0.000 A 
ATOM     17  C   UNL     1      29.462  22.871  29.703  0.00  0.00    +0.000 A 
ATOM     18  C   UNL     1      30.152  23.094  28.537  0.00  0.00    +0.000 A 
ATOM     19  C   UNL     1      31.501  22.829  28.504  0.00  0.00    +0.000 A 
BRANCH  14  21
ATOM     20  C   UNL     1      34.106  21.639  30.960  0.00  0.00    +0.000 C 
ATOM     21  C   UNL     1      33.637  22.062  29.570  0.00  0.00    +0.000 C 
ENDBRANCH  14  21
ENDBRANCH   1  18
TORSDOF 4
ENDMDL
MODEL 10
REMARK VINA RESULT:      -6.1     18.805     21.296
REMARK  Name = 
REMARK  4 active torsions:
REMARK  status: ('A' for Active; 'I' for Inactive)
REMARK    1  A    between atoms: C_2  and  C_3
REMARK    2  A    between atoms: C_7  and  N_8
REMARK    3  A    between atoms: C_9  and  C_11
REMARK    4  A    between atoms: C_15  and  N_16
REMARK                            x       y       z     vdW  Elec       q    Type
REMARK                         _______ _______ _______ _____ _____    ______ ____
ROOT
ATOM      1  N   UNL     1      30.706  23.353  27.632  0.00  0.00    +0.000 NA
ATOM      2  C   UNL     1      30.226  22.561  26.560  0.00  0.00    +0.000 C 
ATOM      3  O   UNL     1      30.254  21.313  26.696  0.00  0.00    +0.000 OA
ENDROOT
BRANCH   2   4
ATOM      4  C   UNL     1      29.708  23.122  25.320  0.00  0.00    +0.000 A 
ATOM      5  C   UNL     1      30.527  23.652  24.346  0.00  0.00    +0.000 A 
ATOM      6  C   UNL     1      30.002  24.174  23.182  0.00  0.00    +0.000 A 
ATOM      7  C   UNL     1      28.654  24.197  22.934  0.00  0.00    +0.000 A 
ATOM      8  C   UNL     1      27.823  23.670  23.902  0.00  0.00    +0.000 A 
ATOM      9  C   UNL     1      28.344  23.153  25.052  0.00  0.00    +0.000 A 
ATOM     10  C   UNL     1      27.464  22.576  26.118  0.00  0.00    +0.000 C 
BRANCH   8  11
ATOM     11  N   UNL     1      26.415  23.678  23.674  0.00  0.00    +0.000 N 
ATOM     12  O   UNL     1      25.861  22.877  22.898  0.00  0.00    +0.000 OA
ATOM     13  O   UNL     1      25.577  24.582  24.306  0.00  0.00    +0.000 OA
ENDBRANCH   8  11
ENDBRANCH   2   4
BRANCH   1  18
ATOM     14  C   UNL     1      30.896  22.028  31.077  0.00  0.00    +0.000 A 
ATOM     15  C   UNL     1      32.167  21.507  31.047  0.00  0.00    +0.000 A 
ATOM     16  C   UNL     1      32.964  21.573  29.940  0.00  0.00    +0.000 A 
ATOM     17  C   UNL     1      32.457  22.190  28.822  0.00  0.00    +0.000 A 
ATOM     18  C   UNL     1      31.192  22.725  28.803  0.00  0.00    +0.000 A 
ATOM     19  C   UNL     1      30.420  22.639  29.937  0.00  0.00    +0.000 A 
BRANCH  14  21
ATOM     20  C   UNL     1      30.864  21.332  33.447  0.00  0.00    +0.000 C 
ATOM     21  C   UNL     1      30.039  21.939  32.314  0.00  0.00    +0.000 C 
ENDBRANCH  14  21
ENDBRANCH   1  18
TORSDOF 4
ENDMDL
