MODEL 1
REMARK VINA RESULT:      -8.5      0.000      0.000
REMARK  Name = 
REMARK  8 active torsions:
REMARK  status: ('A' for Active; 'I' for Inactive)
REMARK    1  A    between atoms: C_2  and  C_3
REMARK    2  A    between atoms: C_7  and  C_8
REMARK    3  A    between atoms: C_10  and  N_11
REMARK    4  A    between atoms: C_12  and  C_14
REMARK    5  A    between atoms: C_14  and  O_16
REMARK    6  A    between atoms: O_16  and  C_17
REMARK    7  A    between atoms: C_17  and  C_19
REMARK    8  A    between atoms: C_22  and  C_23
REMARK                            x       y       z     vdW  Elec       q    Type
REMARK                         _______ _______ _______ _____ _____    ______ ____
ROOT
ATOM      1  C   UNL     1      13.762  -0.504  28.133  0.00  0.00    +0.000 C 
ATOM      2  C   UNL     1      13.598  -1.401  26.711  0.00  0.00    +0.000 C 
ENDROOT
BRANCH   1   4
ATOM      3  N   UNL     1      11.842   0.345  26.778  0.00  0.00    +0.000 NA
ATOM      4  C   UNL     1      12.291   0.163  28.056  0.00  0.00    +0.000 C 
ATOM      5  O   UNL     1      11.668   0.461  29.020  0.00  0.00    +0.000 OA
BRANCH   3  11
ATOM      6  C   UNL     1       9.819  -0.092  25.601  0.00  0.00    +0.000 A 
ATOM      7  C   UNL     1       8.689   0.334  24.913  0.00  0.00    +0.000 A 
ATOM      8  C   UNL     1       8.403   1.675  24.731  0.00  0.00    +0.000 A 
ATOM      9  C   UNL     1       9.315   2.594  25.275  0.00  0.00    +0.000 A 
ATOM     10  C   UNL     1      10.439   2.154  25.962  0.00  0.00    +0.000 A 
ATOM     11  C   UNL     1      10.728   0.826  26.147  0.00  0.00    +0.000 A 
BRANCH   6  13
ATOM     12  C   UNL     1      10.601  -2.111  24.446  0.00  0.00    +0.000 C 
ATOM     13  C   UNL     1      10.115  -1.531  25.782  0.00  0.00    +0.000 C 
ENDBRANCH   6  13
BRANCH  10  14
ATOM     14  C   UNL     1      11.407   3.127  26.566  0.00  0.00    +0.000 C 
ATOM     15  C   UNL     1      10.850   3.747  27.833  0.00  0.00    +0.000 C 
ENDBRANCH  10  14
ENDBRANCH   3  11
ENDBRANCH   1   4
BRANCH   1  16
ATOM     16  O   UNL     1      14.518   0.645  27.398  0.00  0.00    +0.000 OA
BRANCH  16  17
ATOM     17  C   UNL     1      15.878   0.419  27.650  0.00  0.00    +0.000 C 
ATOM     18  O   UNL     1      16.352   0.338  28.827  0.00  0.00    +0.000 OA
BRANCH  17  19
ATOM     19  C   UNL     1      16.812   0.270  26.556  0.00  0.00    +0.000 A 
ATOM     20  C   UNL     1      17.508   1.326  26.039  0.00  0.00    +0.000 A 
ATOM     21  C   UNL     1      18.436   1.115  25.016  0.00  0.00    +0.000 A 
ATOM     22  C   UNL     1      18.673  -0.130  24.514  0.00  0.00    +0.000 A 
ATOM     23  C   UNL     1      17.956  -1.172  25.052  0.00  0.00    +0.000 A 
ATOM     24  C   UNL     1      17.035  -1.028  26.050  0.00  0.00    +0.000 A 
BRANCH  22  25
ATOM     25  C   UNL     1      19.674  -0.342  23.452  0.00  0.00    +0.000 A 
ATOM     26  C   UNL     1      20.404   0.603  22.855  0.00  0.00    +0.000 A 
ATOM     27  C   UNL     1      21.323   0.254  21.877  0.00  0.00    +0.000 A 
ATOM     28  C   UNL     1      21.497  -1.034  21.511  0.00  0.00    +0.000 A 
ATOM     29  C   UNL     1      20.724  -2.050  22.137  0.00  0.00    +0.000 A 
ATOM     30  C   UNL     1      19.817  -1.691  23.104  0.00  0.00    +0.000 A 
ENDBRANCH  22  25
ENDBRANCH  17  19
ENDBRANCH  16  17
ENDBRANCH   1  16
TORSDOF 8
ENDMDL
MODEL 2
REMARK VINA RESULT:      -8.3     23.333     26.566
REMARK  Name = 
REMARK  8 active torsions:
REMARK  status: ('A' for Active; 'I' for Inactive)
REMARK    1  A    between atoms: C_2  and  C_3
REMARK    2  A    between atoms: C_7  and  C_8
REMARK    3  A    between atoms: C_10  and  N_11
REMARK    4  A    between atoms: C_12  and  C_14
REMARK    5  A    between atoms: C_14  and  O_16
REMARK    6  A    between atoms: O_16  and  C_17
REMARK    7  A    between atoms: C_17  and  C_19
REMARK    8  A    between atoms: C_22  and  C_23
REMARK                            x       y       z     vdW  Elec       q    Type
REMARK                         _______ _______ _______ _____ _____    ______ ____
ROOT
ATOM      1  C   UNL     1      37.596   1.669  13.478  0.00  0.00    +0.000 C 
ATOM      2  C   UNL     1      36.849   0.268  12.901  0.00  0.00    +0.000 C 
ENDROOT
BRANCH   1   4
ATOM      3  N   UNL     1      37.857  -0.227  15.085  0.00  0.00    +0.000 NA
ATOM      4  C   UNL     1      38.450   0.916  14.627  0.00  0.00    +0.000 C 
ATOM      5  O   UNL     1      39.490   1.322  15.027  0.00  0.00    +0.000 OA
BRANCH   3  11
ATOM      6  C   UNL     1      39.059  -2.202  15.656  0.00  0.00    +0.000 A 
ATOM      7  C   UNL     1      39.338  -3.257  16.516  0.00  0.00    +0.000 A 
ATOM      8  C   UNL     1      38.705  -3.393  17.738  0.00  0.00    +0.000 A 
ATOM      9  C   UNL     1      37.760  -2.410  18.073  0.00  0.00    +0.000 A 
ATOM     10  C   UNL     1      37.493  -1.360  17.204  0.00  0.00    +0.000 A 
ATOM     11  C   UNL     1      38.117  -1.218  15.991  0.00  0.00    +0.000 A 
BRANCH   6  13
ATOM     12  C   UNL     1      41.236  -1.825  14.587  0.00  0.00    +0.000 C 
ATOM     13  C   UNL     1      39.739  -2.072  14.348  0.00  0.00    +0.000 C 
ENDBRANCH   6  13
BRANCH  10  14
ATOM     14  C   UNL     1      36.501  -0.293  17.561  0.00  0.00    +0.000 C 
ATOM     15  C   UNL     1      36.126  -0.356  19.030  0.00  0.00    +0.000 C 
ENDBRANCH  10  14
ENDBRANCH   3  11
ENDBRANCH   1   4
BRANCH   1  16
ATOM     16  O   UNL     1      36.373   2.031  14.374  0.00  0.00    +0.000 OA
BRANCH  16  17
ATOM     17  C   UNL     1      36.398   3.426  14.496  0.00  0.00    +0.000 C 
ATOM     18  O   UNL     1      35.642   4.188  13.814  0.00  0.00    +0.000 OA
BRANCH  17  19
ATOM     19  C   UNL     1      37.309   4.067  15.420  0.00  0.00    +0.000 A 
ATOM     20  C   UNL     1      37.297   3.802  16.760  0.00  0.00    +0.000 A 
ATOM     21  C   UNL     1      38.233   4.413  17.599  0.00  0.00    +0.000 A 
ATOM     22  C   UNL     1      39.172   5.272  17.112  0.00  0.00    +0.000 A 
ATOM     23  C   UNL     1      39.158   5.520  15.761  0.00  0.00    +0.000 A 
ATOM     24  C   UNL     1      38.267   4.957  14.892  0.00  0.00    +0.000 A 
BRANCH  22  25
ATOM     25  C   UNL     1      40.171   5.889  18.005  0.00  0.00    +0.000 A 
ATOM     26  C   UNL     1      41.415   6.243  17.672  0.00  0.00    +0.000 A 
ATOM     27  C   UNL     1      42.244   6.831  18.615  0.00  0.00    +0.000 A 
ATOM     28  C   UNL     1      41.817   7.055  19.877  0.00  0.00    +0.000 A 
ATOM     29  C   UNL     1      40.496   6.680  20.245  0.00  0.00    +0.000 A 
ATOM     30  C   UNL     1      39.685   6.099  19.301  0.00  0.00    +0.000 A 
ENDBRANCH  22  25
ENDBRANCH  17  19
ENDBRANCH  16  17
ENDBRANCH   1  16
TORSDOF 8
ENDMDL
MODEL 3
REMARK VINA RESULT:      -8.3     23.506     26.532
REMARK  Name = 
REMARK  8 active torsions:
REMARK  status: ('A' for Active; 'I' for Inactive)
REMARK    1  A    between atoms: C_2  and  C_3
REMARK    2  A    between atoms: C_7  and  C_8
REMARK    3  A    between atoms: C_10  and  N_11
REMARK    4  A    between atoms: C_12  and  C_14
REMARK    5  A    between atoms: C_14  and  O_16
REMARK    6  A    between atoms: O_16  and  C_17
REMARK    7  A    between atoms: C_17  and  C_19
REMARK    8  A    between atoms: C_22  and  C_23
REMARK                            x       y       z     vdW  Elec       q    Type
REMARK                         _______ _______ _______ _____ _____    ______ ____
ROOT
ATOM      1  C   UNL     1      37.455   1.890  13.513  0.00  0.00    +0.000 C 
ATOM      2  C   UNL     1      36.723   0.513  12.865  0.00  0.00    +0.000 C 
ENDROOT
BRANCH   1   4
ATOM      3  N   UNL     1      37.771  -0.103  14.988  0.00  0.00    +0.000 NA
ATOM      4  C   UNL     1      38.330   1.087  14.612  0.00  0.00    +0.000 C 
ATOM      5  O   UNL     1      39.355   1.497  15.043  0.00  0.00    +0.000 OA
BRANCH   3  11
ATOM      6  C   UNL     1      37.305  -1.289  16.999  0.00  0.00    +0.000 A 
ATOM      7  C   UNL     1      37.574  -2.303  17.911  0.00  0.00    +0.000 A 
ATOM      8  C   UNL     1      38.592  -3.217  17.710  0.00  0.00    +0.000 A 
ATOM      9  C   UNL     1      39.349  -3.072  16.536  0.00  0.00    +0.000 A 
ATOM     10  C   UNL     1      39.067  -2.054  15.633  0.00  0.00    +0.000 A 
ATOM     11  C   UNL     1      38.059  -1.145  15.826  0.00  0.00    +0.000 A 
BRANCH   6  13
ATOM     12  C   UNL     1      36.288   0.178  18.684  0.00  0.00    +0.000 C 
ATOM     13  C   UNL     1      36.216  -0.313  17.230  0.00  0.00    +0.000 C 
ENDBRANCH   6  13
BRANCH  10  14
ATOM     14  C   UNL     1      39.855  -1.904  14.366  0.00  0.00    +0.000 C 
ATOM     15  C   UNL     1      39.286  -2.766  13.256  0.00  0.00    +0.000 C 
ENDBRANCH  10  14
ENDBRANCH   3  11
ENDBRANCH   1   4
BRANCH   1  16
ATOM     16  O   UNL     1      36.235   2.184  14.437  0.00  0.00    +0.000 OA
BRANCH  16  17
ATOM     17  C   UNL     1      36.247   3.570  14.641  0.00  0.00    +0.000 C 
ATOM     18  O   UNL     1      35.454   4.359  14.035  0.00  0.00    +0.000 OA
BRANCH  17  19
ATOM     19  C   UNL     1      37.183   4.169  15.567  0.00  0.00    +0.000 A 
ATOM     20  C   UNL     1      37.296   3.755  16.864  0.00  0.00    +0.000 A 
ATOM     21  C   UNL     1      38.253   4.335  17.700  0.00  0.00    +0.000 A 
ATOM     22  C   UNL     1      39.092   5.311  17.253  0.00  0.00    +0.000 A 
ATOM     23  C   UNL     1      38.954   5.708  15.944  0.00  0.00    +0.000 A 
ATOM     24  C   UNL     1      38.036   5.182  15.081  0.00  0.00    +0.000 A 
BRANCH  22  25
ATOM     25  C   UNL     1      40.116   5.897  18.138  0.00  0.00    +0.000 A 
ATOM     26  C   UNL     1      39.990   6.124  19.448  0.00  0.00    +0.000 A 
ATOM     27  C   UNL     1      41.048   6.668  20.161  0.00  0.00    +0.000 A 
ATOM     28  C   UNL     1      42.213   6.979  19.553  0.00  0.00    +0.000 A 
ATOM     29  C   UNL     1      42.359   6.745  18.159  0.00  0.00    +0.000 A 
ATOM     30  C   UNL     1      41.304   6.205  17.464  0.00  0.00    +0.000 A 
ENDBRANCH  22  25
ENDBRANCH  17  19
ENDBRANCH  16  17
ENDBRANCH   1  16
TORSDOF 8
ENDMDL
MODEL 4
REMARK VINA RESULT:      -8.3     22.690     25.895
REMARK  Name = 
REMARK  8 active torsions:
REMARK  status: ('A' for Active; 'I' for Inactive)
REMARK    1  A    between atoms: C_2  and  C_3
REMARK    2  A    between atoms: C_7  and  C_8
REMARK    3  A    between atoms: C_10  and  N_11
REMARK    4  A    between atoms: C_12  and  C_14
REMARK    5  A    between atoms: C_14  and  O_16
REMARK    6  A    between atoms: O_16  and  C_17
REMARK    7  A    between atoms: C_17  and  C_19
REMARK    8  A    between atoms: C_22  and  C_23
REMARK                            x       y       z     vdW  Elec       q    Type
REMARK                         _______ _______ _______ _____ _____    ______ ____
ROOT
ATOM      1  C   UNL     1      38.984   0.738  13.222  0.00  0.00    +0.000 C 
ATOM      2  C   UNL     1      37.812   0.015  12.244  0.00  0.00    +0.000 C 
ENDROOT
BRANCH   1   4
ATOM      3  N   UNL     1      37.130  -0.161  14.637  0.00  0.00    +0.000 NA
ATOM      4  C   UNL     1      38.482   0.039  14.592  0.00  0.00    +0.000 C 
ATOM      5  O   UNL     1      39.221  -0.267  15.467  0.00  0.00    +0.000 OA
BRANCH   3  11
ATOM      6  C   UNL     1      35.920  -2.063  15.403  0.00  0.00    +0.000 A 
ATOM      7  C   UNL     1      34.962  -2.655  16.217  0.00  0.00    +0.000 A 
ATOM      8  C   UNL     1      34.247  -1.931  17.153  0.00  0.00    +0.000 A 
ATOM      9  C   UNL     1      34.531  -0.559  17.243  0.00  0.00    +0.000 A 
ATOM     10  C   UNL     1      35.493   0.019  16.423  0.00  0.00    +0.000 A 
ATOM     11  C   UNL     1      36.206  -0.693  15.494  0.00  0.00    +0.000 A 
BRANCH   6  13
ATOM     12  C   UNL     1      36.566  -4.340  14.754  0.00  0.00    +0.000 C 
ATOM     13  C   UNL     1      36.673  -2.849  14.401  0.00  0.00    +0.000 C 
ENDBRANCH   6  13
BRANCH  10  14
ATOM     14  C   UNL     1      35.820   1.479  16.526  0.00  0.00    +0.000 C 
ATOM     15  C   UNL     1      34.738   2.335  15.898  0.00  0.00    +0.000 C 
ENDBRANCH  10  14
ENDBRANCH   3  11
ENDBRANCH   1   4
BRANCH   1  16
ATOM     16  O   UNL     1      38.147   2.045  13.371  0.00  0.00    +0.000 OA
BRANCH  16  17
ATOM     17  C   UNL     1      39.085   3.071  13.547  0.00  0.00    +0.000 C 
ATOM     18  O   UNL     1      39.985   3.331  12.687  0.00  0.00    +0.000 OA
BRANCH  17  19
ATOM     19  C   UNL     1      39.066   3.887  14.741  0.00  0.00    +0.000 A 
ATOM     20  C   UNL     1      38.225   3.635  15.787  0.00  0.00    +0.000 A 
ATOM     21  C   UNL     1      38.284   4.427  16.937  0.00  0.00    +0.000 A 
ATOM     22  C   UNL     1      39.172   5.454  17.048  0.00  0.00    +0.000 A 
ATOM     23  C   UNL     1      40.005   5.685  15.980  0.00  0.00    +0.000 A 
ATOM     24  C   UNL     1      39.991   4.949  14.830  0.00  0.00    +0.000 A 
BRANCH  22  25
ATOM     25  C   UNL     1      39.243   6.266  18.278  0.00  0.00    +0.000 A 
ATOM     26  C   UNL     1      40.153   6.150  19.249  0.00  0.00    +0.000 A 
ATOM     27  C   UNL     1      40.106   6.997  20.346  0.00  0.00    +0.000 A 
ATOM     28  C   UNL     1      39.150   7.944  20.457  0.00  0.00    +0.000 A 
ATOM     29  C   UNL     1      38.174   8.075  19.432  0.00  0.00    +0.000 A 
ATOM     30  C   UNL     1      38.232   7.231  18.350  0.00  0.00    +0.000 A 
ENDBRANCH  22  25
ENDBRANCH  17  19
ENDBRANCH  16  17
ENDBRANCH   1  16
TORSDOF 8
ENDMDL
MODEL 5
REMARK VINA RESULT:      -8.2     23.199     26.651
REMARK  Name = 
REMARK  8 active torsions:
REMARK  status: ('A' for Active; 'I' for Inactive)
REMARK    1  A    between atoms: C_2  and  C_3
REMARK    2  A    between atoms: C_7  and  C_8
REMARK    3  A    between atoms: C_10  and  N_11
REMARK    4  A    between atoms: C_12  and  C_14
REMARK    5  A    between atoms: C_14  and  O_16
REMARK    6  A    between atoms: O_16  and  C_17
REMARK    7  A    between atoms: C_17  and  C_19
REMARK    8  A    between atoms: C_22  and  C_23
REMARK                            x       y       z     vdW  Elec       q    Type
REMARK                         _______ _______ _______ _____ _____    ______ ____
ROOT
ATOM      1  C   UNL     1      36.315   2.327  15.069  0.00  0.00    +0.000 C 
ATOM      2  C   UNL     1      35.256   2.057  16.357  0.00  0.00    +0.000 C 
ENDROOT
BRANCH   1   4
ATOM      3  N   UNL     1      37.290   0.194  15.930  0.00  0.00    +0.000 NA
ATOM      4  C   UNL     1      36.680   0.767  14.850  0.00  0.00    +0.000 C 
ATOM      5  O   UNL     1      36.437   0.184  13.846  0.00  0.00    +0.000 OA
BRANCH   3  11
ATOM      6  C   UNL     1      37.049  -1.800  17.209  0.00  0.00    +0.000 A 
ATOM      7  C   UNL     1      37.514  -3.034  17.648  0.00  0.00    +0.000 A 
ATOM      8  C   UNL     1      38.715  -3.562  17.211  0.00  0.00    +0.000 A 
ATOM      9  C   UNL     1      39.450  -2.790  16.298  0.00  0.00    +0.000 A 
ATOM     10  C   UNL     1      38.971  -1.560  15.865  0.00  0.00    +0.000 A 
ATOM     11  C   UNL     1      37.781  -1.030  16.294  0.00  0.00    +0.000 A 
BRANCH   6  13
ATOM     12  C   UNL     1      35.979  -0.630  19.082  0.00  0.00    +0.000 C 
ATOM     13  C   UNL     1      35.765  -1.244  17.690  0.00  0.00    +0.000 C 
ENDBRANCH   6  13
BRANCH  10  14
ATOM     14  C   UNL     1      39.737  -0.737  14.873  0.00  0.00    +0.000 C 
ATOM     15  C   UNL     1      41.055  -1.394  14.509  0.00  0.00    +0.000 C 
ENDBRANCH  10  14
ENDBRANCH   3  11
ENDBRANCH   1   4
BRANCH   1  16
ATOM     16  O   UNL     1      37.501   2.655  16.027  0.00  0.00    +0.000 OA
BRANCH  16  17
ATOM     17  C   UNL     1      37.817   3.999  15.784  0.00  0.00    +0.000 C 
ATOM     18  O   UNL     1      37.305   4.661  14.827  0.00  0.00    +0.000 OA
BRANCH  17  19
ATOM     19  C   UNL     1      38.760   4.696  16.631  0.00  0.00    +0.000 A 
ATOM     20  C   UNL     1      39.840   5.364  16.127  0.00  0.00    +0.000 A 
ATOM     21  C   UNL     1      40.691   6.063  16.988  0.00  0.00    +0.000 A 
ATOM     22  C   UNL     1      40.470   6.100  18.332  0.00  0.00    +0.000 A 
ATOM     23  C   UNL     1      39.378   5.416  18.810  0.00  0.00    +0.000 A 
ATOM     24  C   UNL     1      38.513   4.714  18.020  0.00  0.00    +0.000 A 
BRANCH  22  25
ATOM     25  C   UNL     1      41.361   6.862  19.227  0.00  0.00    +0.000 A 
ATOM     26  C   UNL     1      42.023   6.379  20.281  0.00  0.00    +0.000 A 
ATOM     27  C   UNL     1      42.842   7.214  21.026  0.00  0.00    +0.000 A 
ATOM     28  C   UNL     1      42.985   8.518  20.708  0.00  0.00    +0.000 A 
ATOM     29  C   UNL     1      42.283   9.046  19.590  0.00  0.00    +0.000 A 
ATOM     30  C   UNL     1      41.476   8.209  18.859  0.00  0.00    +0.000 A 
ENDBRANCH  22  25
ENDBRANCH  17  19
ENDBRANCH  16  17
ENDBRANCH   1  16
TORSDOF 8
ENDMDL
MODEL 6
REMARK VINA RESULT:      -8.2      0.452      2.293
REMARK  Name = 
REMARK  8 active torsions:
REMARK  status: ('A' for Active; 'I' for Inactive)
REMARK    1  A    between atoms: C_2  and  C_3
REMARK    2  A    between atoms: C_7  and  C_8
REMARK    3  A    between atoms: C_10  and  N_11
REMARK    4  A    between atoms: C_12  and  C_14
REMARK    5  A    between atoms: C_14  and  O_16
REMARK    6  A    between atoms: O_16  and  C_17
REMARK    7  A    between atoms: C_17  and  C_19
REMARK    8  A    between atoms: C_22  and  C_23
REMARK                            x       y       z     vdW  Elec       q    Type
REMARK                         _______ _______ _______ _____ _____    ______ ____
ROOT
ATOM      1  C   UNL     1      13.970  -0.634  28.136  0.00  0.00    +0.000 C 
ATOM      2  C   UNL     1      13.907  -1.285  26.579  0.00  0.00    +0.000 C 
ENDROOT
BRANCH   1   4
ATOM      3  N   UNL     1      12.034   0.282  26.848  0.00  0.00    +0.000 NA
ATOM      4  C   UNL     1      12.467  -0.034  28.105  0.00  0.00    +0.000 C 
ATOM      5  O   UNL     1      11.812   0.112  29.083  0.00  0.00    +0.000 OA
BRANCH   3  11
ATOM      6  C   UNL     1      10.620   2.147  26.407  0.00  0.00    +0.000 A 
ATOM      7  C   UNL     1       9.472   2.708  25.861  0.00  0.00    +0.000 A 
ATOM      8  C   UNL     1       8.560   1.957  25.143  0.00  0.00    +0.000 A 
ATOM      9  C   UNL     1       8.847   0.591  24.991  0.00  0.00    +0.000 A 
ATOM     10  C   UNL     1      10.000   0.044  25.540  0.00  0.00    +0.000 A 
ATOM     11  C   UNL     1      10.909   0.783  26.253  0.00  0.00    +0.000 A 
BRANCH   6  13
ATOM     12  C   UNL     1      11.967   4.198  26.353  0.00  0.00    +0.000 C 
ATOM     13  C   UNL     1      11.585   2.961  27.180  0.00  0.00    +0.000 C 
ENDBRANCH   6  13
BRANCH  10  14
ATOM     14  C   UNL     1      10.327  -1.409  25.364  0.00  0.00    +0.000 C 
ATOM     15  C   UNL     1       9.469  -2.281  26.260  0.00  0.00    +0.000 C 
ENDBRANCH  10  14
ENDBRANCH   3  11
ENDBRANCH   1   4
BRANCH   1  16
ATOM     16  O   UNL     1      14.687   0.658  27.638  0.00  0.00    +0.000 OA
BRANCH  16  17
ATOM     17  C   UNL     1      16.055   0.426  27.837  0.00  0.00    +0.000 C 
ATOM     18  O   UNL     1      16.573   0.339  28.995  0.00  0.00    +0.000 OA
BRANCH  17  19
ATOM     19  C   UNL     1      16.947   0.278  26.708  0.00  0.00    +0.000 A 
ATOM     20  C   UNL     1      17.371   1.343  25.966  0.00  0.00    +0.000 A 
ATOM     21  C   UNL     1      18.273   1.147  24.917  0.00  0.00    +0.000 A 
ATOM     22  C   UNL     1      18.751  -0.092  24.611  0.00  0.00    +0.000 A 
ATOM     23  C   UNL     1      18.305  -1.144  25.374  0.00  0.00    +0.000 A 
ATOM     24  C   UNL     1      17.423  -1.016  26.408  0.00  0.00    +0.000 A 
BRANCH  22  25
ATOM     25  C   UNL     1      19.723  -0.281  23.518  0.00  0.00    +0.000 A 
ATOM     26  C   UNL     1      20.447   0.675  22.931  0.00  0.00    +0.000 A 
ATOM     27  C   UNL     1      21.339   0.346  21.921  0.00  0.00    +0.000 A 
ATOM     28  C   UNL     1      21.491  -0.932  21.512  0.00  0.00    +0.000 A 
ATOM     29  C   UNL     1      20.724  -1.958  22.127  0.00  0.00    +0.000 A 
ATOM     30  C   UNL     1      19.845  -1.620  23.127  0.00  0.00    +0.000 A 
ENDBRANCH  22  25
ENDBRANCH  17  19
ENDBRANCH  16  17
ENDBRANCH   1  16
TORSDOF 8
ENDMDL
MODEL 7
REMARK VINA RESULT:      -8.2     23.326     27.003
REMARK  Name = 
REMARK  8 active torsions:
REMARK  status: ('A' for Active; 'I' for Inactive)
REMARK    1  A    between atoms: C_2  and  C_3
REMARK    2  A    between atoms: C_7  and  C_8
REMARK    3  A    between atoms: C_10  and  N_11
REMARK    4  A    between atoms: C_12  and  C_14
REMARK    5  A    between atoms: C_14  and  O_16
REMARK    6  A    between atoms: O_16  and  C_17
REMARK    7  A    between atoms: C_17  and  C_19
REMARK    8  A    between atoms: C_22  and  C_23
REMARK                            x       y       z     vdW  Elec       q    Type
REMARK                         _______ _______ _______ _____ _____    ______ ____
ROOT
ATOM      1  C   UNL     1      36.154   2.217  15.420  0.00  0.00    +0.000 C 
ATOM      2  C   UNL     1      35.290   1.595  16.731  0.00  0.00    +0.000 C 
ENDROOT
BRANCH   1   4
ATOM      3  N   UNL     1      37.662   0.250  15.743  0.00  0.00    +0.000 NA
ATOM      4  C   UNL     1      36.710   0.783  14.919  0.00  0.00    +0.000 C 
ATOM      5  O   UNL     1      36.324   0.252  13.931  0.00  0.00    +0.000 OA
BRANCH   3  11
ATOM      6  C   UNL     1      39.596  -0.949  15.044  0.00  0.00    +0.000 A 
ATOM      7  C   UNL     1      40.397  -2.085  15.046  0.00  0.00    +0.000 A 
ATOM      8  C   UNL     1      40.087  -3.198  15.805  0.00  0.00    +0.000 A 
ATOM      9  C   UNL     1      38.918  -3.130  16.579  0.00  0.00    +0.000 A 
ATOM     10  C   UNL     1      38.128  -1.987  16.568  0.00  0.00    +0.000 A 
ATOM     11  C   UNL     1      38.429  -0.880  15.818  0.00  0.00    +0.000 A 
BRANCH   6  13
ATOM     12  C   UNL     1      41.389   0.104  13.740  0.00  0.00    +0.000 C 
ATOM     13  C   UNL     1      39.936   0.233  14.221  0.00  0.00    +0.000 C 
ENDBRANCH   6  13
BRANCH  10  14
ATOM     14  C   UNL     1      36.889  -1.896  17.407  0.00  0.00    +0.000 C 
ATOM     15  C   UNL     1      37.219  -1.930  18.887  0.00  0.00    +0.000 C 
ENDBRANCH  10  14
ENDBRANCH   3  11
ENDBRANCH   1   4
BRANCH   1  16
ATOM     16  O   UNL     1      37.378   2.580  16.315  0.00  0.00    +0.000 OA
BRANCH  16  17
ATOM     17  C   UNL     1      37.768   3.864  15.911  0.00  0.00    +0.000 C 
ATOM     18  O   UNL     1      37.326   4.413  14.852  0.00  0.00    +0.000 OA
BRANCH  17  19
ATOM     19  C   UNL     1      38.710   4.628  16.699  0.00  0.00    +0.000 A 
ATOM     20  C   UNL     1      39.711   5.364  16.133  0.00  0.00    +0.000 A 
ATOM     21  C   UNL     1      40.562   6.123  16.941  0.00  0.00    +0.000 A 
ATOM     22  C   UNL     1      40.418   6.153  18.295  0.00  0.00    +0.000 A 
ATOM     23  C   UNL     1      39.403   5.401  18.837  0.00  0.00    +0.000 A 
ATOM     24  C   UNL     1      38.543   4.638  18.101  0.00  0.00    +0.000 A 
BRANCH  22  25
ATOM     25  C   UNL     1      41.306   6.979  19.135  0.00  0.00    +0.000 A 
ATOM     26  C   UNL     1      41.544   8.285  18.986  0.00  0.00    +0.000 A 
ATOM     27  C   UNL     1      42.395   8.938  19.864  0.00  0.00    +0.000 A 
ATOM     28  C   UNL     1      42.996   8.276  20.876  0.00  0.00    +0.000 A 
ATOM     29  C   UNL     1      42.754   6.886  21.044  0.00  0.00    +0.000 A 
ATOM     30  C   UNL     1      41.909   6.250  20.167  0.00  0.00    +0.000 A 
ENDBRANCH  22  25
ENDBRANCH  17  19
ENDBRANCH  16  17
ENDBRANCH   1  16
TORSDOF 8
ENDMDL
MODEL 8
REMARK VINA RESULT:      -8.0     22.732     26.133
REMARK  Name = 
REMARK  8 active torsions:
REMARK  status: ('A' for Active; 'I' for Inactive)
REMARK    1  A    between atoms: C_2  and  C_3
REMARK    2  A    between atoms: C_7  and  C_8
REMARK    3  A    between atoms: C_10  and  N_11
REMARK    4  A    between atoms: C_12  and  C_14
REMARK    5  A    between atoms: C_14  and  O_16
REMARK    6  A    between atoms: O_16  and  C_17
REMARK    7  A    between atoms: C_17  and  C_19
REMARK    8  A    between atoms: C_22  and  C_23
REMARK                            x       y       z     vdW  Elec       q    Type
REMARK                         _______ _______ _______ _____ _____    ______ ____
ROOT
ATOM      1  C   UNL     1      38.381   1.426  12.905  0.00  0.00    +0.000 C 
ATOM      2  C   UNL     1      37.119   0.647  12.098  0.00  0.00    +0.000 C 
ENDROOT
BRANCH   1   4
ATOM      3  N   UNL     1      36.821   0.307  14.505  0.00  0.00    +0.000 NA
ATOM      4  C   UNL     1      38.119   0.696  14.325  0.00  0.00    +0.000 C 
ATOM      5  O   UNL     1      38.975   0.519  15.126  0.00  0.00    +0.000 OA
BRANCH   3  11
ATOM      6  C   UNL     1      35.935  -1.724  15.376  0.00  0.00    +0.000 A 
ATOM      7  C   UNL     1      35.153  -2.426  16.286  0.00  0.00    +0.000 A 
ATOM      8  C   UNL     1      34.470  -1.791  17.307  0.00  0.00    +0.000 A 
ATOM      9  C   UNL     1      34.602  -0.395  17.384  0.00  0.00    +0.000 A 
ATOM     10  C   UNL     1      35.389   0.293  16.468  0.00  0.00    +0.000 A 
ATOM     11  C   UNL     1      36.069  -0.330  15.453  0.00  0.00    +0.000 A 
BRANCH   6  13
ATOM     12  C   UNL     1      37.857  -3.167  14.876  0.00  0.00    +0.000 C 
ATOM     13  C   UNL     1      36.655  -2.416  14.283  0.00  0.00    +0.000 C 
ENDBRANCH   6  13
BRANCH  10  14
ATOM     14  C   UNL     1      35.555   1.780  16.554  0.00  0.00    +0.000 C 
ATOM     15  C   UNL     1      34.590   2.499  15.631  0.00  0.00    +0.000 C 
ENDBRANCH  10  14
ENDBRANCH   3  11
ENDBRANCH   1   4
BRANCH   1  16
ATOM     16  O   UNL     1      37.510   2.687  13.189  0.00  0.00    +0.000 OA
BRANCH  16  17
ATOM     17  C   UNL     1      38.396   3.771  13.146  0.00  0.00    +0.000 C 
ATOM     18  O   UNL     1      38.768   4.309  12.055  0.00  0.00    +0.000 OA
BRANCH  17  19
ATOM     19  C   UNL     1      38.935   4.329  14.367  0.00  0.00    +0.000 A 
ATOM     20  C   UNL     1      40.034   5.139  14.379  0.00  0.00    +0.000 A 
ATOM     21  C   UNL     1      40.481   5.691  15.583  0.00  0.00    +0.000 A 
ATOM     22  C   UNL     1      39.841   5.443  16.760  0.00  0.00    +0.000 A 
ATOM     23  C   UNL     1      38.740   4.622  16.718  0.00  0.00    +0.000 A 
ATOM     24  C   UNL     1      38.258   4.052  15.574  0.00  0.00    +0.000 A 
BRANCH  22  25
ATOM     25  C   UNL     1      40.308   6.052  18.020  0.00  0.00    +0.000 A 
ATOM     26  C   UNL     1      39.568   6.278  19.109  0.00  0.00    +0.000 A 
ATOM     27  C   UNL     1      40.147   6.847  20.233  0.00  0.00    +0.000 A 
ATOM     28  C   UNL     1      41.455   7.182  20.252  0.00  0.00    +0.000 A 
ATOM     29  C   UNL     1      42.252   6.950  19.098  0.00  0.00    +0.000 A 
ATOM     30  C   UNL     1      41.667   6.385  17.991  0.00  0.00    +0.000 A 
ENDBRANCH  22  25
ENDBRANCH  17  19
ENDBRANCH  16  17
ENDBRANCH   1  16
TORSDOF 8
ENDMDL
MODEL 9
REMARK VINA RESULT:      -7.9     22.981     26.308
REMARK  Name = 
REMARK  8 active torsions:
REMARK  status: ('A' for Active; 'I' for Inactive)
REMARK    1  A    between atoms: C_2  and  C_3
REMARK    2  A    between atoms: C_7  and  C_8
REMARK    3  A    between atoms: C_10  and  N_11
REMARK    4  A    between atoms: C_12  and  C_14
REMARK    5  A    between atoms: C_14  and  O_16
REMARK    6  A    between atoms: O_16  and  C_17
REMARK    7  A    between atoms: C_17  and  C_19
REMARK    8  A    between atoms: C_22  and  C_23
REMARK                            x       y       z     vdW  Elec       q    Type
REMARK                         _______ _______ _______ _____ _____    ______ ____
ROOT
ATOM      1  C   UNL     1      39.316   0.853  13.127  0.00  0.00    +0.000 C 
ATOM      2  C   UNL     1      38.992   0.454  11.518  0.00  0.00    +0.000 C 
ENDROOT
BRANCH   1   4
ATOM      3  N   UNL     1      37.809   0.218  15.017  0.00  0.00    +0.000 NA
ATOM      4  C   UNL     1      38.190  -0.127  13.750  0.00  0.00    +0.000 C 
ATOM      5  O   UNL     1      37.743  -1.052  13.159  0.00  0.00    +0.000 OA
BRANCH   3  11
ATOM      6  C   UNL     1      35.695   0.427  16.092  0.00  0.00    +0.000 A 
ATOM      7  C   UNL     1      34.780   0.057  17.070  0.00  0.00    +0.000 A 
ATOM      8  C   UNL     1      35.041  -0.958  17.971  0.00  0.00    +0.000 A 
ATOM      9  C   UNL     1      36.283  -1.602  17.855  0.00  0.00    +0.000 A 
ATOM     10  C   UNL     1      37.188  -1.223  16.872  0.00  0.00    +0.000 A 
ATOM     11  C   UNL     1      36.935  -0.218  15.974  0.00  0.00    +0.000 A 
BRANCH   6  13
ATOM     12  C   UNL     1      34.795   2.702  15.905  0.00  0.00    +0.000 C 
ATOM     13  C   UNL     1      35.405   1.520  15.138  0.00  0.00    +0.000 C 
ENDBRANCH   6  13
BRANCH  10  14
ATOM     14  C   UNL     1      38.507  -1.919  16.725  0.00  0.00    +0.000 C 
ATOM     15  C   UNL     1      38.354  -3.254  16.021  0.00  0.00    +0.000 C 
ENDBRANCH  10  14
ENDBRANCH   3  11
ENDBRANCH   1   4
BRANCH   1  16
ATOM     16  O   UNL     1      38.424   2.129  13.058  0.00  0.00    +0.000 OA
BRANCH  16  17
ATOM     17  C   UNL     1      39.296   3.207  13.263  0.00  0.00    +0.000 C 
ATOM     18  O   UNL     1      40.156   3.566  12.397  0.00  0.00    +0.000 OA
BRANCH  17  19
ATOM     19  C   UNL     1      39.252   3.965  14.494  0.00  0.00    +0.000 A 
ATOM     20  C   UNL     1      38.395   3.657  15.512  0.00  0.00    +0.000 A 
ATOM     21  C   UNL     1      38.431   4.393  16.700  0.00  0.00    +0.000 A 
ATOM     22  C   UNL     1      39.310   5.420  16.875  0.00  0.00    +0.000 A 
ATOM     23  C   UNL     1      40.158   5.707  15.832  0.00  0.00    +0.000 A 
ATOM     24  C   UNL     1      40.168   5.027  14.648  0.00  0.00    +0.000 A 
BRANCH  22  25
ATOM     25  C   UNL     1      39.355   6.171  18.143  0.00  0.00    +0.000 A 
ATOM     26  C   UNL     1      40.282   6.054  19.098  0.00  0.00    +0.000 A 
ATOM     27  C   UNL     1      40.207   6.842  20.237  0.00  0.00    +0.000 A 
ATOM     28  C   UNL     1      39.205   7.732  20.405  0.00  0.00    +0.000 A 
ATOM     29  C   UNL     1      38.211   7.864  19.398  0.00  0.00    +0.000 A 
ATOM     30  C   UNL     1      38.297   7.079  18.274  0.00  0.00    +0.000 A 
ENDBRANCH  22  25
ENDBRANCH  17  19
ENDBRANCH  16  17
ENDBRANCH   1  16
TORSDOF 8
ENDMDL
MODEL 10
REMARK VINA RESULT:      -7.9      1.748      3.317
REMARK  Name = 
REMARK  8 active torsions:
REMARK  status: ('A' for Active; 'I' for Inactive)
REMARK    1  A    between atoms: C_2  and  C_3
REMARK    2  A    between atoms: C_7  and  C_8
REMARK    3  A    between atoms: C_10  and  N_11
REMARK    4  A    between atoms: C_12  and  C_14
REMARK    5  A    between atoms: C_14  and  O_16
REMARK    6  A    between atoms: O_16  and  C_17
REMARK    7  A    between atoms: C_17  and  C_19
REMARK    8  A    between atoms: C_22  and  C_23
REMARK                            x       y       z     vdW  Elec       q    Type
REMARK                         _______ _______ _______ _____ _____    ______ ____
ROOT
ATOM      1  C   UNL     1      13.494  -0.739  28.152  0.00  0.00    +0.000 C 
ATOM      2  C   UNL     1      13.104  -1.690  26.812  0.00  0.00    +0.000 C 
ENDROOT
BRANCH   1   4
ATOM      3  N   UNL     1      12.086   1.164  28.955  0.00  0.00    +0.000 NA
ATOM      4  C   UNL     1      12.062   0.010  28.222  0.00  0.00    +0.000 C 
ATOM      5  O   UNL     1      11.090  -0.408  27.686  0.00  0.00    +0.000 OA
BRANCH   3  11
ATOM      6  C   UNL     1      10.784   3.061  28.343  0.00  0.00    +0.000 A 
ATOM      7  C   UNL     1       9.937   4.115  28.661  0.00  0.00    +0.000 A 
ATOM      8  C   UNL     1       9.483   4.328  29.950  0.00  0.00    +0.000 A 
ATOM      9  C   UNL     1       9.922   3.425  30.931  0.00  0.00    +0.000 A 
ATOM     10  C   UNL     1      10.768   2.374  30.599  0.00  0.00    +0.000 A 
ATOM     11  C   UNL     1      11.221   2.157  29.323  0.00  0.00    +0.000 A 
BRANCH   6  13
ATOM     12  C   UNL     1      12.090   4.072  26.528  0.00  0.00    +0.000 C 
ATOM     13  C   UNL     1      11.268   2.849  26.961  0.00  0.00    +0.000 C 
ENDBRANCH   6  13
BRANCH  10  14
ATOM     14  C   UNL     1      11.224   1.391  31.635  0.00  0.00    +0.000 C 
ATOM     15  C   UNL     1      11.940   2.084  32.778  0.00  0.00    +0.000 C 
ENDBRANCH  10  14
ENDBRANCH   3  11
ENDBRANCH   1   4
BRANCH   1  16
ATOM     16  O   UNL     1      14.210   0.328  27.269  0.00  0.00    +0.000 OA
BRANCH  16  17
ATOM     17  C   UNL     1      15.559   0.282  27.646  0.00  0.00    +0.000 C 
ATOM     18  O   UNL     1      15.941   0.457  28.846  0.00  0.00    +0.000 OA
BRANCH  17  19
ATOM     19  C   UNL     1      16.589   0.032  26.662  0.00  0.00    +0.000 A 
ATOM     20  C   UNL     1      16.806  -1.207  26.128  0.00  0.00    +0.000 A 
ATOM     21  C   UNL     1      17.782  -1.381  25.143  0.00  0.00    +0.000 A 
ATOM     22  C   UNL     1      18.531  -0.336  24.691  0.00  0.00    +0.000 A 
ATOM     23  C   UNL     1      18.291   0.897  25.247  0.00  0.00    +0.000 A 
ATOM     24  C   UNL     1      17.355   1.129  26.214  0.00  0.00    +0.000 A 
BRANCH  22  25
ATOM     25  C   UNL     1      19.540  -0.528  23.632  0.00  0.00    +0.000 A 
ATOM     26  C   UNL     1      19.901  -1.693  23.088  0.00  0.00    +0.000 A 
ATOM     27  C   UNL     1      20.857  -1.721  22.084  0.00  0.00    +0.000 A 
ATOM     28  C   UNL     1      21.439  -0.585  21.642  0.00  0.00    +0.000 A 
ATOM     29  C   UNL     1      21.065   0.661  22.215  0.00  0.00    +0.000 A 
ATOM     30  C   UNL     1      20.116   0.675  23.208  0.00  0.00    +0.000 A 
ENDBRANCH  22  25
ENDBRANCH  17  19
ENDBRANCH  16  17
ENDBRANCH   1  16
TORSDOF 8
ENDMDL
