MODEL 1
REMARK VINA RESULT:      -7.7      0.000      0.000
REMARK  Name = 
REMARK  8 active torsions:
REMARK  status: ('A' for Active; 'I' for Inactive)
REMARK    1  A    between atoms: C_2  and  C_4
REMARK    2  A    between atoms: C_4  and  N_5
REMARK    3  A    between atoms: C_6  and  C_8
REMARK    4  A    between atoms: C_13  and  N_14
REMARK    5  A    between atoms: C_15  and  C_17
REMARK    6  A    between atoms: C_20  and  C_21
REMARK    7  A    between atoms: C_21  and  S_22
REMARK    8  A    between atoms: S_22  and  C_23
REMARK                            x       y       z     vdW  Elec       q    Type
REMARK                         _______ _______ _______ _____ _____    ______ ____
ROOT
ATOM      1  N   UNL     1      35.657  -2.215  15.166  0.00  0.00    +0.000 NA
ATOM      2  C   UNL     1      35.375  -1.194  16.106  0.00  0.00    +0.000 C 
ATOM      3  O   UNL     1      34.830  -1.553  17.184  0.00  0.00    +0.000 OA
ENDROOT
BRANCH   1   9
ATOM      4  C   UNL     1      36.246  -4.408  16.012  0.00  0.00    +0.000 A 
ATOM      5  C   UNL     1      35.903  -5.725  16.183  0.00  0.00    +0.000 A 
ATOM      6  C   UNL     1      34.700  -6.240  15.726  0.00  0.00    +0.000 A 
ATOM      7  C   UNL     1      33.807  -5.406  15.075  0.00  0.00    +0.000 A 
ATOM      8  C   UNL     1      34.158  -4.062  14.902  0.00  0.00    +0.000 A 
ATOM      9  C   UNL     1      35.365  -3.590  15.371  0.00  0.00    +0.000 A 
BRANCH   4  11
ATOM     10  N   UNL     1      38.542  -3.502  15.579  0.00  0.00    +0.000 NA
ATOM     11  C   UNL     1      37.520  -3.860  16.491  0.00  0.00    +0.000 C 
ATOM     12  O   UNL     1      37.751  -3.691  17.715  0.00  0.00    +0.000 OA
BRANCH  10  13
ATOM     13  C   UNL     1      39.818  -2.958  15.987  0.00  0.00    +0.000 C 
BRANCH  13  15
ATOM     14  C   UNL     1      40.089  -2.623  13.584  0.00  0.00    +0.000 C 
ATOM     15  C   UNL     1      40.415  -2.047  14.945  0.00  0.00    +0.000 C 
ATOM     16  C   UNL     1      39.723  -0.693  15.012  0.00  0.00    +0.000 C 
ENDBRANCH  13  15
ENDBRANCH  10  13
ENDBRANCH   4  11
ENDBRANCH   1   9
BRANCH   2  17
ATOM     17  C   UNL     1      35.700   0.215  15.842  0.00  0.00    +0.000 A 
ATOM     18  C   UNL     1      35.480   1.183  16.796  0.00  0.00    +0.000 A 
ATOM     19  C   UNL     1      35.775   2.511  16.571  0.00  0.00    +0.000 A 
ATOM     20  C   UNL     1      36.309   2.937  15.369  0.00  0.00    +0.000 A 
ATOM     21  C   UNL     1      36.528   1.967  14.416  0.00  0.00    +0.000 A 
ATOM     22  C   UNL     1      36.231   0.638  14.645  0.00  0.00    +0.000 A 
BRANCH  20  23
ATOM     23  C   UNL     1      36.620   4.383  15.136  0.00  0.00    +0.000 C 
BRANCH  23  24
ATOM     24  S   UNL     1      38.408   4.595  14.822  0.00  0.00    +0.000 S 
BRANCH  24  25
ATOM     25  C   UNL     1      39.112   5.146  16.380  0.00  0.00    +0.000 A 
ATOM     26  C   UNL     1      38.529   4.905  17.596  0.00  0.00    +0.000 A 
ATOM     27  C   UNL     1      39.167   5.378  18.727  0.00  0.00    +0.000 A 
ATOM     28  C   UNL     1      40.355   6.077  18.671  0.00  0.00    +0.000 A 
ATOM     29  C   UNL     1      40.953   6.325  17.434  0.00  0.00    +0.000 A 
ATOM     30  C   UNL     1      40.289   5.839  16.330  0.00  0.00    +0.000 A 
ENDBRANCH  24  25
ENDBRANCH  23  24
ENDBRANCH  20  23
ENDBRANCH   2  17
TORSDOF 8
ENDMDL
MODEL 2
REMARK VINA RESULT:      -7.7      3.585      6.833
REMARK  Name = 
REMARK  8 active torsions:
REMARK  status: ('A' for Active; 'I' for Inactive)
REMARK    1  A    between atoms: C_2  and  C_4
REMARK    2  A    between atoms: C_4  and  N_5
REMARK    3  A    between atoms: C_6  and  C_8
REMARK    4  A    between atoms: C_13  and  N_14
REMARK    5  A    between atoms: C_15  and  C_17
REMARK    6  A    between atoms: C_20  and  C_21
REMARK    7  A    between atoms: C_21  and  S_22
REMARK    8  A    between atoms: S_22  and  C_23
REMARK                            x       y       z     vdW  Elec       q    Type
REMARK                         _______ _______ _______ _____ _____    ______ ____
ROOT
ATOM      1  N   UNL     1      38.183   0.876  15.272  0.00  0.00    +0.000 NA
ATOM      2  C   UNL     1      38.453  -0.064  14.248  0.00  0.00    +0.000 C 
ATOM      3  O   UNL     1      37.488  -0.380  13.501  0.00  0.00    +0.000 OA
ENDROOT
BRANCH   1   9
ATOM      4  C   UNL     1      36.064   0.979  16.443  0.00  0.00    +0.000 A 
ATOM      5  C   UNL     1      34.852   1.598  16.612  0.00  0.00    +0.000 A 
ATOM      6  C   UNL     1      34.471   2.694  15.854  0.00  0.00    +0.000 A 
ATOM      7  C   UNL     1      35.333   3.189  14.892  0.00  0.00    +0.000 A 
ATOM      8  C   UNL     1      36.570   2.556  14.720  0.00  0.00    +0.000 A 
ATOM      9  C   UNL     1      36.911   1.468  15.495  0.00  0.00    +0.000 A 
BRANCH   4  11
ATOM     10  N   UNL     1      36.169  -1.498  16.809  0.00  0.00    +0.000 NA
ATOM     11  C   UNL     1      36.470  -0.184  17.241  0.00  0.00    +0.000 C 
ATOM     12  O   UNL     1      37.093  -0.059  18.325  0.00  0.00    +0.000 OA
BRANCH  10  13
ATOM     13  C   UNL     1      36.540  -2.683  17.548  0.00  0.00    +0.000 C 
BRANCH  13  15
ATOM     14  C   UNL     1      37.185  -3.466  15.328  0.00  0.00    +0.000 C 
ATOM     15  C   UNL     1      37.527  -3.543  16.801  0.00  0.00    +0.000 C 
ATOM     16  C   UNL     1      38.919  -2.947  16.948  0.00  0.00    +0.000 C 
ENDBRANCH  13  15
ENDBRANCH  10  13
ENDBRANCH   4  11
ENDBRANCH   1   9
BRANCH   2  17
ATOM     17  C   UNL     1      39.790  -0.646  14.060  0.00  0.00    +0.000 A 
ATOM     18  C   UNL     1      39.944  -1.959  13.681  0.00  0.00    +0.000 A 
ATOM     19  C   UNL     1      41.188  -2.528  13.500  0.00  0.00    +0.000 A 
ATOM     20  C   UNL     1      42.347  -1.800  13.693  0.00  0.00    +0.000 A 
ATOM     21  C   UNL     1      42.190  -0.485  14.073  0.00  0.00    +0.000 A 
ATOM     22  C   UNL     1      40.943   0.080  14.253  0.00  0.00    +0.000 A 
BRANCH  20  23
ATOM     23  C   UNL     1      43.691  -2.429  13.499  0.00  0.00    +0.000 C 
BRANCH  23  24
ATOM     24  S   UNL     1      45.007  -1.187  13.757  0.00  0.00    +0.000 S 
BRANCH  24  25
ATOM     25  C   UNL     1      45.450  -1.304  15.494  0.00  0.00    +0.000 A 
ATOM     26  C   UNL     1      45.839  -2.473  16.094  0.00  0.00    +0.000 A 
ATOM     27  C   UNL     1      46.157  -2.437  17.438  0.00  0.00    +0.000 A 
ATOM     28  C   UNL     1      46.096  -1.279  18.185  0.00  0.00    +0.000 A 
ATOM     29  C   UNL     1      45.700  -0.085  17.578  0.00  0.00    +0.000 A 
ATOM     30  C   UNL     1      45.392  -0.160  16.238  0.00  0.00    +0.000 A 
ENDBRANCH  24  25
ENDBRANCH  23  24
ENDBRANCH  20  23
ENDBRANCH   2  17
TORSDOF 8
ENDMDL
MODEL 3
REMARK VINA RESULT:      -7.5      1.743      2.391
REMARK  Name = 
REMARK  8 active torsions:
REMARK  status: ('A' for Active; 'I' for Inactive)
REMARK    1  A    between atoms: C_2  and  C_4
REMARK    2  A    between atoms: C_4  and  N_5
REMARK    3  A    between atoms: C_6  and  C_8
REMARK    4  A    between atoms: C_13  and  N_14
REMARK    5  A    between atoms: C_15  and  C_17
REMARK    6  A    between atoms: C_20  and  C_21
REMARK    7  A    between atoms: C_21  and  S_22
REMARK    8  A    between atoms: S_22  and  C_23
REMARK                            x       y       z     vdW  Elec       q    Type
REMARK                         _______ _______ _______ _____ _____    ______ ____
ROOT
ATOM      1  N   UNL     1      36.832  -0.995  16.012  0.00  0.00    +0.000 NA
ATOM      2  C   UNL     1      37.061  -0.068  14.966  0.00  0.00    +0.000 C 
ATOM      3  O   UNL     1      36.865  -0.480  13.792  0.00  0.00    +0.000 OA
ENDROOT
BRANCH   1   9
ATOM      4  C   UNL     1      37.291  -3.365  15.798  0.00  0.00    +0.000 A 
ATOM      5  C   UNL     1      36.810  -4.635  15.602  0.00  0.00    +0.000 A 
ATOM      6  C   UNL     1      35.461  -4.894  15.417  0.00  0.00    +0.000 A 
ATOM      7  C   UNL     1      34.560  -3.844  15.429  0.00  0.00    +0.000 A 
ATOM      8  C   UNL     1      35.051  -2.549  15.629  0.00  0.00    +0.000 A 
ATOM      9  C   UNL     1      36.401  -2.334  15.809  0.00  0.00    +0.000 A 
BRANCH   4  11
ATOM     10  N   UNL     1      39.547  -2.762  14.891  0.00  0.00    +0.000 NA
ATOM     11  C   UNL     1      38.719  -3.087  15.992  0.00  0.00    +0.000 C 
ATOM     12  O   UNL     1      39.254  -3.127  17.128  0.00  0.00    +0.000 OA
BRANCH  10  13
ATOM     13  C   UNL     1      40.959  -2.478  15.014  0.00  0.00    +0.000 C 
BRANCH  13  15
ATOM     14  C   UNL     1      42.734  -1.320  13.803  0.00  0.00    +0.000 C 
ATOM     15  C   UNL     1      41.341  -1.166  14.377  0.00  0.00    +0.000 C 
ATOM     16  C   UNL     1      40.420  -0.900  13.194  0.00  0.00    +0.000 C 
ENDBRANCH  13  15
ENDBRANCH  10  13
ENDBRANCH   4  11
ENDBRANCH   1   9
BRANCH   2  17
ATOM     17  C   UNL     1      37.506   1.307  15.233  0.00  0.00    +0.000 A 
ATOM     18  C   UNL     1      38.663   1.799  14.672  0.00  0.00    +0.000 A 
ATOM     19  C   UNL     1      39.101   3.085  14.908  0.00  0.00    +0.000 A 
ATOM     20  C   UNL     1      38.395   3.948  15.725  0.00  0.00    +0.000 A 
ATOM     21  C   UNL     1      37.237   3.454  16.285  0.00  0.00    +0.000 A 
ATOM     22  C   UNL     1      36.802   2.165  16.046  0.00  0.00    +0.000 A 
BRANCH  20  23
ATOM     23  C   UNL     1      38.883   5.340  15.977  0.00  0.00    +0.000 C 
BRANCH  23  24
ATOM     24  S   UNL     1      38.533   5.823  17.705  0.00  0.00    +0.000 S 
BRANCH  24  25
ATOM     25  C   UNL     1      40.131   6.183  18.441  0.00  0.00    +0.000 A 
ATOM     26  C   UNL     1      40.321   6.333  19.790  0.00  0.00    +0.000 A 
ATOM     27  C   UNL     1      41.599   6.606  20.238  0.00  0.00    +0.000 A 
ATOM     28  C   UNL     1      42.675   6.732  19.384  0.00  0.00    +0.000 A 
ATOM     29  C   UNL     1      42.486   6.579  18.009  0.00  0.00    +0.000 A 
ATOM     30  C   UNL     1      41.200   6.307  17.599  0.00  0.00    +0.000 A 
ENDBRANCH  24  25
ENDBRANCH  23  24
ENDBRANCH  20  23
ENDBRANCH   2  17
TORSDOF 8
ENDMDL
MODEL 4
REMARK VINA RESULT:      -7.5      2.347      3.757
REMARK  Name = 
REMARK  8 active torsions:
REMARK  status: ('A' for Active; 'I' for Inactive)
REMARK    1  A    between atoms: C_2  and  C_4
REMARK    2  A    between atoms: C_4  and  N_5
REMARK    3  A    between atoms: C_6  and  C_8
REMARK    4  A    between atoms: C_13  and  N_14
REMARK    5  A    between atoms: C_15  and  C_17
REMARK    6  A    between atoms: C_20  and  C_21
REMARK    7  A    between atoms: C_21  and  S_22
REMARK    8  A    between atoms: S_22  and  C_23
REMARK                            x       y       z     vdW  Elec       q    Type
REMARK                         _______ _______ _______ _____ _____    ______ ____
ROOT
ATOM      1  N   UNL     1      36.717   1.187  16.842  0.00  0.00    +0.000 NA
ATOM      2  C   UNL     1      36.363   2.394  16.193  0.00  0.00    +0.000 C 
ATOM      3  O   UNL     1      35.338   2.364  15.461  0.00  0.00    +0.000 OA
ENDROOT
BRANCH   1   9
ATOM      4  C   UNL     1      36.374  -0.984  15.820  0.00  0.00    +0.000 A 
ATOM      5  C   UNL     1      35.635  -2.137  15.747  0.00  0.00    +0.000 A 
ATOM      6  C   UNL     1      34.525  -2.354  16.548  0.00  0.00    +0.000 A 
ATOM      7  C   UNL     1      34.140  -1.383  17.455  0.00  0.00    +0.000 A 
ATOM      8  C   UNL     1      34.895  -0.206  17.529  0.00  0.00    +0.000 A 
ATOM      9  C   UNL     1      35.992  -0.029  16.713  0.00  0.00    +0.000 A 
BRANCH   4  11
ATOM     10  N   UNL     1      38.856  -0.912  15.485  0.00  0.00    +0.000 NA
ATOM     11  C   UNL     1      37.547  -0.749  14.971  0.00  0.00    +0.000 C 
ATOM     12  O   UNL     1      37.437  -0.398  13.769  0.00  0.00    +0.000 OA
BRANCH  10  13
ATOM     13  C   UNL     1      40.051  -0.696  14.702  0.00  0.00    +0.000 C 
BRANCH  13  15
ATOM     14  C   UNL     1      40.403  -2.986  15.470  0.00  0.00    +0.000 C 
ATOM     15  C   UNL     1      40.788  -1.978  14.408  0.00  0.00    +0.000 C 
ATOM     16  C   UNL     1      40.294  -2.544  13.084  0.00  0.00    +0.000 C 
ENDBRANCH  13  15
ENDBRANCH  10  13
ENDBRANCH   4  11
ENDBRANCH   1   9
BRANCH   2  17
ATOM     17  C   UNL     1      37.148   3.626  16.363  0.00  0.00    +0.000 A 
ATOM     18  C   UNL     1      37.866   3.855  17.514  0.00  0.00    +0.000 A 
ATOM     19  C   UNL     1      38.609   5.003  17.696  0.00  0.00    +0.000 A 
ATOM     20  C   UNL     1      38.668   5.985  16.724  0.00  0.00    +0.000 A 
ATOM     21  C   UNL     1      37.948   5.753  15.573  0.00  0.00    +0.000 A 
ATOM     22  C   UNL     1      37.206   4.602  15.394  0.00  0.00    +0.000 A 
BRANCH  20  23
ATOM     23  C   UNL     1      39.474   7.228  16.936  0.00  0.00    +0.000 C 
BRANCH  23  24
ATOM     24  S   UNL     1      41.242   6.890  16.622  0.00  0.00    +0.000 S 
BRANCH  24  25
ATOM     25  C   UNL     1      41.998   6.721  18.243  0.00  0.00    +0.000 A 
ATOM     26  C   UNL     1      41.282   6.472  19.385  0.00  0.00    +0.000 A 
ATOM     27  C   UNL     1      41.977   6.361  20.574  0.00  0.00    +0.000 A 
ATOM     28  C   UNL     1      43.348   6.491  20.648  0.00  0.00    +0.000 A 
ATOM     29  C   UNL     1      44.081   6.744  19.487  0.00  0.00    +0.000 A 
ATOM     30  C   UNL     1      43.356   6.848  18.322  0.00  0.00    +0.000 A 
ENDBRANCH  24  25
ENDBRANCH  23  24
ENDBRANCH  20  23
ENDBRANCH   2  17
TORSDOF 8
ENDMDL
MODEL 5
REMARK VINA RESULT:      -7.5      3.358      6.358
REMARK  Name = 
REMARK  8 active torsions:
REMARK  status: ('A' for Active; 'I' for Inactive)
REMARK    1  A    between atoms: C_2  and  C_4
REMARK    2  A    between atoms: C_4  and  N_5
REMARK    3  A    between atoms: C_6  and  C_8
REMARK    4  A    between atoms: C_13  and  N_14
REMARK    5  A    between atoms: C_15  and  C_17
REMARK    6  A    between atoms: C_20  and  C_21
REMARK    7  A    between atoms: C_21  and  S_22
REMARK    8  A    between atoms: S_22  and  C_23
REMARK                            x       y       z     vdW  Elec       q    Type
REMARK                         _______ _______ _______ _____ _____    ______ ____
ROOT
ATOM      1  N   UNL     1      37.158  -1.289  15.380  0.00  0.00    +0.000 NA
ATOM      2  C   UNL     1      38.416  -1.535  15.981  0.00  0.00    +0.000 C 
ATOM      3  O   UNL     1      38.406  -1.901  17.186  0.00  0.00    +0.000 OA
ENDROOT
BRANCH   1   9
ATOM      4  C   UNL     1      35.356  -0.391  16.730  0.00  0.00    +0.000 A 
ATOM      5  C   UNL     1      34.150  -0.593  17.352  0.00  0.00    +0.000 A 
ATOM      6  C   UNL     1      33.492  -1.812  17.309  0.00  0.00    +0.000 A 
ATOM      7  C   UNL     1      34.061  -2.868  16.618  0.00  0.00    +0.000 A 
ATOM      8  C   UNL     1      35.291  -2.661  15.983  0.00  0.00    +0.000 A 
ATOM      9  C   UNL     1      35.913  -1.433  16.050  0.00  0.00    +0.000 A 
BRANCH   4  11
ATOM     10  N   UNL     1      35.909   1.839  15.730  0.00  0.00    +0.000 NA
ATOM     11  C   UNL     1      36.057   0.897  16.776  0.00  0.00    +0.000 C 
ATOM     12  O   UNL     1      36.807   1.209  17.735  0.00  0.00    +0.000 OA
BRANCH  10  13
ATOM     13  C   UNL     1      36.571   3.123  15.716  0.00  0.00    +0.000 C 
BRANCH  13  15
ATOM     14  C   UNL     1      38.906   3.272  15.020  0.00  0.00    +0.000 C 
ATOM     15  C   UNL     1      37.476   3.292  14.523  0.00  0.00    +0.000 C 
ATOM     16  C   UNL     1      37.325   2.085  13.608  0.00  0.00    +0.000 C 
ENDBRANCH  13  15
ENDBRANCH  10  13
ENDBRANCH   4  11
ENDBRANCH   1   9
BRANCH   2  17
ATOM     17  C   UNL     1      39.675  -1.372  15.240  0.00  0.00    +0.000 A 
ATOM     18  C   UNL     1      40.518  -2.439  15.033  0.00  0.00    +0.000 A 
ATOM     19  C   UNL     1      41.706  -2.310  14.342  0.00  0.00    +0.000 A 
ATOM     20  C   UNL     1      42.108  -1.094  13.822  0.00  0.00    +0.000 A 
ATOM     21  C   UNL     1      41.262  -0.027  14.030  0.00  0.00    +0.000 A 
ATOM     22  C   UNL     1      40.074  -0.160  14.722  0.00  0.00    +0.000 A 
BRANCH  20  23
ATOM     23  C   UNL     1      43.401  -0.966  13.078  0.00  0.00    +0.000 C 
BRANCH  23  24
ATOM     24  S   UNL     1      44.519   0.179  13.960  0.00  0.00    +0.000 S 
BRANCH  24  25
ATOM     25  C   UNL     1      45.135  -0.740  15.375  0.00  0.00    +0.000 A 
ATOM     26  C   UNL     1      45.342  -2.095  15.360  0.00  0.00    +0.000 A 
ATOM     27  C   UNL     1      45.822  -2.691  16.511  0.00  0.00    +0.000 A 
ATOM     28  C   UNL     1      46.095  -1.975  17.659  0.00  0.00    +0.000 A 
ATOM     29  C   UNL     1      45.887  -0.595  17.678  0.00  0.00    +0.000 A 
ATOM     30  C   UNL     1      45.409  -0.037  16.514  0.00  0.00    +0.000 A 
ENDBRANCH  24  25
ENDBRANCH  23  24
ENDBRANCH  20  23
ENDBRANCH   2  17
TORSDOF 8
ENDMDL
MODEL 6
REMARK VINA RESULT:      -7.3     26.975     30.069
REMARK  Name = 
REMARK  8 active torsions:
REMARK  status: ('A' for Active; 'I' for Inactive)
REMARK    1  A    between atoms: C_2  and  C_4
REMARK    2  A    between atoms: C_4  and  N_5
REMARK    3  A    between atoms: C_6  and  C_8
REMARK    4  A    between atoms: C_13  and  N_14
REMARK    5  A    between atoms: C_15  and  C_17
REMARK    6  A    between atoms: C_20  and  C_21
REMARK    7  A    between atoms: C_21  and  S_22
REMARK    8  A    between atoms: S_22  and  C_23
REMARK                            x       y       z     vdW  Elec       q    Type
REMARK                         _______ _______ _______ _____ _____    ______ ____
ROOT
ATOM      1  N   UNL     1      26.466  11.799  40.539  0.00  0.00    +0.000 NA
ATOM      2  C   UNL     1      27.036  13.094  40.477  0.00  0.00    +0.000 C 
ATOM      3  O   UNL     1      28.087  13.283  41.144  0.00  0.00    +0.000 OA
ENDROOT
BRANCH   1   9
ATOM      4  C   UNL     1      26.488  10.391  42.512  0.00  0.00    +0.000 A 
ATOM      5  C   UNL     1      27.053   9.342  43.192  0.00  0.00    +0.000 A 
ATOM      6  C   UNL     1      28.125   8.625  42.685  0.00  0.00    +0.000 A 
ATOM      7  C   UNL     1      28.650   8.968  41.452  0.00  0.00    +0.000 A 
ATOM      8  C   UNL     1      28.073  10.038  40.758  0.00  0.00    +0.000 A 
ATOM      9  C   UNL     1      27.008  10.726  41.298  0.00  0.00    +0.000 A 
BRANCH   4  11
ATOM     10  N   UNL     1      25.569  12.336  43.796  0.00  0.00    +0.000 NA
ATOM     11  C   UNL     1      25.355  11.154  43.047  0.00  0.00    +0.000 C 
ATOM     12  O   UNL     1      24.165  10.794  42.862  0.00  0.00    +0.000 OA
BRANCH  10  13
ATOM     13  C   UNL     1      24.498  13.132  44.350  0.00  0.00    +0.000 C 
BRANCH  13  15
ATOM     14  C   UNL     1      25.998  14.864  43.507  0.00  0.00    +0.000 C 
ATOM     15  C   UNL     1      24.570  14.575  43.920  0.00  0.00    +0.000 C 
ATOM     16  C   UNL     1      23.718  14.767  42.673  0.00  0.00    +0.000 C 
ENDBRANCH  13  15
ENDBRANCH  10  13
ENDBRANCH   4  11
ENDBRANCH   1   9
BRANCH   2  17
ATOM     17  C   UNL     1      26.434  14.168  39.674  0.00  0.00    +0.000 A 
ATOM     18  C   UNL     1      27.199  15.206  39.193  0.00  0.00    +0.000 A 
ATOM     19  C   UNL     1      26.657  16.226  38.439  0.00  0.00    +0.000 A 
ATOM     20  C   UNL     1      25.310  16.255  38.129  0.00  0.00    +0.000 A 
ATOM     21  C   UNL     1      24.546  15.215  38.612  0.00  0.00    +0.000 A 
ATOM     22  C   UNL     1      25.093  14.196  39.366  0.00  0.00    +0.000 A 
BRANCH  20  23
ATOM     23  C   UNL     1      24.733  17.370  37.314  0.00  0.00    +0.000 C 
BRANCH  23  24
ATOM     24  S   UNL     1      25.890  17.832  35.976  0.00  0.00    +0.000 S 
BRANCH  24  25
ATOM     25  C   UNL     1      25.605  16.646  34.658  0.00  0.00    +0.000 A 
ATOM     26  C   UNL     1      24.959  16.960  33.491  0.00  0.00    +0.000 A 
ATOM     27  C   UNL     1      24.801  15.962  32.548  0.00  0.00    +0.000 A 
ATOM     28  C   UNL     1      25.265  14.677  32.742  0.00  0.00    +0.000 A 
ATOM     29  C   UNL     1      25.924  14.353  33.929  0.00  0.00    +0.000 A 
ATOM     30  C   UNL     1      26.063  15.373  34.844  0.00  0.00    +0.000 A 
ENDBRANCH  24  25
ENDBRANCH  23  24
ENDBRANCH  20  23
ENDBRANCH   2  17
TORSDOF 8
ENDMDL
MODEL 7
REMARK VINA RESULT:      -7.3      3.463      7.449
REMARK  Name = 
REMARK  8 active torsions:
REMARK  status: ('A' for Active; 'I' for Inactive)
REMARK    1  A    between atoms: C_2  and  C_4
REMARK    2  A    between atoms: C_4  and  N_5
REMARK    3  A    between atoms: C_6  and  C_8
REMARK    4  A    between atoms: C_13  and  N_14
REMARK    5  A    between atoms: C_15  and  C_17
REMARK    6  A    between atoms: C_20  and  C_21
REMARK    7  A    between atoms: C_21  and  S_22
REMARK    8  A    between atoms: S_22  and  C_23
REMARK                            x       y       z     vdW  Elec       q    Type
REMARK                         _______ _______ _______ _____ _____    ______ ____
ROOT
ATOM      1  N   UNL     1      38.191   1.090  15.450  0.00  0.00    +0.000 NA
ATOM      2  C   UNL     1      38.541   0.171  14.432  0.00  0.00    +0.000 C 
ATOM      3  O   UNL     1      37.629  -0.157  13.626  0.00  0.00    +0.000 OA
ENDROOT
BRANCH   1   9
ATOM      4  C   UNL     1      35.995   1.110  16.475  0.00  0.00    +0.000 A 
ATOM      5  C   UNL     1      34.761   1.700  16.583  0.00  0.00    +0.000 A 
ATOM      6  C   UNL     1      34.409   2.817  15.841  0.00  0.00    +0.000 A 
ATOM      7  C   UNL     1      35.325   3.363  14.959  0.00  0.00    +0.000 A 
ATOM      8  C   UNL     1      36.584   2.760  14.850  0.00  0.00    +0.000 A 
ATOM      9  C   UNL     1      36.894   1.650  15.606  0.00  0.00    +0.000 A 
BRANCH   4  11
ATOM     10  N   UNL     1      36.132  -1.377  16.753  0.00  0.00    +0.000 NA
ATOM     11  C   UNL     1      36.369  -0.075  17.256  0.00  0.00    +0.000 C 
ATOM     12  O   UNL     1      36.909   0.020  18.387  0.00  0.00    +0.000 OA
BRANCH  10  13
ATOM     13  C   UNL     1      36.477  -2.582  17.473  0.00  0.00    +0.000 C 
BRANCH  13  15
ATOM     14  C   UNL     1      36.769  -3.204  15.130  0.00  0.00    +0.000 C 
ATOM     15  C   UNL     1      36.844  -3.718  16.552  0.00  0.00    +0.000 C 
ATOM     16  C   UNL     1      38.298  -4.102  16.790  0.00  0.00    +0.000 C 
ENDBRANCH  13  15
ENDBRANCH  10  13
ENDBRANCH   4  11
ENDBRANCH   1   9
BRANCH   2  17
ATOM     17  C   UNL     1      39.900  -0.378  14.315  0.00  0.00    +0.000 A 
ATOM     18  C   UNL     1      40.166  -1.688  14.641  0.00  0.00    +0.000 A 
ATOM     19  C   UNL     1      41.433  -2.224  14.541  0.00  0.00    +0.000 A 
ATOM     20  C   UNL     1      42.503  -1.465  14.106  0.00  0.00    +0.000 A 
ATOM     21  C   UNL     1      42.235  -0.154  13.780  0.00  0.00    +0.000 A 
ATOM     22  C   UNL     1      40.965   0.379  13.881  0.00  0.00    +0.000 A 
BRANCH  20  23
ATOM     23  C   UNL     1      43.875  -2.058  14.006  0.00  0.00    +0.000 C 
BRANCH  23  24
ATOM     24  S   UNL     1      43.921  -3.310  12.676  0.00  0.00    +0.000 S 
BRANCH  24  25
ATOM     25  C   UNL     1      42.820  -2.698  11.396  0.00  0.00    +0.000 A 
ATOM     26  C   UNL     1      43.123  -1.631  10.590  0.00  0.00    +0.000 A 
ATOM     27  C   UNL     1      42.195  -1.254   9.637  0.00  0.00    +0.000 A 
ATOM     28  C   UNL     1      40.990  -1.906   9.475  0.00  0.00    +0.000 A 
ATOM     29  C   UNL     1      40.678  -2.993  10.294  0.00  0.00    +0.000 A 
ATOM     30  C   UNL     1      41.626  -3.340  11.230  0.00  0.00    +0.000 A 
ENDBRANCH  24  25
ENDBRANCH  23  24
ENDBRANCH  20  23
ENDBRANCH   2  17
TORSDOF 8
ENDMDL
MODEL 8
REMARK VINA RESULT:      -7.3      4.932      7.127
REMARK  Name = 
REMARK  8 active torsions:
REMARK  status: ('A' for Active; 'I' for Inactive)
REMARK    1  A    between atoms: C_2  and  C_4
REMARK    2  A    between atoms: C_4  and  N_5
REMARK    3  A    between atoms: C_6  and  C_8
REMARK    4  A    between atoms: C_13  and  N_14
REMARK    5  A    between atoms: C_15  and  C_17
REMARK    6  A    between atoms: C_20  and  C_21
REMARK    7  A    between atoms: C_21  and  S_22
REMARK    8  A    between atoms: S_22  and  C_23
REMARK                            x       y       z     vdW  Elec       q    Type
REMARK                         _______ _______ _______ _____ _____    ______ ____
ROOT
ATOM      1  N   UNL     1      36.813  -0.224  15.125  0.00  0.00    +0.000 NA
ATOM      2  C   UNL     1      37.712   0.712  14.560  0.00  0.00    +0.000 C 
ATOM      3  O   UNL     1      38.452   1.342  15.362  0.00  0.00    +0.000 OA
ENDROOT
BRANCH   1   9
ATOM      4  C   UNL     1      37.362  -1.530  17.092  0.00  0.00    +0.000 A 
ATOM      5  C   UNL     1      37.220  -1.725  18.442  0.00  0.00    +0.000 A 
ATOM      6  C   UNL     1      36.435  -0.896  19.228  0.00  0.00    +0.000 A 
ATOM      7  C   UNL     1      35.768   0.166  18.643  0.00  0.00    +0.000 A 
ATOM      8  C   UNL     1      35.915   0.364  17.264  0.00  0.00    +0.000 A 
ATOM      9  C   UNL     1      36.704  -0.484  16.518  0.00  0.00    +0.000 A 
BRANCH   4  11
ATOM     10  N   UNL     1      39.545  -2.092  15.998  0.00  0.00    +0.000 NA
ATOM     11  C   UNL     1      38.189  -2.407  16.255  0.00  0.00    +0.000 C 
ATOM     12  O   UNL     1      37.731  -3.459  15.741  0.00  0.00    +0.000 OA
BRANCH  10  13
ATOM     13  C   UNL     1      40.412  -2.914  15.183  0.00  0.00    +0.000 C 
BRANCH  13  15
ATOM     14  C   UNL     1      39.756  -2.181  12.949  0.00  0.00    +0.000 C 
ATOM     15  C   UNL     1      40.894  -2.196  13.948  0.00  0.00    +0.000 C 
ATOM     16  C   UNL     1      41.175  -0.741  14.296  0.00  0.00    +0.000 C 
ENDBRANCH  13  15
ENDBRANCH  10  13
ENDBRANCH   4  11
ENDBRANCH   1   9
BRANCH   2  17
ATOM     17  C   UNL     1      37.784   0.941  13.109  0.00  0.00    +0.000 A 
ATOM     18  C   UNL     1      36.724   0.628  12.289  0.00  0.00    +0.000 A 
ATOM     19  C   UNL     1      36.769   0.832  10.926  0.00  0.00    +0.000 A 
ATOM     20  C   UNL     1      37.888   1.364  10.314  0.00  0.00    +0.000 A 
ATOM     21  C   UNL     1      38.948   1.677  11.137  0.00  0.00    +0.000 A 
ATOM     22  C   UNL     1      38.899   1.471  12.501  0.00  0.00    +0.000 A 
BRANCH  20  23
ATOM     23  C   UNL     1      37.926   1.577   8.832  0.00  0.00    +0.000 C 
BRANCH  23  24
ATOM     24  S   UNL     1      36.755   2.897   8.359  0.00  0.00    +0.000 S 
BRANCH  24  25
ATOM     25  C   UNL     1      36.193   2.477   6.706  0.00  0.00    +0.000 A 
ATOM     26  C   UNL     1      36.356   1.235   6.149  0.00  0.00    +0.000 A 
ATOM     27  C   UNL     1      35.879   1.031   4.868  0.00  0.00    +0.000 A 
ATOM     28  C   UNL     1      35.254   2.024   4.142  0.00  0.00    +0.000 A 
ATOM     29  C   UNL     1      35.086   3.290   4.705  0.00  0.00    +0.000 A 
ATOM     30  C   UNL     1      35.573   3.456   5.982  0.00  0.00    +0.000 A 
ENDBRANCH  24  25
ENDBRANCH  23  24
ENDBRANCH  20  23
ENDBRANCH   2  17
TORSDOF 8
ENDMDL
MODEL 9
REMARK VINA RESULT:      -7.2      2.835      3.617
REMARK  Name = 
REMARK  8 active torsions:
REMARK  status: ('A' for Active; 'I' for Inactive)
REMARK    1  A    between atoms: C_2  and  C_4
REMARK    2  A    between atoms: C_4  and  N_5
REMARK    3  A    between atoms: C_6  and  C_8
REMARK    4  A    between atoms: C_13  and  N_14
REMARK    5  A    between atoms: C_15  and  C_17
REMARK    6  A    between atoms: C_20  and  C_21
REMARK    7  A    between atoms: C_21  and  S_22
REMARK    8  A    between atoms: S_22  and  C_23
REMARK                            x       y       z     vdW  Elec       q    Type
REMARK                         _______ _______ _______ _____ _____    ______ ____
ROOT
ATOM      1  N   UNL     1      37.732  -0.950  17.467  0.00  0.00    +0.000 NA
ATOM      2  C   UNL     1      36.428  -0.674  16.988  0.00  0.00    +0.000 C 
ATOM      3  O   UNL     1      35.557  -1.567  17.171  0.00  0.00    +0.000 OA
ENDROOT
BRANCH   1   9
ATOM      4  C   UNL     1      38.553  -3.230  17.426  0.00  0.00    +0.000 A 
ATOM      5  C   UNL     1      38.897  -4.360  18.123  0.00  0.00    +0.000 A 
ATOM      6  C   UNL     1      38.798  -4.435  19.503  0.00  0.00    +0.000 A 
ATOM      7  C   UNL     1      38.339  -3.339  20.212  0.00  0.00    +0.000 A 
ATOM      8  C   UNL     1      37.988  -2.186  19.500  0.00  0.00    +0.000 A 
ATOM      9  C   UNL     1      38.101  -2.153  18.127  0.00  0.00    +0.000 A 
BRANCH   4  11
ATOM     10  N   UNL     1      39.794  -2.580  15.348  0.00  0.00    +0.000 NA
ATOM     11  C   UNL     1      38.653  -3.148  15.964  0.00  0.00    +0.000 C 
ATOM     12  O   UNL     1      37.740  -3.574  15.212  0.00  0.00    +0.000 OA
BRANCH  10  13
ATOM     13  C   UNL     1      39.953  -2.470  13.916  0.00  0.00    +0.000 C 
BRANCH  13  15
ATOM     14  C   UNL     1      38.482  -0.905  12.756  0.00  0.00    +0.000 C 
ATOM     15  C   UNL     1      39.831  -1.048  13.429  0.00  0.00    +0.000 C 
ATOM     16  C   UNL     1      39.810  -0.111  14.629  0.00  0.00    +0.000 C 
ENDBRANCH  13  15
ENDBRANCH  10  13
ENDBRANCH   4  11
ENDBRANCH   1   9
BRANCH   2  17
ATOM     17  C   UNL     1      36.100   0.589  16.312  0.00  0.00    +0.000 A 
ATOM     18  C   UNL     1      35.980   1.762  17.022  0.00  0.00    +0.000 A 
ATOM     19  C   UNL     1      35.671   2.959  16.410  0.00  0.00    +0.000 A 
ATOM     20  C   UNL     1      35.466   3.038  15.045  0.00  0.00    +0.000 A 
ATOM     21  C   UNL     1      35.586   1.863  14.337  0.00  0.00    +0.000 A 
ATOM     22  C   UNL     1      35.895   0.666  14.953  0.00  0.00    +0.000 A 
BRANCH  20  23
ATOM     23  C   UNL     1      35.127   4.343  14.393  0.00  0.00    +0.000 C 
BRANCH  23  24
ATOM     24  S   UNL     1      36.614   5.400  14.298  0.00  0.00    +0.000 S 
BRANCH  24  25
ATOM     25  C   UNL     1      37.870   4.399  13.495  0.00  0.00    +0.000 A 
ATOM     26  C   UNL     1      37.758   3.940  12.209  0.00  0.00    +0.000 A 
ATOM     27  C   UNL     1      38.793   3.179  11.699  0.00  0.00    +0.000 A 
ATOM     28  C   UNL     1      39.919   2.870  12.433  0.00  0.00    +0.000 A 
ATOM     29  C   UNL     1      40.038   3.336  13.744  0.00  0.00    +0.000 A 
ATOM     30  C   UNL     1      38.989   4.091  14.218  0.00  0.00    +0.000 A 
ENDBRANCH  24  25
ENDBRANCH  23  24
ENDBRANCH  20  23
ENDBRANCH   2  17
TORSDOF 8
ENDMDL
MODEL 10
REMARK VINA RESULT:      -7.2      2.681      4.149
REMARK  Name = 
REMARK  8 active torsions:
REMARK  status: ('A' for Active; 'I' for Inactive)
REMARK    1  A    between atoms: C_2  and  C_4
REMARK    2  A    between atoms: C_4  and  N_5
REMARK    3  A    between atoms: C_6  and  C_8
REMARK    4  A    between atoms: C_13  and  N_14
REMARK    5  A    between atoms: C_15  and  C_17
REMARK    6  A    between atoms: C_20  and  C_21
REMARK    7  A    between atoms: C_21  and  S_22
REMARK    8  A    between atoms: S_22  and  C_23
REMARK                            x       y       z     vdW  Elec       q    Type
REMARK                         _______ _______ _______ _____ _____    ______ ____
ROOT
ATOM      1  N   UNL     1      36.666   1.197  16.837  0.00  0.00    +0.000 NA
ATOM      2  C   UNL     1      36.429   2.269  15.943  0.00  0.00    +0.000 C 
ATOM      3  O   UNL     1      35.597   2.063  15.020  0.00  0.00    +0.000 OA
ENDROOT
BRANCH   1   9
ATOM      4  C   UNL     1      36.607  -1.105  16.082  0.00  0.00    +0.000 A 
ATOM      5  C   UNL     1      35.941  -2.303  16.038  0.00  0.00    +0.000 A 
ATOM      6  C   UNL     1      34.709  -2.486  16.647  0.00  0.00    +0.000 A 
ATOM      7  C   UNL     1      34.123  -1.432  17.325  0.00  0.00    +0.000 A 
ATOM      8  C   UNL     1      34.803  -0.209  17.369  0.00  0.00    +0.000 A 
ATOM      9  C   UNL     1      36.027  -0.069  16.750  0.00  0.00    +0.000 A 
BRANCH   4  11
ATOM     10  N   UNL     1      37.991  -0.502  14.082  0.00  0.00    +0.000 NA
ATOM     11  C   UNL     1      37.909  -0.907  15.436  0.00  0.00    +0.000 C 
ATOM     12  O   UNL     1      38.990  -1.086  16.053  0.00  0.00    +0.000 OA
BRANCH  10  13
ATOM     13  C   UNL     1      39.241  -0.289  13.389  0.00  0.00    +0.000 C 
BRANCH  13  15
ATOM     14  C   UNL     1      38.138   1.722  12.553  0.00  0.00    +0.000 C 
ATOM     15  C   UNL     1      39.461   1.157  13.026  0.00  0.00    +0.000 C 
ATOM     16  C   UNL     1      39.833   1.934  14.281  0.00  0.00    +0.000 C 
ENDBRANCH  13  15
ENDBRANCH  10  13
ENDBRANCH   4  11
ENDBRANCH   1   9
BRANCH   2  17
ATOM     17  C   UNL     1      37.118   3.561  16.081  0.00  0.00    +0.000 A 
ATOM     18  C   UNL     1      37.100   4.485  15.061  0.00  0.00    +0.000 A 
ATOM     19  C   UNL     1      37.740   5.702  15.166  0.00  0.00    +0.000 A 
ATOM     20  C   UNL     1      38.434   6.055  16.308  0.00  0.00    +0.000 A 
ATOM     21  C   UNL     1      38.451   5.128  17.327  0.00  0.00    +0.000 A 
ATOM     22  C   UNL     1      37.809   3.910  17.218  0.00  0.00    +0.000 A 
BRANCH  20  23
ATOM     23  C   UNL     1      39.129   7.377  16.408  0.00  0.00    +0.000 C 
BRANCH  23  24
ATOM     24  S   UNL     1      40.354   7.340  17.764  0.00  0.00    +0.000 S 
BRANCH  24  25
ATOM     25  C   UNL     1      39.691   8.411  19.045  0.00  0.00    +0.000 A 
ATOM     26  C   UNL     1      40.349   9.517  19.516  0.00  0.00    +0.000 A 
ATOM     27  C   UNL     1      39.736  10.265  20.503  0.00  0.00    +0.000 A 
ATOM     28  C   UNL     1      38.500   9.938  21.023  0.00  0.00    +0.000 A 
ATOM     29  C   UNL     1      37.826   8.812  20.545  0.00  0.00    +0.000 A 
ATOM     30  C   UNL     1      38.467   8.092  19.562  0.00  0.00    +0.000 A 
ENDBRANCH  24  25
ENDBRANCH  23  24
ENDBRANCH  20  23
ENDBRANCH   2  17
TORSDOF 8
ENDMDL
