MODEL 1
REMARK VINA RESULT:      -6.1      0.000      0.000
REMARK  Name = 
REMARK  3 active torsions:
REMARK  status: ('A' for Active; 'I' for Inactive)
REMARK    1  A    between atoms: C_4  and  N_5
REMARK    2  A    between atoms: C_6  and  C_8
REMARK    3  A    between atoms: C_14  and  C_15
REMARK                            x       y       z     vdW  Elec       q    Type
REMARK                         _______ _______ _______ _____ _____    ______ ____
ROOT
ATOM      1  C   UNL     1      32.086  22.278   7.991  0.00  0.00    +0.000 C 
ATOM      2  C   UNL     1      32.435  21.682   9.335  0.00  0.00    +0.000 A 
ATOM      3  S   UNL     1      33.910  21.097   9.898  0.00  0.00    +0.000 S 
ATOM      4  C   UNL     1      33.437  20.604  11.517  0.00  0.00    +0.000 A 
ATOM      5  C   UNL     1      32.124  20.931  11.523  0.00  0.00    +0.000 A 
ATOM      6  C   UNL     1      31.604  21.489  10.396  0.00  0.00    +0.000 A 
ATOM      7  C   UNL     1      30.136  21.922  10.228  0.00  0.00    +0.000 C 
ENDROOT
BRANCH   4   8
ATOM      8  N   UNL     1      34.445  20.074  12.246  0.00  0.00    +0.000 NA
ATOM      9  C   UNL     1      35.576  19.410  12.337  0.00  0.00    +0.000 C 
ATOM     10  O   UNL     1      36.109  18.996  11.291  0.00  0.00    +0.000 OA
BRANCH   9  11
ATOM     11  C   UNL     1      36.218  19.152  13.652  0.00  0.00    +0.000 A 
ATOM     12  C   UNL     1      36.876  20.104  14.366  0.00  0.00    +0.000 A 
ATOM     13  C   UNL     1      37.462  19.842  15.582  0.00  0.00    +0.000 A 
ATOM     14  C   UNL     1      37.394  18.561  16.125  0.00  0.00    +0.000 A 
ATOM     15  C   UNL     1      36.724  17.611  15.387  0.00  0.00    +0.000 A 
ATOM     16  C   UNL     1      36.140  17.885  14.169  0.00  0.00    +0.000 A 
ENDBRANCH   9  11
ENDBRANCH   4   8
BRANCH   5  17
ATOM     17  C   UNL     1      31.253  20.708  12.695  0.00  0.00    +0.000 C 
ATOM     18  N   UNL     1      30.685  21.804  13.407  0.00  0.00    +0.000 NA
ATOM     19  O   UNL     1      30.980  19.589  13.102  0.00  0.00    +0.000 OA
ENDBRANCH   5  17
TORSDOF 3
ENDMDL
MODEL 2
REMARK VINA RESULT:      -6.0     31.969     33.742
REMARK  Name = 
REMARK  3 active torsions:
REMARK  status: ('A' for Active; 'I' for Inactive)
REMARK    1  A    between atoms: C_4  and  N_5
REMARK    2  A    between atoms: C_6  and  C_8
REMARK    3  A    between atoms: C_14  and  C_15
REMARK                            x       y       z     vdW  Elec       q    Type
REMARK                         _______ _______ _______ _____ _____    ______ ____
ROOT
ATOM      1  C   UNL     1      25.368 -12.347  25.647  0.00  0.00    +0.000 C 
ATOM      2  C   UNL     1      24.679 -11.060  25.257  0.00  0.00    +0.000 A 
ATOM      3  S   UNL     1      23.323 -10.324  25.930  0.00  0.00    +0.000 S 
ATOM      4  C   UNL     1      23.211  -8.906  24.898  0.00  0.00    +0.000 A 
ATOM      5  C   UNL     1      24.262  -9.096  24.069  0.00  0.00    +0.000 A 
ATOM      6  C   UNL     1      25.023 -10.209  24.253  0.00  0.00    +0.000 A 
ATOM      7  C   UNL     1      26.253 -10.581  23.404  0.00  0.00    +0.000 C 
ENDROOT
BRANCH   4   8
ATOM      8  N   UNL     1      22.179  -8.086  25.203  0.00  0.00    +0.000 NA
ATOM      9  C   UNL     1      21.526  -6.954  25.062  0.00  0.00    +0.000 C 
ATOM     10  O   UNL     1      21.975  -6.102  24.272  0.00  0.00    +0.000 OA
BRANCH   9  11
ATOM     11  C   UNL     1      20.278  -6.681  25.820  0.00  0.00    +0.000 A 
ATOM     12  C   UNL     1      19.737  -5.440  25.954  0.00  0.00    +0.000 A 
ATOM     13  C   UNL     1      18.580  -5.212  26.661  0.00  0.00    +0.000 A 
ATOM     14  C   UNL     1      17.918  -6.273  27.272  0.00  0.00    +0.000 A 
ATOM     15  C   UNL     1      18.481  -7.521  27.127  0.00  0.00    +0.000 A 
ATOM     16  C   UNL     1      19.642  -7.739  26.416  0.00  0.00    +0.000 A 
ENDBRANCH   9  11
ENDBRANCH   4   8
BRANCH   5  17
ATOM     17  C   UNL     1      24.606  -8.148  22.989  0.00  0.00    +0.000 C 
ATOM     18  N   UNL     1      24.033  -8.277  21.690  0.00  0.00    +0.000 NA
ATOM     19  O   UNL     1      25.384  -7.222  23.156  0.00  0.00    +0.000 OA
ENDBRANCH   5  17
TORSDOF 3
ENDMDL
MODEL 3
REMARK VINA RESULT:      -6.0     31.926     32.973
REMARK  Name = 
REMARK  3 active torsions:
REMARK  status: ('A' for Active; 'I' for Inactive)
REMARK    1  A    between atoms: C_4  and  N_5
REMARK    2  A    between atoms: C_6  and  C_8
REMARK    3  A    between atoms: C_14  and  C_15
REMARK                            x       y       z     vdW  Elec       q    Type
REMARK                         _______ _______ _______ _____ _____    ______ ____
ROOT
ATOM      1  C   UNL     1      22.623 -10.348  19.367  0.00  0.00    +0.000 C 
ATOM      2  C   UNL     1      22.746  -9.603  20.676  0.00  0.00    +0.000 A 
ATOM      3  S   UNL     1      21.540  -8.987  21.677  0.00  0.00    +0.000 S 
ATOM      4  C   UNL     1      22.534  -8.293  22.948  0.00  0.00    +0.000 A 
ATOM      5  C   UNL     1      23.778  -8.589  22.506  0.00  0.00    +0.000 A 
ATOM      6  C   UNL     1      23.890  -9.267  21.331  0.00  0.00    +0.000 A 
ATOM      7  C   UNL     1      25.222  -9.684  20.683  0.00  0.00    +0.000 C 
ENDROOT
BRANCH   4   8
ATOM      8  N   UNL     1      21.826  -7.702  23.937  0.00  0.00    +0.000 NA
ATOM      9  C   UNL     1      21.750  -6.920  24.991  0.00  0.00    +0.000 C 
ATOM     10  O   UNL     1      22.790  -6.374  25.405  0.00  0.00    +0.000 OA
BRANCH   9  11
ATOM     11  C   UNL     1      20.458  -6.682  25.686  0.00  0.00    +0.000 A 
ATOM     12  C   UNL     1      19.934  -5.444  25.891  0.00  0.00    +0.000 A 
ATOM     13  C   UNL     1      18.736  -5.248  26.537  0.00  0.00    +0.000 A 
ATOM     14  C   UNL     1      18.012  -6.341  27.008  0.00  0.00    +0.000 A 
ATOM     15  C   UNL     1      18.560  -7.585  26.791  0.00  0.00    +0.000 A 
ATOM     16  C   UNL     1      19.762  -7.770  26.142  0.00  0.00    +0.000 A 
ENDBRANCH   9  11
ENDBRANCH   4   8
BRANCH   5  17
ATOM     17  C   UNL     1      24.998  -8.208  23.247  0.00  0.00    +0.000 C 
ATOM     18  N   UNL     1      25.699  -9.158  24.045  0.00  0.00    +0.000 NA
ATOM     19  O   UNL     1      25.458  -7.077  23.210  0.00  0.00    +0.000 OA
ENDBRANCH   5  17
TORSDOF 3
ENDMDL
MODEL 4
REMARK VINA RESULT:      -5.9     16.441     17.942
REMARK  Name = 
REMARK  3 active torsions:
REMARK  status: ('A' for Active; 'I' for Inactive)
REMARK    1  A    between atoms: C_4  and  N_5
REMARK    2  A    between atoms: C_6  and  C_8
REMARK    3  A    between atoms: C_14  and  C_15
REMARK                            x       y       z     vdW  Elec       q    Type
REMARK                         _______ _______ _______ _____ _____    ______ ____
ROOT
ATOM      1  C   UNL     1      22.903  27.812  28.656  0.00  0.00    +0.000 C 
ATOM      2  C   UNL     1      23.982  26.756  28.583  0.00  0.00    +0.000 A 
ATOM      3  S   UNL     1      24.781  26.131  27.238  0.00  0.00    +0.000 S 
ATOM      4  C   UNL     1      25.848  24.983  28.032  0.00  0.00    +0.000 A 
ATOM      5  C   UNL     1      25.509  25.158  29.330  0.00  0.00    +0.000 A 
ATOM      6  C   UNL     1      24.545  26.075  29.617  0.00  0.00    +0.000 A 
ATOM      7  C   UNL     1      24.039  26.402  31.034  0.00  0.00    +0.000 C 
ENDROOT
BRANCH   4   8
ATOM      8  N   UNL     1      26.646  24.298  27.182  0.00  0.00    +0.000 NA
ATOM      9  C   UNL     1      26.817  23.498  26.154  0.00  0.00    +0.000 C 
ATOM     10  O   UNL     1      25.810  23.074  25.555  0.00  0.00    +0.000 OA
BRANCH   9  11
ATOM     11  C   UNL     1      28.174  23.098  25.702  0.00  0.00    +0.000 A 
ATOM     12  C   UNL     1      29.081  22.477  26.505  0.00  0.00    +0.000 A 
ATOM     13  C   UNL     1      30.331  22.116  26.063  0.00  0.00    +0.000 A 
ATOM     14  C   UNL     1      30.710  22.382  24.750  0.00  0.00    +0.000 A 
ATOM     15  C   UNL     1      29.780  23.011  23.953  0.00  0.00    +0.000 A 
ATOM     16  C   UNL     1      28.528  23.370  24.406  0.00  0.00    +0.000 A 
ENDBRANCH   9  11
ENDBRANCH   4   8
BRANCH   5  17
ATOM     17  C   UNL     1      26.144  24.400  30.428  0.00  0.00    +0.000 C 
ATOM     18  N   UNL     1      27.160  24.989  31.235  0.00  0.00    +0.000 NA
ATOM     19  O   UNL     1      25.831  23.249  30.692  0.00  0.00    +0.000 OA
ENDBRANCH   5  17
TORSDOF 3
ENDMDL
MODEL 5
REMARK VINA RESULT:      -5.9      1.893      2.597
REMARK  Name = 
REMARK  3 active torsions:
REMARK  status: ('A' for Active; 'I' for Inactive)
REMARK    1  A    between atoms: C_4  and  N_5
REMARK    2  A    between atoms: C_6  and  C_8
REMARK    3  A    between atoms: C_14  and  C_15
REMARK                            x       y       z     vdW  Elec       q    Type
REMARK                         _______ _______ _______ _____ _____    ______ ____
ROOT
ATOM      1  C   UNL     1      29.649  21.916  11.305  0.00  0.00    +0.000 C 
ATOM      2  C   UNL     1      31.032  21.311  11.229  0.00  0.00    +0.000 A 
ATOM      3  S   UNL     1      32.105  20.930  12.471  0.00  0.00    +0.000 S 
ATOM      4  C   UNL     1      33.439  20.288  11.524  0.00  0.00    +0.000 A 
ATOM      5  C   UNL     1      32.958  20.414  10.266  0.00  0.00    +0.000 A 
ATOM      6  C   UNL     1      31.714  20.942  10.111  0.00  0.00    +0.000 A 
ATOM      7  C   UNL     1      31.013  21.156   8.757  0.00  0.00    +0.000 C 
ENDROOT
BRANCH   4   8
ATOM      8  N   UNL     1      34.493  19.882  12.268  0.00  0.00    +0.000 NA
ATOM      9  C   UNL     1      35.684  19.338  12.378  0.00  0.00    +0.000 C 
ATOM     10  O   UNL     1      36.260  18.951  11.343  0.00  0.00    +0.000 OA
BRANCH   9  11
ATOM     11  C   UNL     1      36.344  19.181  13.699  0.00  0.00    +0.000 A 
ATOM     12  C   UNL     1      37.021  20.181  14.324  0.00  0.00    +0.000 A 
ATOM     13  C   UNL     1      37.624  20.012  15.548  0.00  0.00    +0.000 A 
ATOM     14  C   UNL     1      37.554  18.780  16.194  0.00  0.00    +0.000 A 
ATOM     15  C   UNL     1      36.866  17.780  15.545  0.00  0.00    +0.000 A 
ATOM     16  C   UNL     1      36.265  17.960  14.317  0.00  0.00    +0.000 A 
ENDBRANCH   9  11
ENDBRANCH   4   8
BRANCH   5  17
ATOM     17  C   UNL     1      33.728  20.000   9.075  0.00  0.00    +0.000 C 
ATOM     18  N   UNL     1      34.496  20.944   8.333  0.00  0.00    +0.000 NA
ATOM     19  O   UNL     1      33.744  18.846   8.676  0.00  0.00    +0.000 OA
ENDBRANCH   5  17
TORSDOF 3
ENDMDL
MODEL 6
REMARK VINA RESULT:      -5.9     29.638     31.833
REMARK  Name = 
REMARK  3 active torsions:
REMARK  status: ('A' for Active; 'I' for Inactive)
REMARK    1  A    between atoms: C_4  and  N_5
REMARK    2  A    between atoms: C_6  and  C_8
REMARK    3  A    between atoms: C_14  and  C_15
REMARK                            x       y       z     vdW  Elec       q    Type
REMARK                         _______ _______ _______ _____ _____    ______ ____
ROOT
ATOM      1  C   UNL     1      34.214  -0.997  38.532  0.00  0.00    +0.000 C 
ATOM      2  C   UNL     1      34.036  -1.309  37.064  0.00  0.00    +0.000 A 
ATOM      3  S   UNL     1      33.999  -2.800  36.282  0.00  0.00    +0.000 S 
ATOM      4  C   UNL     1      33.759  -2.262  34.626  0.00  0.00    +0.000 A 
ATOM      5  C   UNL     1      33.723  -0.919  34.785  0.00  0.00    +0.000 A 
ATOM      6  C   UNL     1      33.866  -0.424  36.045  0.00  0.00    +0.000 A 
ATOM      7  C   UNL     1      33.849   1.072  36.407  0.00  0.00    +0.000 C 
ENDROOT
BRANCH   4   8
ATOM      8  N   UNL     1      33.686  -3.269  33.727  0.00  0.00    +0.000 NA
ATOM      9  C   UNL     1      33.118  -4.359  33.261  0.00  0.00    +0.000 C 
ATOM     10  O   UNL     1      32.122  -4.813  33.856  0.00  0.00    +0.000 OA
BRANCH   9  11
ATOM     11  C   UNL     1      33.640  -5.048  32.054  0.00  0.00    +0.000 A 
ATOM     12  C   UNL     1      33.000  -5.048  30.853  0.00  0.00    +0.000 A 
ATOM     13  C   UNL     1      33.503  -5.693  29.748  0.00  0.00    +0.000 A 
ATOM     14  C   UNL     1      34.712  -6.379  29.834  0.00  0.00    +0.000 A 
ATOM     15  C   UNL     1      35.345  -6.369  31.056  0.00  0.00    +0.000 A 
ATOM     16  C   UNL     1      34.831  -5.719  32.158  0.00  0.00    +0.000 A 
ENDBRANCH   9  11
ENDBRANCH   4   8
BRANCH   5  17
ATOM     17  C   UNL     1      33.535   0.012  33.653  0.00  0.00    +0.000 C 
ATOM     18  N   UNL     1      34.504   0.107  32.612  0.00  0.00    +0.000 NA
ATOM     19  O   UNL     1      32.554   0.733  33.557  0.00  0.00    +0.000 OA
ENDBRANCH   5  17
TORSDOF 3
ENDMDL
MODEL 7
REMARK VINA RESULT:      -5.8     13.538     14.886
REMARK  Name = 
REMARK  3 active torsions:
REMARK  status: ('A' for Active; 'I' for Inactive)
REMARK    1  A    between atoms: C_4  and  N_5
REMARK    2  A    between atoms: C_6  and  C_8
REMARK    3  A    between atoms: C_14  and  C_15
REMARK                            x       y       z     vdW  Elec       q    Type
REMARK                         _______ _______ _______ _____ _____    ______ ____
ROOT
ATOM      1  C   UNL     1      29.009  29.364  22.483  0.00  0.00    +0.000 C 
ATOM      2  C   UNL     1      28.822  27.918  22.880  0.00  0.00    +0.000 A 
ATOM      3  S   UNL     1      28.486  27.256  24.391  0.00  0.00    +0.000 S 
ATOM      4  C   UNL     1      28.433  25.552  23.965  0.00  0.00    +0.000 A 
ATOM      5  C   UNL     1      28.689  25.601  22.638  0.00  0.00    +0.000 A 
ATOM      6  C   UNL     1      28.890  26.823  22.074  0.00  0.00    +0.000 A 
ATOM      7  C   UNL     1      29.190  27.063  20.584  0.00  0.00    +0.000 C 
ENDROOT
BRANCH   4   8
ATOM      8  N   UNL     1      28.173  24.733  25.010  0.00  0.00    +0.000 NA
ATOM      9  C   UNL     1      28.254  23.565  25.606  0.00  0.00    +0.000 C 
ATOM     10  O   UNL     1      28.852  22.639  25.025  0.00  0.00    +0.000 OA
BRANCH   9  11
ATOM     11  C   UNL     1      27.651  23.335  26.944  0.00  0.00    +0.000 A 
ATOM     12  C   UNL     1      28.152  22.455  27.852  0.00  0.00    +0.000 A 
ATOM     13  C   UNL     1      27.577  22.260  29.086  0.00  0.00    +0.000 A 
ATOM     14  C   UNL     1      26.438  22.978  29.444  0.00  0.00    +0.000 A 
ATOM     15  C   UNL     1      25.946  23.863  28.511  0.00  0.00    +0.000 A 
ATOM     16  C   UNL     1      26.531  24.051  27.277  0.00  0.00    +0.000 A 
ENDBRANCH   9  11
ENDBRANCH   4   8
BRANCH   5  17
ATOM     17  C   UNL     1      28.754  24.389  21.794  0.00  0.00    +0.000 C 
ATOM     18  N   UNL     1      27.686  23.446  21.782  0.00  0.00    +0.000 NA
ATOM     19  O   UNL     1      29.712  24.144  21.077  0.00  0.00    +0.000 OA
ENDBRANCH   5  17
TORSDOF 3
ENDMDL
MODEL 8
REMARK VINA RESULT:      -5.7     12.570     13.835
REMARK  Name = 
REMARK  3 active torsions:
REMARK  status: ('A' for Active; 'I' for Inactive)
REMARK    1  A    between atoms: C_4  and  N_5
REMARK    2  A    between atoms: C_6  and  C_8
REMARK    3  A    between atoms: C_14  and  C_15
REMARK                            x       y       z     vdW  Elec       q    Type
REMARK                         _______ _______ _______ _____ _____    ______ ____
ROOT
ATOM      1  C   UNL     1      28.064  29.199  23.184  0.00  0.00    +0.000 C 
ATOM      2  C   UNL     1      28.559  27.782  23.354  0.00  0.00    +0.000 A 
ATOM      3  S   UNL     1      29.314  27.061  24.676  0.00  0.00    +0.000 S 
ATOM      4  C   UNL     1      29.542  25.439  24.041  0.00  0.00    +0.000 A 
ATOM      5  C   UNL     1      29.005  25.558  22.805  0.00  0.00    +0.000 A 
ATOM      6  C   UNL     1      28.496  26.769  22.448  0.00  0.00    +0.000 A 
ATOM      7  C   UNL     1      27.848  27.081  21.087  0.00  0.00    +0.000 C 
ENDROOT
BRANCH   4   8
ATOM      8  N   UNL     1      30.148  24.592  24.904  0.00  0.00    +0.000 NA
ATOM      9  C   UNL     1      30.551  23.389  25.247  0.00  0.00    +0.000 C 
ATOM     10  O   UNL     1      30.328  22.442  24.469  0.00  0.00    +0.000 OA
BRANCH   9  11
ATOM     11  C   UNL     1      31.260  23.146  26.529  0.00  0.00    +0.000 A 
ATOM     12  C   UNL     1      32.268  23.934  26.991  0.00  0.00    +0.000 A 
ATOM     13  C   UNL     1      32.909  23.690  28.182  0.00  0.00    +0.000 A 
ATOM     14  C   UNL     1      32.533  22.601  28.965  0.00  0.00    +0.000 A 
ATOM     15  C   UNL     1      31.512  21.815  28.480  0.00  0.00    +0.000 A 
ATOM     16  C   UNL     1      30.875  22.069  27.284  0.00  0.00    +0.000 A 
ENDBRANCH   9  11
ENDBRANCH   4   8
BRANCH   5  17
ATOM     17  C   UNL     1      28.953  24.434  21.848  0.00  0.00    +0.000 C 
ATOM     18  N   UNL     1      27.954  23.424  21.957  0.00  0.00    +0.000 NA
ATOM     19  O   UNL     1      29.751  24.320  20.930  0.00  0.00    +0.000 OA
ENDBRANCH   5  17
TORSDOF 3
ENDMDL
MODEL 9
REMARK VINA RESULT:      -5.7     32.058     33.007
REMARK  Name = 
REMARK  3 active torsions:
REMARK  status: ('A' for Active; 'I' for Inactive)
REMARK    1  A    between atoms: C_4  and  N_5
REMARK    2  A    between atoms: C_6  and  C_8
REMARK    3  A    between atoms: C_14  and  C_15
REMARK                            x       y       z     vdW  Elec       q    Type
REMARK                         _______ _______ _______ _____ _____    ______ ____
ROOT
ATOM      1  C   UNL     1      25.921 -10.722  21.909  0.00  0.00    +0.000 C 
ATOM      2  C   UNL     1      24.687  -9.882  22.144  0.00  0.00    +0.000 A 
ATOM      3  S   UNL     1      24.075  -9.254  23.582  0.00  0.00    +0.000 S 
ATOM      4  C   UNL     1      22.653  -8.428  22.965  0.00  0.00    +0.000 A 
ATOM      5  C   UNL     1      22.740  -8.698  21.643  0.00  0.00    +0.000 A 
ATOM      6  C   UNL     1      23.791  -9.450  21.215  0.00  0.00    +0.000 A 
ATOM      7  C   UNL     1      24.046  -9.851  19.751  0.00  0.00    +0.000 C 
ENDROOT
BRANCH   4   8
ATOM      8  N   UNL     1      21.925  -7.802  23.918  0.00  0.00    +0.000 NA
ATOM      9  C   UNL     1      21.816  -6.941  24.905  0.00  0.00    +0.000 C 
ATOM     10  O   UNL     1      22.825  -6.295  25.246  0.00  0.00    +0.000 OA
BRANCH   9  11
ATOM     11  C   UNL     1      20.525  -6.730  25.609  0.00  0.00    +0.000 A 
ATOM     12  C   UNL     1      19.745  -7.746  26.066  0.00  0.00    +0.000 A 
ATOM     13  C   UNL     1      18.553  -7.526  26.716  0.00  0.00    +0.000 A 
ATOM     14  C   UNL     1      18.105  -6.224  26.927  0.00  0.00    +0.000 A 
ATOM     15  C   UNL     1      18.908  -5.210  26.456  0.00  0.00    +0.000 A 
ATOM     16  C   UNL     1      20.102  -5.442  25.805  0.00  0.00    +0.000 A 
ENDBRANCH   9  11
ENDBRANCH   4   8
BRANCH   5  17
ATOM     17  C   UNL     1      21.747  -8.210  20.663  0.00  0.00    +0.000 C 
ATOM     18  N   UNL     1      21.932  -6.968  19.989  0.00  0.00    +0.000 NA
ATOM     19  O   UNL     1      20.738  -8.840  20.387  0.00  0.00    +0.000 OA
ENDBRANCH   5  17
TORSDOF 3
ENDMDL
MODEL 10
REMARK VINA RESULT:      -5.7     25.462     27.994
REMARK  Name = 
REMARK  3 active torsions:
REMARK  status: ('A' for Active; 'I' for Inactive)
REMARK    1  A    between atoms: C_4  and  N_5
REMARK    2  A    between atoms: C_6  and  C_8
REMARK    3  A    between atoms: C_14  and  C_15
REMARK                            x       y       z     vdW  Elec       q    Type
REMARK                         _______ _______ _______ _____ _____    ______ ____
ROOT
ATOM      1  C   UNL     1      33.526   2.297  33.605  0.00  0.00    +0.000 C 
ATOM      2  C   UNL     1      33.812   3.402  34.596  0.00  0.00    +0.000 A 
ATOM      3  S   UNL     1      33.916   5.065  34.348  0.00  0.00    +0.000 S 
ATOM      4  C   UNL     1      34.271   5.588  35.987  0.00  0.00    +0.000 A 
ATOM      5  C   UNL     1      34.290   4.408  36.646  0.00  0.00    +0.000 A 
ATOM      6  C   UNL     1      34.052   3.276  35.929  0.00  0.00    +0.000 A 
ATOM      7  C   UNL     1      34.035   1.853  36.516  0.00  0.00    +0.000 C 
ENDROOT
BRANCH   4   8
ATOM      8  N   UNL     1      34.416   6.927  36.116  0.00  0.00    +0.000 NA
ATOM      9  C   UNL     1      34.305   8.037  36.811  0.00  0.00    +0.000 C 
ATOM     10  O   UNL     1      33.842   7.972  37.966  0.00  0.00    +0.000 OA
BRANCH   9  11
ATOM     11  C   UNL     1      34.717   9.347  36.247  0.00  0.00    +0.000 A 
ATOM     12  C   UNL     1      34.010  10.496  36.422  0.00  0.00    +0.000 A 
ATOM     13  C   UNL     1      34.413  11.699  35.891  0.00  0.00    +0.000 A 
ATOM     14  C   UNL     1      35.584  11.772  35.142  0.00  0.00    +0.000 A 
ATOM     15  C   UNL     1      36.286  10.599  34.975  0.00  0.00    +0.000 A 
ATOM     16  C   UNL     1      35.873   9.398  35.512  0.00  0.00    +0.000 A 
ENDBRANCH   9  11
ENDBRANCH   4   8
BRANCH   5  17
ATOM     17  C   UNL     1      34.554   4.310  38.097  0.00  0.00    +0.000 C 
ATOM     18  N   UNL     1      35.879   4.141  38.592  0.00  0.00    +0.000 NA
ATOM     19  O   UNL     1      33.661   4.369  38.928  0.00  0.00    +0.000 OA
ENDBRANCH   5  17
TORSDOF 3
ENDMDL
