MODEL 1
REMARK VINA RESULT:      -7.7      0.000      0.000
REMARK  Name = 
REMARK  6 active torsions:
REMARK  status: ('A' for Active; 'I' for Inactive)
REMARK    1  A    between atoms: C_2  and  O_4
REMARK    2  A    between atoms: O_4  and  C_5
REMARK    3  A    between atoms: C_8  and  N_9
REMARK    4  A    between atoms: C_10  and  C_12
REMARK    5  A    between atoms: C_13  and  N_14
REMARK    6  A    between atoms: C_15  and  C_17
REMARK                            x       y       z     vdW  Elec       q    Type
REMARK                         _______ _______ _______ _____ _____    ______ ____
ROOT
ATOM      1  C   UNL     1      12.686   0.433  27.958  0.00  0.00    +0.000 A 
ATOM      2  C   UNL     1      12.042  -0.607  28.574  0.00  0.00    +0.000 A 
ATOM      3  S   UNL     1      10.467  -0.032  28.811  0.00  0.00    +0.000 S 
ATOM      4  C   UNL     1      10.648   1.529  28.120  0.00  0.00    +0.000 A 
ATOM      5  C   UNL     1      11.947   1.549  27.723  0.00  0.00    +0.000 A 
ATOM      6  C   UNL     1      12.488   2.816  27.045  0.00  0.00    +0.000 C 
ATOM      7  C   UNL     1      11.335   3.494  26.390  0.00  0.00    +0.000 C 
ATOM      8  C   UNL     1      10.393   3.899  27.534  0.00  0.00    +0.000 C 
ATOM      9  C   UNL     1       9.674   2.673  27.942  0.00  0.00    +0.000 C 
ENDROOT
BRANCH   1  11
ATOM     10  N   UNL     1      14.529  -0.049  26.268  0.00  0.00    +0.000 NA
ATOM     11  C   UNL     1      14.129   0.266  27.594  0.00  0.00    +0.000 C 
ATOM     12  O   UNL     1      15.040   0.392  28.422  0.00  0.00    +0.000 OA
BRANCH  10  16
ATOM     13  C   UNL     1      18.610  -0.591  25.323  0.00  0.00    +0.000 A 
ATOM     14  C   UNL     1      18.032   0.656  25.291  0.00  0.00    +0.000 A 
ATOM     15  C   UNL     1      16.705   0.868  25.593  0.00  0.00    +0.000 A 
ATOM     16  C   UNL     1      15.922  -0.204  25.942  0.00  0.00    +0.000 A 
ATOM     17  C   UNL     1      16.481  -1.460  25.980  0.00  0.00    +0.000 A 
ATOM     18  C   UNL     1      17.805  -1.647  25.675  0.00  0.00    +0.000 A 
BRANCH  13  19
ATOM     19  O   UNL     1      19.930  -0.812  25.023  0.00  0.00    +0.000 OA
BRANCH  19  21
ATOM     20  C   UNL     1      20.936  -0.790  22.818  0.00  0.00    +0.000 C 
ATOM     21  C   UNL     1      20.531   0.011  24.036  0.00  0.00    +0.000 C 
ATOM     22  C   UNL     1      21.825   0.535  24.656  0.00  0.00    +0.000 C 
ENDBRANCH  19  21
ENDBRANCH  13  19
ENDBRANCH  10  16
ENDBRANCH   1  11
BRANCH   2  23
ATOM     23  N   UNL     1      12.581  -1.906  28.941  0.00  0.00    +0.000 NA
ATOM     24  C   UNL     1      12.089  -3.054  28.287  0.00  0.00    +0.000 C 
ATOM     25  O   UNL     1      11.204  -2.926  27.407  0.00  0.00    +0.000 OA
BRANCH  24  26
ATOM     26  C   UNL     1      12.572  -4.392  28.593  0.00  0.00    +0.000 A 
ATOM     27  C   UNL     1      12.914  -4.758  29.865  0.00  0.00    +0.000 A 
ATOM     28  C   UNL     1      13.368  -6.023  30.147  0.00  0.00    +0.000 A 
ATOM     29  C   UNL     1      13.496  -6.974  29.151  0.00  0.00    +0.000 A 
ATOM     30  C   UNL     1      13.155  -6.611  27.882  0.00  0.00    +0.000 A 
ATOM     31  C   UNL     1      12.699  -5.350  27.587  0.00  0.00    +0.000 A 
ENDBRANCH  24  26
ENDBRANCH   2  23
TORSDOF 6
ENDMDL
MODEL 2
REMARK VINA RESULT:      -7.5     23.402     27.165
REMARK  Name = 
REMARK  6 active torsions:
REMARK  status: ('A' for Active; 'I' for Inactive)
REMARK    1  A    between atoms: C_2  and  O_4
REMARK    2  A    between atoms: O_4  and  C_5
REMARK    3  A    between atoms: C_8  and  N_9
REMARK    4  A    between atoms: C_10  and  C_12
REMARK    5  A    between atoms: C_13  and  N_14
REMARK    6  A    between atoms: C_15  and  C_17
REMARK                            x       y       z     vdW  Elec       q    Type
REMARK                         _______ _______ _______ _____ _____    ______ ____
ROOT
ATOM      1  C   UNL     1      39.514  -0.780  14.519  0.00  0.00    +0.000 A 
ATOM      2  C   UNL     1      39.098  -1.955  15.089  0.00  0.00    +0.000 A 
ATOM      3  S   UNL     1      40.512  -2.878  15.203  0.00  0.00    +0.000 S 
ATOM      4  C   UNL     1      41.619  -1.756  14.524  0.00  0.00    +0.000 A 
ATOM      5  C   UNL     1      40.837  -0.685  14.227  0.00  0.00    +0.000 A 
ATOM      6  C   UNL     1      41.494   0.548  13.588  0.00  0.00    +0.000 C 
ATOM      7  C   UNL     1      42.919   0.563  14.019  0.00  0.00    +0.000 C 
ATOM      8  C   UNL     1      43.543  -0.706  13.420  0.00  0.00    +0.000 C 
ATOM      9  C   UNL     1      43.108  -1.832  14.274  0.00  0.00    +0.000 C 
ENDROOT
BRANCH   1  11
ATOM     10  N   UNL     1      38.097   1.190  15.291  0.00  0.00    +0.000 NA
ATOM     11  C   UNL     1      38.498   0.292  14.267  0.00  0.00    +0.000 C 
ATOM     12  O   UNL     1      37.962   0.450  13.163  0.00  0.00    +0.000 OA
BRANCH  10  16
ATOM     13  C   UNL     1      35.295   4.248  14.494  0.00  0.00    +0.000 A 
ATOM     14  C   UNL     1      34.887   2.989  14.867  0.00  0.00    +0.000 A 
ATOM     15  C   UNL     1      35.773   1.969  15.134  0.00  0.00    +0.000 A 
ATOM     16  C   UNL     1      37.120   2.213  15.026  0.00  0.00    +0.000 A 
ATOM     17  C   UNL     1      37.549   3.465  14.654  0.00  0.00    +0.000 A 
ATOM     18  C   UNL     1      36.648   4.465  14.393  0.00  0.00    +0.000 A 
BRANCH  13  19
ATOM     19  O   UNL     1      34.420   5.269  14.225  0.00  0.00    +0.000 OA
BRANCH  19  21
ATOM     20  C   UNL     1      34.233   7.677  14.425  0.00  0.00    +0.000 C 
ATOM     21  C   UNL     1      34.959   6.509  13.797  0.00  0.00    +0.000 C 
ATOM     22  C   UNL     1      34.690   6.590  12.296  0.00  0.00    +0.000 C 
ENDBRANCH  19  21
ENDBRANCH  13  19
ENDBRANCH  10  16
ENDBRANCH   1  11
BRANCH   2  23
ATOM     23  N   UNL     1      37.755  -2.326  15.502  0.00  0.00    +0.000 NA
ATOM     24  C   UNL     1      36.943  -3.045  14.600  0.00  0.00    +0.000 C 
ATOM     25  O   UNL     1      37.399  -3.346  13.470  0.00  0.00    +0.000 OA
BRANCH  24  26
ATOM     26  C   UNL     1      35.587  -3.456  14.930  0.00  0.00    +0.000 A 
ATOM     27  C   UNL     1      34.974  -4.492  14.282  0.00  0.00    +0.000 A 
ATOM     28  C   UNL     1      33.694  -4.876  14.598  0.00  0.00    +0.000 A 
ATOM     29  C   UNL     1      32.978  -4.225  15.587  0.00  0.00    +0.000 A 
ATOM     30  C   UNL     1      33.587  -3.193  16.235  0.00  0.00    +0.000 A 
ATOM     31  C   UNL     1      34.867  -2.800  15.928  0.00  0.00    +0.000 A 
ENDBRANCH  24  26
ENDBRANCH   2  23
TORSDOF 6
ENDMDL
MODEL 3
REMARK VINA RESULT:      -7.5     24.087     27.007
REMARK  Name = 
REMARK  6 active torsions:
REMARK  status: ('A' for Active; 'I' for Inactive)
REMARK    1  A    between atoms: C_2  and  O_4
REMARK    2  A    between atoms: O_4  and  C_5
REMARK    3  A    between atoms: C_8  and  N_9
REMARK    4  A    between atoms: C_10  and  C_12
REMARK    5  A    between atoms: C_13  and  N_14
REMARK    6  A    between atoms: C_15  and  C_17
REMARK                            x       y       z     vdW  Elec       q    Type
REMARK                         _______ _______ _______ _____ _____    ______ ____
ROOT
ATOM      1  C   UNL     1      37.726   4.527  15.972  0.00  0.00    +0.000 A 
ATOM      2  C   UNL     1      37.418   5.165  14.800  0.00  0.00    +0.000 A 
ATOM      3  S   UNL     1      37.784   6.789  15.109  0.00  0.00    +0.000 S 
ATOM      4  C   UNL     1      38.327   6.635  16.730  0.00  0.00    +0.000 A 
ATOM      5  C   UNL     1      38.202   5.305  16.978  0.00  0.00    +0.000 A 
ATOM      6  C   UNL     1      38.604   4.777  18.363  0.00  0.00    +0.000 C 
ATOM      7  C   UNL     1      39.634   5.704  18.909  0.00  0.00    +0.000 C 
ATOM      8  C   UNL     1      38.924   7.056  19.073  0.00  0.00    +0.000 C 
ATOM      9  C   UNL     1      38.839   7.654  17.723  0.00  0.00    +0.000 C 
ENDROOT
BRANCH   1  11
ATOM     10  N   UNL     1      36.321   2.490  16.575  0.00  0.00    +0.000 NA
ATOM     11  C   UNL     1      37.520   3.045  16.055  0.00  0.00    +0.000 C 
ATOM     12  O   UNL     1      38.377   2.235  15.678  0.00  0.00    +0.000 OA
BRANCH  10  16
ATOM     13  C   UNL     1      35.806  -1.692  16.867  0.00  0.00    +0.000 A 
ATOM     14  C   UNL     1      35.881  -1.068  15.644  0.00  0.00    +0.000 A 
ATOM     15  C   UNL     1      36.048   0.292  15.513  0.00  0.00    +0.000 A 
ATOM     16  C   UNL     1      36.146   1.063  16.645  0.00  0.00    +0.000 A 
ATOM     17  C   UNL     1      36.073   0.459  17.878  0.00  0.00    +0.000 A 
ATOM     18  C   UNL     1      35.906  -0.898  17.984  0.00  0.00    +0.000 A 
BRANCH  13  19
ATOM     19  O   UNL     1      35.638  -3.046  17.007  0.00  0.00    +0.000 OA
BRANCH  19  21
ATOM     20  C   UNL     1      35.906  -5.299  16.154  0.00  0.00    +0.000 C 
ATOM     21  C   UNL     1      36.474  -3.900  16.243  0.00  0.00    +0.000 C 
ATOM     22  C   UNL     1      37.783  -4.015  17.021  0.00  0.00    +0.000 C 
ENDBRANCH  19  21
ENDBRANCH  13  19
ENDBRANCH  10  16
ENDBRANCH   1  11
BRANCH   2  23
ATOM     23  N   UNL     1      36.897   4.586  13.572  0.00  0.00    +0.000 NA
ATOM     24  C   UNL     1      37.806   4.189  12.570  0.00  0.00    +0.000 C 
ATOM     25  O   UNL     1      39.037   4.344  12.763  0.00  0.00    +0.000 OA
BRANCH  24  26
ATOM     26  C   UNL     1      37.372   3.602  11.312  0.00  0.00    +0.000 A 
ATOM     27  C   UNL     1      37.503   2.265  11.061  0.00  0.00    +0.000 A 
ATOM     28  C   UNL     1      37.090   1.717   9.872  0.00  0.00    +0.000 A 
ATOM     29  C   UNL     1      36.527   2.502   8.882  0.00  0.00    +0.000 A 
ATOM     30  C   UNL     1      36.395   3.835   9.130  0.00  0.00    +0.000 A 
ATOM     31  C   UNL     1      36.803   4.395  10.316  0.00  0.00    +0.000 A 
ENDBRANCH  24  26
ENDBRANCH   2  23
TORSDOF 6
ENDMDL
MODEL 4
REMARK VINA RESULT:      -7.5     23.259     27.741
REMARK  Name = 
REMARK  6 active torsions:
REMARK  status: ('A' for Active; 'I' for Inactive)
REMARK    1  A    between atoms: C_2  and  O_4
REMARK    2  A    between atoms: O_4  and  C_5
REMARK    3  A    between atoms: C_8  and  N_9
REMARK    4  A    between atoms: C_10  and  C_12
REMARK    5  A    between atoms: C_13  and  N_14
REMARK    6  A    between atoms: C_15  and  C_17
REMARK                            x       y       z     vdW  Elec       q    Type
REMARK                         _______ _______ _______ _____ _____    ______ ____
ROOT
ATOM      1  C   UNL     1      40.226  -0.403  14.165  0.00  0.00    +0.000 A 
ATOM      2  C   UNL     1      39.572  -1.539  14.564  0.00  0.00    +0.000 A 
ATOM      3  S   UNL     1      40.796  -2.703  14.666  0.00  0.00    +0.000 S 
ATOM      4  C   UNL     1      42.130  -1.728  14.200  0.00  0.00    +0.000 A 
ATOM      5  C   UNL     1      41.567  -0.512  13.977  0.00  0.00    +0.000 A 
ATOM      6  C   UNL     1      42.474   0.645  13.533  0.00  0.00    +0.000 C 
ATOM      7  C   UNL     1      43.839   0.365  14.060  0.00  0.00    +0.000 C 
ATOM      8  C   UNL     1      44.292  -0.925  13.361  0.00  0.00    +0.000 C 
ATOM      9  C   UNL     1      43.602  -2.039  14.046  0.00  0.00    +0.000 C 
ENDROOT
BRANCH   1  11
ATOM     10  N   UNL     1      39.088   1.690  15.064  0.00  0.00    +0.000 NA
ATOM     11  C   UNL     1      39.430   0.851  13.971  0.00  0.00    +0.000 C 
ATOM     12  O   UNL     1      39.033   1.217  12.858  0.00  0.00    +0.000 OA
BRANCH  10  16
ATOM     13  C   UNL     1      36.769   5.169  14.462  0.00  0.00    +0.000 A 
ATOM     14  C   UNL     1      38.140   5.200  14.353  0.00  0.00    +0.000 A 
ATOM     15  C   UNL     1      38.926   4.085  14.544  0.00  0.00    +0.000 A 
ATOM     16  C   UNL     1      38.323   2.891  14.854  0.00  0.00    +0.000 A 
ATOM     17  C   UNL     1      36.954   2.838  14.967  0.00  0.00    +0.000 A 
ATOM     18  C   UNL     1      36.191   3.961  14.773  0.00  0.00    +0.000 A 
BRANCH  13  19
ATOM     19  O   UNL     1      35.979   6.274  14.275  0.00  0.00    +0.000 OA
BRANCH  19  21
ATOM     20  C   UNL     1      35.010   6.616  12.080  0.00  0.00    +0.000 C 
ATOM     21  C   UNL     1      34.804   6.124  13.495  0.00  0.00    +0.000 C 
ATOM     22  C   UNL     1      33.760   7.045  14.124  0.00  0.00    +0.000 C 
ENDBRANCH  19  21
ENDBRANCH  13  19
ENDBRANCH  10  16
ENDBRANCH   1  11
BRANCH   2  23
ATOM     23  N   UNL     1      38.154  -1.709  14.837  0.00  0.00    +0.000 NA
ATOM     24  C   UNL     1      37.686  -1.496  16.151  0.00  0.00    +0.000 C 
ATOM     25  O   UNL     1      38.502  -1.165  17.046  0.00  0.00    +0.000 OA
BRANCH  24  26
ATOM     26  C   UNL     1      36.285  -1.645  16.512  0.00  0.00    +0.000 A 
ATOM     27  C   UNL     1      35.637  -0.711  17.272  0.00  0.00    +0.000 A 
ATOM     28  C   UNL     1      34.315  -0.857  17.610  0.00  0.00    +0.000 A 
ATOM     29  C   UNL     1      33.588  -1.958  17.191  0.00  0.00    +0.000 A 
ATOM     30  C   UNL     1      34.232  -2.889  16.433  0.00  0.00    +0.000 A 
ATOM     31  C   UNL     1      35.555  -2.754  16.088  0.00  0.00    +0.000 A 
ENDBRANCH  24  26
ENDBRANCH   2  23
TORSDOF 6
ENDMDL
MODEL 5
REMARK VINA RESULT:      -7.2     24.760     27.239
REMARK  Name = 
REMARK  6 active torsions:
REMARK  status: ('A' for Active; 'I' for Inactive)
REMARK    1  A    between atoms: C_2  and  O_4
REMARK    2  A    between atoms: O_4  and  C_5
REMARK    3  A    between atoms: C_8  and  N_9
REMARK    4  A    between atoms: C_10  and  C_12
REMARK    5  A    between atoms: C_13  and  N_14
REMARK    6  A    between atoms: C_15  and  C_17
REMARK                            x       y       z     vdW  Elec       q    Type
REMARK                         _______ _______ _______ _____ _____    ______ ____
ROOT
ATOM      1  C   UNL     1      36.594   6.580  14.206  0.00  0.00    +0.000 A 
ATOM      2  C   UNL     1      37.100   7.484  15.103  0.00  0.00    +0.000 A 
ATOM      3  S   UNL     1      36.722   8.989  14.425  0.00  0.00    +0.000 S 
ATOM      4  C   UNL     1      35.922   8.448  13.006  0.00  0.00    +0.000 A 
ATOM      5  C   UNL     1      35.978   7.094  13.110  0.00  0.00    +0.000 A 
ATOM      6  C   UNL     1      35.348   6.246  11.996  0.00  0.00    +0.000 C 
ATOM      7  C   UNL     1      34.262   7.059  11.380  0.00  0.00    +0.000 C 
ATOM      8  C   UNL     1      34.964   8.273  10.753  0.00  0.00    +0.000 C 
ATOM      9  C   UNL     1      35.277   9.199  11.863  0.00  0.00    +0.000 C 
ENDROOT
BRANCH   1  11
ATOM     10  N   UNL     1      35.667   4.332  14.964  0.00  0.00    +0.000 NA
ATOM     11  C   UNL     1      36.753   5.119  14.497  0.00  0.00    +0.000 C 
ATOM     12  O   UNL     1      37.829   4.527  14.345  0.00  0.00    +0.000 OA
BRANCH  10  16
ATOM     13  C   UNL     1      36.189   0.234  15.846  0.00  0.00    +0.000 A 
ATOM     14  C   UNL     1      36.045   0.670  14.550  0.00  0.00    +0.000 A 
ATOM     15  C   UNL     1      35.873   1.998  14.227  0.00  0.00    +0.000 A 
ATOM     16  C   UNL     1      35.844   2.930  15.236  0.00  0.00    +0.000 A 
ATOM     17  C   UNL     1      35.986   2.515  16.539  0.00  0.00    +0.000 A 
ATOM     18  C   UNL     1      36.155   1.187  16.837  0.00  0.00    +0.000 A 
BRANCH  13  19
ATOM     19  O   UNL     1      36.359  -1.085  16.177  0.00  0.00    +0.000 OA
BRANCH  19  21
ATOM     20  C   UNL     1      38.717  -1.645  16.172  0.00  0.00    +0.000 C 
ATOM     21  C   UNL     1      37.467  -1.426  16.995  0.00  0.00    +0.000 C 
ATOM     22  C   UNL     1      37.126  -2.774  17.627  0.00  0.00    +0.000 C 
ENDBRANCH  19  21
ENDBRANCH  13  19
ENDBRANCH  10  16
ENDBRANCH   1  11
BRANCH   2  23
ATOM     23  N   UNL     1      37.800   7.217  16.349  0.00  0.00    +0.000 NA
ATOM     24  C   UNL     1      39.208   7.141  16.333  0.00  0.00    +0.000 C 
ATOM     25  O   UNL     1      39.818   7.306  15.249  0.00  0.00    +0.000 OA
BRANCH  24  26
ATOM     26  C   UNL     1      39.987   6.878  17.532  0.00  0.00    +0.000 A 
ATOM     27  C   UNL     1      41.349   6.767  17.492  0.00  0.00    +0.000 A 
ATOM     28  C   UNL     1      42.080   6.519  18.628  0.00  0.00    +0.000 A 
ATOM     29  C   UNL     1      41.461   6.372  19.857  0.00  0.00    +0.000 A 
ATOM     30  C   UNL     1      40.104   6.483  19.899  0.00  0.00    +0.000 A 
ATOM     31  C   UNL     1      39.362   6.732  18.770  0.00  0.00    +0.000 A 
ENDBRANCH  24  26
ENDBRANCH   2  23
TORSDOF 6
ENDMDL
MODEL 6
REMARK VINA RESULT:      -7.2     24.018     31.201
REMARK  Name = 
REMARK  6 active torsions:
REMARK  status: ('A' for Active; 'I' for Inactive)
REMARK    1  A    between atoms: C_2  and  O_4
REMARK    2  A    between atoms: O_4  and  C_5
REMARK    3  A    between atoms: C_8  and  N_9
REMARK    4  A    between atoms: C_10  and  C_12
REMARK    5  A    between atoms: C_13  and  N_14
REMARK    6  A    between atoms: C_15  and  C_17
REMARK                            x       y       z     vdW  Elec       q    Type
REMARK                         _______ _______ _______ _____ _____    ______ ____
ROOT
ATOM      1  C   UNL     1      42.095  -2.722  11.640  0.00  0.00    +0.000 A 
ATOM      2  C   UNL     1      43.334  -3.076  12.108  0.00  0.00    +0.000 A 
ATOM      3  S   UNL     1      44.119  -3.710  10.748  0.00  0.00    +0.000 S 
ATOM      4  C   UNL     1      42.859  -3.515   9.599  0.00  0.00    +0.000 A 
ATOM      5  C   UNL     1      41.855  -2.956  10.324  0.00  0.00    +0.000 A 
ATOM      6  C   UNL     1      40.533  -2.629   9.616  0.00  0.00    +0.000 C 
ATOM      7  C   UNL     1      40.847  -2.394   8.179  0.00  0.00    +0.000 C 
ATOM      8  C   UNL     1      41.382  -3.734   7.651  0.00  0.00    +0.000 C 
ATOM      9  C   UNL     1      42.778  -3.846   8.126  0.00  0.00    +0.000 C 
ENDROOT
BRANCH   1  11
ATOM     10  N   UNL     1      40.131  -2.900  13.251  0.00  0.00    +0.000 NA
ATOM     11  C   UNL     1      41.116  -2.114  12.598  0.00  0.00    +0.000 C 
ATOM     12  O   UNL     1      41.116  -0.906  12.867  0.00  0.00    +0.000 OA
BRANCH  10  16
ATOM     13  C   UNL     1      37.455  -1.144  16.007  0.00  0.00    +0.000 A 
ATOM     14  C   UNL     1      37.193  -1.135  14.657  0.00  0.00    +0.000 A 
ATOM     15  C   UNL     1      38.044  -1.697  13.732  0.00  0.00    +0.000 A 
ATOM     16  C   UNL     1      39.201  -2.294  14.168  0.00  0.00    +0.000 A 
ATOM     17  C   UNL     1      39.482  -2.314  15.514  0.00  0.00    +0.000 A 
ATOM     18  C   UNL     1      38.620  -1.747  16.417  0.00  0.00    +0.000 A 
BRANCH  13  19
ATOM     19  O   UNL     1      36.615  -0.585  16.936  0.00  0.00    +0.000 OA
BRANCH  19  21
ATOM     20  C   UNL     1      34.896   1.124  16.958  0.00  0.00    +0.000 C 
ATOM     21  C   UNL     1      35.292  -0.271  16.529  0.00  0.00    +0.000 C 
ATOM     22  C   UNL     1      34.379  -1.232  17.289  0.00  0.00    +0.000 C 
ENDBRANCH  19  21
ENDBRANCH  13  19
ENDBRANCH  10  16
ENDBRANCH   1  11
BRANCH   2  23
ATOM     23  N   UNL     1      43.857  -2.940  13.457  0.00  0.00    +0.000 NA
ATOM     24  C   UNL     1      44.501  -1.739  13.817  0.00  0.00    +0.000 C 
ATOM     25  O   UNL     1      44.605  -0.821  12.968  0.00  0.00    +0.000 OA
BRANCH  24  26
ATOM     26  C   UNL     1      45.054  -1.518  15.145  0.00  0.00    +0.000 A 
ATOM     27  C   UNL     1      45.040  -0.284  15.732  0.00  0.00    +0.000 A 
ATOM     28  C   UNL     1      45.562  -0.082  16.985  0.00  0.00    +0.000 A 
ATOM     29  C   UNL     1      46.124  -1.125  17.700  0.00  0.00    +0.000 A 
ATOM     30  C   UNL     1      46.138  -2.357  17.117  0.00  0.00    +0.000 A 
ATOM     31  C   UNL     1      45.618  -2.571  15.864  0.00  0.00    +0.000 A 
ENDBRANCH  24  26
ENDBRANCH   2  23
TORSDOF 6
ENDMDL
MODEL 7
REMARK VINA RESULT:      -7.2     21.270     23.177
REMARK  Name = 
REMARK  6 active torsions:
REMARK  status: ('A' for Active; 'I' for Inactive)
REMARK    1  A    between atoms: C_2  and  O_4
REMARK    2  A    between atoms: O_4  and  C_5
REMARK    3  A    between atoms: C_8  and  N_9
REMARK    4  A    between atoms: C_10  and  C_12
REMARK    5  A    between atoms: C_13  and  N_14
REMARK    6  A    between atoms: C_15  and  C_17
REMARK                            x       y       z     vdW  Elec       q    Type
REMARK                         _______ _______ _______ _____ _____    ______ ____
ROOT
ATOM      1  C   UNL     1      24.026  15.118  41.704  0.00  0.00    +0.000 A 
ATOM      2  C   UNL     1      24.974  14.446  42.429  0.00  0.00    +0.000 A 
ATOM      3  S   UNL     1      24.401  14.519  44.020  0.00  0.00    +0.000 S 
ATOM      4  C   UNL     1      22.957  15.405  43.741  0.00  0.00    +0.000 A 
ATOM      5  C   UNL     1      22.972  15.617  42.400  0.00  0.00    +0.000 A 
ATOM      6  C   UNL     1      21.810  16.396  41.767  0.00  0.00    +0.000 C 
ATOM      7  C   UNL     1      20.617  16.194  42.635  0.00  0.00    +0.000 C 
ATOM      8  C   UNL     1      20.977  16.834  43.984  0.00  0.00    +0.000 C 
ATOM      9  C   UNL     1      21.869  15.881  44.678  0.00  0.00    +0.000 C 
ENDROOT
BRANCH   1  11
ATOM     10  N   UNL     1      25.230  16.081  39.676  0.00  0.00    +0.000 NA
ATOM     11  C   UNL     1      24.218  15.249  40.223  0.00  0.00    +0.000 C 
ATOM     12  O   UNL     1      23.511  14.643  39.408  0.00  0.00    +0.000 OA
BRANCH  10  16
ATOM     13  C   UNL     1      25.766  16.328  35.494  0.00  0.00    +0.000 A 
ATOM     14  C   UNL     1      25.036  17.274  36.175  0.00  0.00    +0.000 A 
ATOM     15  C   UNL     1      24.841  17.223  37.537  0.00  0.00    +0.000 A 
ATOM     16  C   UNL     1      25.397  16.190  38.251  0.00  0.00    +0.000 A 
ATOM     17  C   UNL     1      26.131  15.234  37.589  0.00  0.00    +0.000 A 
ATOM     18  C   UNL     1      26.311  15.305  36.232  0.00  0.00    +0.000 A 
BRANCH  13  19
ATOM     19  O   UNL     1      25.964  16.370  34.138  0.00  0.00    +0.000 OA
BRANCH  19  21
ATOM     20  C   UNL     1      25.245  14.977  32.289  0.00  0.00    +0.000 C 
ATOM     21  C   UNL     1      24.870  16.039  33.298  0.00  0.00    +0.000 C 
ATOM     22  C   UNL     1      24.555  17.302  32.499  0.00  0.00    +0.000 C 
ENDBRANCH  19  21
ENDBRANCH  13  19
ENDBRANCH  10  16
ENDBRANCH   1  11
BRANCH   2  23
ATOM     23  N   UNL     1      26.193  13.815  41.949  0.00  0.00    +0.000 NA
ATOM     24  C   UNL     1      26.222  12.412  41.813  0.00  0.00    +0.000 C 
ATOM     25  O   UNL     1      25.199  11.747  42.107  0.00  0.00    +0.000 OA
BRANCH  24  26
ATOM     26  C   UNL     1      27.399  11.699  41.340  0.00  0.00    +0.000 A 
ATOM     27  C   UNL     1      27.374  10.353  41.103  0.00  0.00    +0.000 A 
ATOM     28  C   UNL     1      28.488   9.686  40.656  0.00  0.00    +0.000 A 
ATOM     29  C   UNL     1      29.678  10.355  40.431  0.00  0.00    +0.000 A 
ATOM     30  C   UNL     1      29.704  11.696  40.666  0.00  0.00    +0.000 A 
ATOM     31  C   UNL     1      28.596  12.375  41.112  0.00  0.00    +0.000 A 
ENDBRANCH  24  26
ENDBRANCH   2  23
TORSDOF 6
ENDMDL
MODEL 8
REMARK VINA RESULT:      -7.1     25.057     27.102
REMARK  Name = 
REMARK  6 active torsions:
REMARK  status: ('A' for Active; 'I' for Inactive)
REMARK    1  A    between atoms: C_2  and  O_4
REMARK    2  A    between atoms: O_4  and  C_5
REMARK    3  A    between atoms: C_8  and  N_9
REMARK    4  A    between atoms: C_10  and  C_12
REMARK    5  A    between atoms: C_13  and  N_14
REMARK    6  A    between atoms: C_15  and  C_17
REMARK                            x       y       z     vdW  Elec       q    Type
REMARK                         _______ _______ _______ _____ _____    ______ ____
ROOT
ATOM      1  C   UNL     1      38.163   5.808  16.478  0.00  0.00    +0.000 A 
ATOM      2  C   UNL     1      37.790   6.766  15.573  0.00  0.00    +0.000 A 
ATOM      3  S   UNL     1      38.118   8.227  16.363  0.00  0.00    +0.000 S 
ATOM      4  C   UNL     1      38.728   7.599  17.839  0.00  0.00    +0.000 A 
ATOM      5  C   UNL     1      38.654   6.254  17.664  0.00  0.00    +0.000 A 
ATOM      6  C   UNL     1      39.125   5.339  18.803  0.00  0.00    +0.000 C 
ATOM      7  C   UNL     1      40.146   6.092  19.583  0.00  0.00    +0.000 C 
ATOM      8  C   UNL     1      39.402   7.296  20.180  0.00  0.00    +0.000 C 
ATOM      9  C   UNL     1      39.247   8.279  19.087  0.00  0.00    +0.000 C 
ENDROOT
BRANCH   1  11
ATOM     10  N   UNL     1      36.739   3.726  16.125  0.00  0.00    +0.000 NA
ATOM     11  C   UNL     1      38.006   4.367  16.101  0.00  0.00    +0.000 C 
ATOM     12  O   UNL     1      38.964   3.666  15.750  0.00  0.00    +0.000 OA
BRANCH  10  16
ATOM     13  C   UNL     1      36.382  -0.318  14.963  0.00  0.00    +0.000 A 
ATOM     14  C   UNL     1      36.238   0.059  16.277  0.00  0.00    +0.000 A 
ATOM     15  C   UNL     1      36.348   1.369  16.690  0.00  0.00    +0.000 A 
ATOM     16  C   UNL     1      36.612   2.341  15.758  0.00  0.00    +0.000 A 
ATOM     17  C   UNL     1      36.760   1.985  14.438  0.00  0.00    +0.000 A 
ATOM     18  C   UNL     1      36.646   0.674  14.049  0.00  0.00    +0.000 A 
BRANCH  13  19
ATOM     19  O   UNL     1      36.275  -1.619  14.542  0.00  0.00    +0.000 OA
BRANCH  19  21
ATOM     20  C   UNL     1      37.968  -2.992  13.482  0.00  0.00    +0.000 C 
ATOM     21  C   UNL     1      37.375  -2.484  14.777  0.00  0.00    +0.000 C 
ATOM     22  C   UNL     1      36.804  -3.704  15.498  0.00  0.00    +0.000 C 
ENDBRANCH  19  21
ENDBRANCH  13  19
ENDBRANCH  10  16
ENDBRANCH   1  11
BRANCH   2  23
ATOM     23  N   UNL     1      37.240   6.577  14.241  0.00  0.00    +0.000 NA
ATOM     24  C   UNL     1      36.043   7.240  13.901  0.00  0.00    +0.000 C 
ATOM     25  O   UNL     1      35.486   7.974  14.753  0.00  0.00    +0.000 OA
BRANCH  24  26
ATOM     26  C   UNL     1      35.422   7.106  12.592  0.00  0.00    +0.000 A 
ATOM     27  C   UNL     1      36.140   6.718  11.495  0.00  0.00    +0.000 A 
ATOM     28  C   UNL     1      35.548   6.593  10.262  0.00  0.00    +0.000 A 
ATOM     29  C   UNL     1      34.201   6.857  10.086  0.00  0.00    +0.000 A 
ATOM     30  C   UNL     1      33.485   7.243  11.179  0.00  0.00    +0.000 A 
ATOM     31  C   UNL     1      34.065   7.371  12.417  0.00  0.00    +0.000 A 
ENDBRANCH  24  26
ENDBRANCH   2  23
TORSDOF 6
ENDMDL
MODEL 9
REMARK VINA RESULT:      -7.1     24.493     27.675
REMARK  Name = 
REMARK  6 active torsions:
REMARK  status: ('A' for Active; 'I' for Inactive)
REMARK    1  A    between atoms: C_2  and  O_4
REMARK    2  A    between atoms: O_4  and  C_5
REMARK    3  A    between atoms: C_8  and  N_9
REMARK    4  A    between atoms: C_10  and  C_12
REMARK    5  A    between atoms: C_13  and  N_14
REMARK    6  A    between atoms: C_15  and  C_17
REMARK                            x       y       z     vdW  Elec       q    Type
REMARK                         _______ _______ _______ _____ _____    ______ ____
ROOT
ATOM      1  C   UNL     1      37.868  -1.554  16.036  0.00  0.00    +0.000 A 
ATOM      2  C   UNL     1      38.500  -2.422  15.185  0.00  0.00    +0.000 A 
ATOM      3  S   UNL     1      39.086  -3.641  16.204  0.00  0.00    +0.000 S 
ATOM      4  C   UNL     1      38.516  -3.031  17.703  0.00  0.00    +0.000 A 
ATOM      5  C   UNL     1      37.881  -1.881  17.354  0.00  0.00    +0.000 A 
ATOM      6  C   UNL     1      37.228  -1.039  18.460  0.00  0.00    +0.000 C 
ATOM      7  C   UNL     1      36.871  -1.966  19.570  0.00  0.00    +0.000 C 
ATOM      8  C   UNL     1      38.206  -2.524  20.085  0.00  0.00    +0.000 C 
ATOM      9  C   UNL     1      38.633  -3.557  19.116  0.00  0.00    +0.000 C 
ENDROOT
BRANCH   1  11
ATOM     10  N   UNL     1      37.897   0.914  15.410  0.00  0.00    +0.000 NA
ATOM     11  C   UNL     1      37.220  -0.332  15.460  0.00  0.00    +0.000 C 
ATOM     12  O   UNL     1      36.070  -0.346  15.001  0.00  0.00    +0.000 OA
BRANCH  10  16
ATOM     13  C   UNL     1      36.056   4.307  13.696  0.00  0.00    +0.000 A 
ATOM     14  C   UNL     1      35.767   3.914  14.981  0.00  0.00    +0.000 A 
ATOM     15  C   UNL     1      36.349   2.814  15.570  0.00  0.00    +0.000 A 
ATOM     16  C   UNL     1      37.255   2.074  14.851  0.00  0.00    +0.000 A 
ATOM     17  C   UNL     1      37.558   2.450  13.563  0.00  0.00    +0.000 A 
ATOM     18  C   UNL     1      36.966   3.550  12.997  0.00  0.00    +0.000 A 
BRANCH  13  19
ATOM     19  O   UNL     1      35.481   5.400  13.100  0.00  0.00    +0.000 OA
BRANCH  19  21
ATOM     20  C   UNL     1      33.670   6.891  13.712  0.00  0.00    +0.000 C 
ATOM     21  C   UNL     1      35.112   6.489  13.931  0.00  0.00    +0.000 C 
ATOM     22  C   UNL     1      35.963   7.673  13.476  0.00  0.00    +0.000 C 
ENDBRANCH  19  21
ENDBRANCH  13  19
ENDBRANCH  10  16
ENDBRANCH   1  11
BRANCH   2  23
ATOM     23  N   UNL     1      38.638  -2.323  13.741  0.00  0.00    +0.000 NA
ATOM     24  C   UNL     1      39.783  -1.694  13.211  0.00  0.00    +0.000 C 
ATOM     25  O   UNL     1      40.651  -1.238  13.996  0.00  0.00    +0.000 OA
BRANCH  24  26
ATOM     26  C   UNL     1      40.002  -1.551  11.780  0.00  0.00    +0.000 A 
ATOM     27  C   UNL     1      40.306  -2.624  10.990  0.00  0.00    +0.000 A 
ATOM     28  C   UNL     1      40.511  -2.483   9.640  0.00  0.00    +0.000 A 
ATOM     29  C   UNL     1      40.416  -1.245   9.030  0.00  0.00    +0.000 A 
ATOM     30  C   UNL     1      40.112  -0.174   9.815  0.00  0.00    +0.000 A 
ATOM     31  C   UNL     1      39.905  -0.302  11.167  0.00  0.00    +0.000 A 
ENDBRANCH  24  26
ENDBRANCH   2  23
TORSDOF 6
ENDMDL
MODEL 10
REMARK VINA RESULT:      -6.8     25.897     27.625
REMARK  Name = 
REMARK  6 active torsions:
REMARK  status: ('A' for Active; 'I' for Inactive)
REMARK    1  A    between atoms: C_2  and  O_4
REMARK    2  A    between atoms: O_4  and  C_5
REMARK    3  A    between atoms: C_8  and  N_9
REMARK    4  A    between atoms: C_10  and  C_12
REMARK    5  A    between atoms: C_13  and  N_14
REMARK    6  A    between atoms: C_15  and  C_17
REMARK                            x       y       z     vdW  Elec       q    Type
REMARK                         _______ _______ _______ _____ _____    ______ ____
ROOT
ATOM      1  C   UNL     1      37.245   4.827  15.335  0.00  0.00    +0.000 A 
ATOM      2  C   UNL     1      36.788   3.550  15.145  0.00  0.00    +0.000 A 
ATOM      3  S   UNL     1      35.389   3.751  14.213  0.00  0.00    +0.000 S 
ATOM      4  C   UNL     1      35.404   5.461  14.076  0.00  0.00    +0.000 A 
ATOM      5  C   UNL     1      36.514   5.823  14.771  0.00  0.00    +0.000 A 
ATOM      6  C   UNL     1      36.863   7.315  14.871  0.00  0.00    +0.000 C 
ATOM      7  C   UNL     1      36.294   7.984  13.669  0.00  0.00    +0.000 C 
ATOM      8  C   UNL     1      34.772   7.815  13.786  0.00  0.00    +0.000 C 
ATOM      9  C   UNL     1      34.470   6.426  13.380  0.00  0.00    +0.000 C 
ENDROOT
BRANCH   1  11
ATOM     10  N   UNL     1      38.554   5.962  17.202  0.00  0.00    +0.000 NA
ATOM     11  C   UNL     1      38.496   5.027  16.136  0.00  0.00    +0.000 C 
ATOM     12  O   UNL     1      39.535   4.392  15.911  0.00  0.00    +0.000 OA
BRANCH  10  16
ATOM     13  C   UNL     1      42.154   6.492  19.346  0.00  0.00    +0.000 A 
ATOM     14  C   UNL     1      40.984   6.168  19.990  0.00  0.00    +0.000 A 
ATOM     15  C   UNL     1      39.793   5.988  19.322  0.00  0.00    +0.000 A 
ATOM     16  C   UNL     1      39.766   6.137  17.957  0.00  0.00    +0.000 A 
ATOM     17  C   UNL     1      40.926   6.461  17.293  0.00  0.00    +0.000 A 
ATOM     18  C   UNL     1      42.100   6.635  17.980  0.00  0.00    +0.000 A 
BRANCH  13  19
ATOM     19  O   UNL     1      43.344   6.674  20.002  0.00  0.00    +0.000 OA
BRANCH  19  21
ATOM     20  C   UNL     1      43.952   8.015  21.927  0.00  0.00    +0.000 C 
ATOM     21  C   UNL     1      43.316   6.741  21.419  0.00  0.00    +0.000 C 
ATOM     22  C   UNL     1      44.195   5.594  21.912  0.00  0.00    +0.000 C 
ENDBRANCH  19  21
ENDBRANCH  13  19
ENDBRANCH  10  16
ENDBRANCH   1  11
BRANCH   2  23
ATOM     23  N   UNL     1      37.366   2.307  15.629  0.00  0.00    +0.000 NA
ATOM     24  C   UNL     1      37.890   1.393  14.692  0.00  0.00    +0.000 C 
ATOM     25  O   UNL     1      37.846   1.675  13.469  0.00  0.00    +0.000 OA
BRANCH  24  26
ATOM     26  C   UNL     1      38.486   0.126  15.088  0.00  0.00    +0.000 A 
ATOM     27  C   UNL     1      37.851  -0.728  15.945  0.00  0.00    +0.000 A 
ATOM     28  C   UNL     1      38.418  -1.923  16.314  0.00  0.00    +0.000 A 
ATOM     29  C   UNL     1      39.657  -2.304  15.831  0.00  0.00    +0.000 A 
ATOM     30  C   UNL     1      40.292  -1.454  14.977  0.00  0.00    +0.000 A 
ATOM     31  C   UNL     1      39.735  -0.257  14.599  0.00  0.00    +0.000 A 
ENDBRANCH  24  26
ENDBRANCH   2  23
TORSDOF 6
ENDMDL
