MODEL 1
REMARK VINA RESULT:      -6.2      0.000      0.000
REMARK  Name = 
REMARK  4 active torsions:
REMARK  status: ('A' for Active; 'I' for Inactive)
REMARK    1  A    between atoms: C_2  and  S_3
REMARK    2  A    between atoms: S_3  and  C_4
REMARK    3  A    between atoms: N_9  and  C_10
REMARK    4  A    between atoms: C_10  and  C_11
REMARK                            x       y       z     vdW  Elec       q    Type
REMARK                         _______ _______ _______ _____ _____    ______ ____
ROOT
ATOM      1  C   UNL     1      17.155  12.190  37.080  0.00  0.00    +0.000 C 
ENDROOT
BRANCH   1   2
ATOM      2  C   UNL     1      15.712  11.909  37.281  0.00  0.00    +0.000 A 
ATOM      3  C   UNL     1      14.712  12.557  36.596  0.00  0.00    +0.000 A 
ATOM      4  C   UNL     1      13.519  12.038  37.043  0.00  0.00    +0.000 A 
ATOM      5  C   UNL     1      12.222  12.344  36.676  0.00  0.00    +0.000 A 
ATOM      6  C   UNL     1      11.161  11.694  37.257  0.00  0.00    +0.000 A 
ATOM      7  C   UNL     1      11.394  10.727  38.217  0.00  0.00    +0.000 A 
ATOM      8  C   UNL     1      12.716  10.459  38.548  0.00  0.00    +0.000 A 
ATOM      9  N   UNL     1      13.753  11.107  37.966  0.00  0.00    +0.000 N 
ATOM     10  C   UNL     1      15.082  11.020  38.119  0.00  0.00    +0.000 A 
ENDBRANCH   1   2
BRANCH   1  16
ATOM     11  C   UNL     1      18.863  10.447  37.289  0.00  0.00    +0.000 A 
ATOM     12  N   UNL     1      19.309   9.428  36.544  0.00  0.00    +0.000 NA
ATOM     13  N   UNL     1      18.612   9.403  35.407  0.00  0.00    +0.000 NA
ATOM     14  C   UNL     1      17.709  10.408  35.412  0.00  0.00    +0.000 A 
ATOM     15  N   UNL     1      16.759  10.745  34.389  0.00  0.00    +0.000 NA
ATOM     16  N   UNL     1      17.884  11.039  36.586  0.00  0.00    +0.000 N 
BRANCH  11  17
ATOM     17  S   UNL     1      19.490  10.880  38.904  0.00  0.00    +0.000 S 
BRANCH  17  19
ATOM     18  C   UNL     1      17.681   8.970  39.754  0.00  0.00    +0.000 C 
ATOM     19  C   UNL     1      18.662   9.996  40.222  0.00  0.00    +0.000 C 
ENDBRANCH  17  19
ENDBRANCH  11  17
ENDBRANCH   1  16
TORSDOF 4
ENDMDL
MODEL 2
REMARK VINA RESULT:      -6.0      2.545      5.980
REMARK  Name = 
REMARK  4 active torsions:
REMARK  status: ('A' for Active; 'I' for Inactive)
REMARK    1  A    between atoms: C_2  and  S_3
REMARK    2  A    between atoms: S_3  and  C_4
REMARK    3  A    between atoms: N_9  and  C_10
REMARK    4  A    between atoms: C_10  and  C_11
REMARK                            x       y       z     vdW  Elec       q    Type
REMARK                         _______ _______ _______ _____ _____    ______ ____
ROOT
ATOM      1  C   UNL     1      16.299  10.583  36.756  0.00  0.00    +0.000 C 
ENDROOT
BRANCH   1   2
ATOM      2  C   UNL     1      17.497  11.240  37.334  0.00  0.00    +0.000 A 
ATOM      3  C   UNL     1      18.458  10.565  38.049  0.00  0.00    +0.000 A 
ATOM      4  C   UNL     1      19.405  11.493  38.420  0.00  0.00    +0.000 A 
ATOM      5  C   UNL     1      20.569  11.334  39.148  0.00  0.00    +0.000 A 
ATOM      6  C   UNL     1      21.383  12.409  39.407  0.00  0.00    +0.000 A 
ATOM      7  C   UNL     1      21.032  13.661  38.935  0.00  0.00    +0.000 A 
ATOM      8  C   UNL     1      19.852  13.764  38.210  0.00  0.00    +0.000 A 
ATOM      9  N   UNL     1      19.060  12.694  37.962  0.00  0.00    +0.000 N 
ATOM     10  C   UNL     1      17.902  12.553  37.300  0.00  0.00    +0.000 A 
ENDBRANCH   1   2
BRANCH   1  16
ATOM     11  C   UNL     1      14.882  11.934  35.282  0.00  0.00    +0.000 A 
ATOM     12  N   UNL     1      14.847  12.239  33.979  0.00  0.00    +0.000 NA
ATOM     13  N   UNL     1      15.865  11.622  33.376  0.00  0.00    +0.000 NA
ATOM     14  C   UNL     1      16.565  10.914  34.289  0.00  0.00    +0.000 A 
ATOM     15  N   UNL     1      17.731  10.105  34.072  0.00  0.00    +0.000 NA
ATOM     16  N   UNL     1      15.938  11.122  35.460  0.00  0.00    +0.000 N 
BRANCH  11  17
ATOM     17  S   UNL     1      13.720  12.528  36.500  0.00  0.00    +0.000 S 
BRANCH  17  19
ATOM     18  C   UNL     1      11.274  11.483  37.253  0.00  0.00    +0.000 C 
ATOM     19  C   UNL     1      12.743  11.211  37.217  0.00  0.00    +0.000 C 
ENDBRANCH  17  19
ENDBRANCH  11  17
ENDBRANCH   1  16
TORSDOF 4
ENDMDL
MODEL 3
REMARK VINA RESULT:      -5.7     30.367     32.544
REMARK  Name = 
REMARK  4 active torsions:
REMARK  status: ('A' for Active; 'I' for Inactive)
REMARK    1  A    between atoms: C_2  and  S_3
REMARK    2  A    between atoms: S_3  and  C_4
REMARK    3  A    between atoms: N_9  and  C_10
REMARK    4  A    between atoms: C_10  and  C_11
REMARK                            x       y       z     vdW  Elec       q    Type
REMARK                         _______ _______ _______ _____ _____    ______ ____
ROOT
ATOM      1  C   UNL     1      32.163  22.749  10.394  0.00  0.00    +0.000 C 
ENDROOT
BRANCH   1   2
ATOM      2  C   UNL     1      30.791  22.740  10.959  0.00  0.00    +0.000 A 
ATOM      3  C   UNL     1      30.475  23.275  12.185  0.00  0.00    +0.000 A 
ATOM      4  C   UNL     1      29.124  23.083  12.368  0.00  0.00    +0.000 A 
ATOM      5  C   UNL     1      28.313  23.434  13.429  0.00  0.00    +0.000 A 
ATOM      6  C   UNL     1      26.970  23.145  13.407  0.00  0.00    +0.000 A 
ATOM      7  C   UNL     1      26.430  22.495  12.312  0.00  0.00    +0.000 A 
ATOM      8  C   UNL     1      27.291  22.166  11.274  0.00  0.00    +0.000 A 
ATOM      9  N   UNL     1      28.613  22.459  11.310  0.00  0.00    +0.000 N 
ATOM     10  C   UNL     1      29.617  22.245  10.447  0.00  0.00    +0.000 A 
ENDBRANCH   1   2
BRANCH   1  16
ATOM     11  C   UNL     1      32.740  20.879   8.920  0.00  0.00    +0.000 A 
ATOM     12  N   UNL     1      33.260  19.653   9.062  0.00  0.00    +0.000 NA
ATOM     13  N   UNL     1      33.506  19.450  10.358  0.00  0.00    +0.000 NA
ATOM     14  C   UNL     1      33.146  20.546  11.060  0.00  0.00    +0.000 A 
ATOM     15  N   UNL     1      33.239  20.754  12.478  0.00  0.00    +0.000 NA
ATOM     16  N   UNL     1      32.676  21.415  10.150  0.00  0.00    +0.000 N 
BRANCH  11  17
ATOM     17  S   UNL     1      32.251  21.604   7.364  0.00  0.00    +0.000 S 
BRANCH  17  19
ATOM     18  C   UNL     1      30.165  19.796   7.209  0.00  0.00    +0.000 C 
ATOM     19  C   UNL     1      31.194  20.523   6.405  0.00  0.00    +0.000 C 
ENDBRANCH  17  19
ENDBRANCH  11  17
ENDBRANCH   1  16
TORSDOF 4
ENDMDL
MODEL 4
REMARK VINA RESULT:      -5.7     20.660     22.214
REMARK  Name = 
REMARK  4 active torsions:
REMARK  status: ('A' for Active; 'I' for Inactive)
REMARK    1  A    between atoms: C_2  and  S_3
REMARK    2  A    between atoms: S_3  and  C_4
REMARK    3  A    between atoms: N_9  and  C_10
REMARK    4  A    between atoms: C_10  and  C_11
REMARK                            x       y       z     vdW  Elec       q    Type
REMARK                         _______ _______ _______ _____ _____    ______ ____
ROOT
ATOM      1  C   UNL     1      18.644  -8.655  26.094  0.00  0.00    +0.000 C 
ENDROOT
BRANCH   1   2
ATOM      2  C   UNL     1      18.512  -9.123  27.495  0.00  0.00    +0.000 A 
ATOM      3  C   UNL     1      19.571  -9.206  28.368  0.00  0.00    +0.000 A 
ATOM      4  C   UNL     1      19.070  -9.675  29.561  0.00  0.00    +0.000 A 
ATOM      5  C   UNL     1      19.714  -9.935  30.755  0.00  0.00    +0.000 A 
ATOM      6  C   UNL     1      19.013 -10.405  31.839  0.00  0.00    +0.000 A 
ATOM      7  C   UNL     1      17.652 -10.620  31.730  0.00  0.00    +0.000 A 
ATOM      8  C   UNL     1      17.055 -10.343  30.508  0.00  0.00    +0.000 A 
ATOM      9  N   UNL     1      17.759  -9.879  29.448  0.00  0.00    +0.000 N 
ATOM     10  C   UNL     1      17.409  -9.547  28.197  0.00  0.00    +0.000 A 
ENDBRANCH   1   2
BRANCH   1  16
ATOM     11  C   UNL     1      20.222  -6.884  25.483  0.00  0.00    +0.000 A 
ATOM     12  N   UNL     1      20.261  -5.548  25.556  0.00  0.00    +0.000 NA
ATOM     13  N   UNL     1      19.124  -5.125  26.113  0.00  0.00    +0.000 NA
ATOM     14  C   UNL     1      18.344  -6.190  26.403  0.00  0.00    +0.000 A 
ATOM     15  N   UNL     1      17.042  -6.189  27.009  0.00  0.00    +0.000 NA
ATOM     16  N   UNL     1      19.045  -7.265  26.005  0.00  0.00    +0.000 N 
BRANCH  11  17
ATOM     17  S   UNL     1      21.522  -7.905  24.807  0.00  0.00    +0.000 S 
BRANCH  17  19
ATOM     18  C   UNL     1      23.766  -6.353  24.368  0.00  0.00    +0.000 C 
ATOM     19  C   UNL     1      22.598  -7.002  23.699  0.00  0.00    +0.000 C 
ENDBRANCH  17  19
ENDBRANCH  11  17
ENDBRANCH   1  16
TORSDOF 4
ENDMDL
MODEL 5
REMARK VINA RESULT:      -5.6     22.170     24.142
REMARK  Name = 
REMARK  4 active torsions:
REMARK  status: ('A' for Active; 'I' for Inactive)
REMARK    1  A    between atoms: C_2  and  S_3
REMARK    2  A    between atoms: S_3  and  C_4
REMARK    3  A    between atoms: N_9  and  C_10
REMARK    4  A    between atoms: C_10  and  C_11
REMARK                            x       y       z     vdW  Elec       q    Type
REMARK                         _______ _______ _______ _____ _____    ______ ____
ROOT
ATOM      1  C   UNL     1      28.323  23.370  22.675  0.00  0.00    +0.000 C 
ENDROOT
BRANCH   1   2
ATOM      2  C   UNL     1      28.390  24.665  21.954  0.00  0.00    +0.000 A 
ATOM      3  C   UNL     1      29.447  25.031  21.155  0.00  0.00    +0.000 A 
ATOM      4  C   UNL     1      29.159  26.283  20.660  0.00  0.00    +0.000 A 
ATOM      5  C   UNL     1      29.889  27.094  19.813  0.00  0.00    +0.000 A 
ATOM      6  C   UNL     1      29.408  28.325  19.438  0.00  0.00    +0.000 A 
ATOM      7  C   UNL     1      28.183  28.753  19.915  0.00  0.00    +0.000 A 
ATOM      8  C   UNL     1      27.491  27.899  20.762  0.00  0.00    +0.000 A 
ATOM      9  N   UNL     1      27.978  26.687  21.123  0.00  0.00    +0.000 N 
ATOM     10  C   UNL     1      27.501  25.712  21.911  0.00  0.00    +0.000 A 
ENDBRANCH   1   2
BRANCH   1  16
ATOM     11  C   UNL     1      27.661  23.668  25.015  0.00  0.00    +0.000 A 
ATOM     12  N   UNL     1      26.529  23.583  25.724  0.00  0.00    +0.000 NA
ATOM     13  N   UNL     1      25.539  23.246  24.895  0.00  0.00    +0.000 NA
ATOM     14  C   UNL     1      26.029  23.111  23.643  0.00  0.00    +0.000 A 
ATOM     15  N   UNL     1      25.313  22.759  22.450  0.00  0.00    +0.000 NA
ATOM     16  N   UNL     1      27.343  23.377  23.743  0.00  0.00    +0.000 N 
BRANCH  11  17
ATOM     17  S   UNL     1      29.257  24.094  25.692  0.00  0.00    +0.000 S 
BRANCH  17  19
ATOM     18  C   UNL     1      31.573  23.128  24.533  0.00  0.00    +0.000 C 
ATOM     19  C   UNL     1      30.465  22.791  25.478  0.00  0.00    +0.000 C 
ENDBRANCH  17  19
ENDBRANCH  11  17
ENDBRANCH   1  16
TORSDOF 4
ENDMDL
MODEL 6
REMARK VINA RESULT:      -5.6      2.276      5.502
REMARK  Name = 
REMARK  4 active torsions:
REMARK  status: ('A' for Active; 'I' for Inactive)
REMARK    1  A    between atoms: C_2  and  S_3
REMARK    2  A    between atoms: S_3  and  C_4
REMARK    3  A    between atoms: N_9  and  C_10
REMARK    4  A    between atoms: C_10  and  C_11
REMARK                            x       y       z     vdW  Elec       q    Type
REMARK                         _______ _______ _______ _____ _____    ______ ____
ROOT
ATOM      1  C   UNL     1      18.167  10.716  38.342  0.00  0.00    +0.000 C 
ENDROOT
BRANCH   1   2
ATOM      2  C   UNL     1      17.984   9.521  39.202  0.00  0.00    +0.000 A 
ATOM      3  C   UNL     1      17.008   9.425  40.165  0.00  0.00    +0.000 A 
ATOM      4  C   UNL     1      17.146   8.188  40.752  0.00  0.00    +0.000 A 
ATOM      5  C   UNL     1      16.418   7.600  41.768  0.00  0.00    +0.000 A 
ATOM      6  C   UNL     1      16.728   6.336  42.208  0.00  0.00    +0.000 A 
ATOM      7  C   UNL     1      17.779   5.650  41.628  0.00  0.00    +0.000 A 
ATOM      8  C   UNL     1      18.477   6.288  40.611  0.00  0.00    +0.000 A 
ATOM      9  N   UNL     1      18.158   7.534  40.187  0.00  0.00    +0.000 N 
ATOM     10  C   UNL     1      18.676   8.335  39.244  0.00  0.00    +0.000 A 
ENDBRANCH   1   2
BRANCH   1  16
ATOM     11  C   UNL     1      16.623  10.723  36.440  0.00  0.00    +0.000 A 
ATOM     12  N   UNL     1      16.669  10.372  35.148  0.00  0.00    +0.000 NA
ATOM     13  N   UNL     1      17.890   9.904  34.884  0.00  0.00    +0.000 NA
ATOM     14  C   UNL     1      18.641   9.951  36.006  0.00  0.00    +0.000 A 
ATOM     15  N   UNL     1      20.009   9.546  36.169  0.00  0.00    +0.000 NA
ATOM     16  N   UNL     1      17.835  10.460  36.954  0.00  0.00    +0.000 N 
BRANCH  11  17
ATOM     17  S   UNL     1      15.192  11.407  37.259  0.00  0.00    +0.000 S 
BRANCH  17  19
ATOM     18  C   UNL     1      12.797  12.648  36.654  0.00  0.00    +0.000 C 
ATOM     19  C   UNL     1      14.191  12.414  36.169  0.00  0.00    +0.000 C 
ENDBRANCH  17  19
ENDBRANCH  11  17
ENDBRANCH   1  16
TORSDOF 4
ENDMDL
MODEL 7
REMARK VINA RESULT:      -5.5     19.355     20.817
REMARK  Name = 
REMARK  4 active torsions:
REMARK  status: ('A' for Active; 'I' for Inactive)
REMARK    1  A    between atoms: C_2  and  S_3
REMARK    2  A    between atoms: S_3  and  C_4
REMARK    3  A    between atoms: N_9  and  C_10
REMARK    4  A    between atoms: C_10  and  C_11
REMARK                            x       y       z     vdW  Elec       q    Type
REMARK                         _______ _______ _______ _____ _____    ______ ____
ROOT
ATOM      1  C   UNL     1      26.896  22.603  25.086  0.00  0.00    +0.000 C 
ENDROOT
BRANCH   1   2
ATOM      2  C   UNL     1      26.280  23.467  26.123  0.00  0.00    +0.000 A 
ATOM      3  C   UNL     1      26.587  23.379  27.460  0.00  0.00    +0.000 A 
ATOM      4  C   UNL     1      25.829  24.328  28.108  0.00  0.00    +0.000 A 
ATOM      5  C   UNL     1      25.762  24.650  29.450  0.00  0.00    +0.000 A 
ATOM      6  C   UNL     1      24.926  25.647  29.888  0.00  0.00    +0.000 A 
ATOM      7  C   UNL     1      24.145  26.333  28.976  0.00  0.00    +0.000 A 
ATOM      8  C   UNL     1      24.251  25.970  27.641  0.00  0.00    +0.000 A 
ATOM      9  N   UNL     1      25.081  24.984  27.223  0.00  0.00    +0.000 N 
ATOM     10  C   UNL     1      25.347  24.469  26.013  0.00  0.00    +0.000 A 
ENDBRANCH   1   2
BRANCH   1  16
ATOM     11  C   UNL     1      28.459  24.039  23.865  0.00  0.00    +0.000 A 
ATOM     12  N   UNL     1      28.523  24.593  22.648  0.00  0.00    +0.000 NA
ATOM     13  N   UNL     1      27.429  24.242  21.969  0.00  0.00    +0.000 NA
ATOM     14  C   UNL     1      26.652  23.457  22.746  0.00  0.00    +0.000 A 
ATOM     15  N   UNL     1      25.389  22.860  22.413  0.00  0.00    +0.000 NA
ATOM     16  N   UNL     1      27.310  23.346  23.913  0.00  0.00    +0.000 N 
BRANCH  11  17
ATOM     17  S   UNL     1      29.701  24.223  25.134  0.00  0.00    +0.000 S 
BRANCH  17  19
ATOM     18  C   UNL     1      30.357  22.156  26.848  0.00  0.00    +0.000 C 
ATOM     19  C   UNL     1      30.571  22.696  25.471  0.00  0.00    +0.000 C 
ENDBRANCH  17  19
ENDBRANCH  11  17
ENDBRANCH   1  16
TORSDOF 4
ENDMDL
MODEL 8
REMARK VINA RESULT:      -5.4     31.451     33.836
REMARK  Name = 
REMARK  4 active torsions:
REMARK  status: ('A' for Active; 'I' for Inactive)
REMARK    1  A    between atoms: C_2  and  S_3
REMARK    2  A    between atoms: S_3  and  C_4
REMARK    3  A    between atoms: N_9  and  C_10
REMARK    4  A    between atoms: C_10  and  C_11
REMARK                            x       y       z     vdW  Elec       q    Type
REMARK                         _______ _______ _______ _____ _____    ______ ____
ROOT
ATOM      1  C   UNL     1      32.296  22.274   9.635  0.00  0.00    +0.000 C 
ENDROOT
BRANCH   1   2
ATOM      2  C   UNL     1      31.630  21.760   8.413  0.00  0.00    +0.000 A 
ATOM      3  C   UNL     1      31.091  20.499   8.319  0.00  0.00    +0.000 A 
ATOM      4  C   UNL     1      30.567  20.381   7.052  0.00  0.00    +0.000 A 
ATOM      5  C   UNL     1      29.916  19.320   6.454  0.00  0.00    +0.000 A 
ATOM      6  C   UNL     1      29.466  19.416   5.159  0.00  0.00    +0.000 A 
ATOM      7  C   UNL     1      29.669  20.587   4.452  0.00  0.00    +0.000 A 
ATOM      8  C   UNL     1      30.327  21.622   5.101  0.00  0.00    +0.000 A 
ATOM      9  N   UNL     1      30.765  21.512   6.379  0.00  0.00    +0.000 N 
ATOM     10  C   UNL     1      31.410  22.357   7.196  0.00  0.00    +0.000 A 
ENDBRANCH   1   2
BRANCH   1  16
ATOM     11  C   UNL     1      30.858  21.862  11.575  0.00  0.00    +0.000 A 
ATOM     12  N   UNL     1      30.810  20.979  12.581  0.00  0.00    +0.000 NA
ATOM     13  N   UNL     1      31.831  20.131  12.444  0.00  0.00    +0.000 NA
ATOM     14  C   UNL     1      32.545  20.463  11.346  0.00  0.00    +0.000 A 
ATOM     15  N   UNL     1      33.719  19.818  10.830  0.00  0.00    +0.000 NA
ATOM     16  N   UNL     1      31.923  21.535  10.826  0.00  0.00    +0.000 N 
BRANCH  11  17
ATOM     17  S   UNL     1      29.693  23.193  11.332  0.00  0.00    +0.000 S 
BRANCH  17  19
ATOM     18  C   UNL     1      27.227  23.814  12.416  0.00  0.00    +0.000 C 
ATOM     19  C   UNL     1      28.019  22.728  11.762  0.00  0.00    +0.000 C 
ENDBRANCH  17  19
ENDBRANCH  11  17
ENDBRANCH   1  16
TORSDOF 4
ENDMDL
MODEL 9
REMARK VINA RESULT:      -5.3      2.799      4.127
REMARK  Name = 
REMARK  4 active torsions:
REMARK  status: ('A' for Active; 'I' for Inactive)
REMARK    1  A    between atoms: C_2  and  S_3
REMARK    2  A    between atoms: S_3  and  C_4
REMARK    3  A    between atoms: N_9  and  C_10
REMARK    4  A    between atoms: C_10  and  C_11
REMARK                            x       y       z     vdW  Elec       q    Type
REMARK                         _______ _______ _______ _____ _____    ______ ____
ROOT
ATOM      1  C   UNL     1      17.247  10.443  38.497  0.00  0.00    +0.000 C 
ENDROOT
BRANCH   1   2
ATOM      2  C   UNL     1      16.890  10.654  37.072  0.00  0.00    +0.000 A 
ATOM      3  C   UNL     1      17.549  10.046  36.030  0.00  0.00    +0.000 A 
ATOM      4  C   UNL     1      16.945  10.476  34.870  0.00  0.00    +0.000 A 
ATOM      5  C   UNL     1      17.226  10.164  33.554  0.00  0.00    +0.000 A 
ATOM      6  C   UNL     1      16.487  10.713  32.534  0.00  0.00    +0.000 A 
ATOM      7  C   UNL     1      15.456  11.585  32.831  0.00  0.00    +0.000 A 
ATOM      8  C   UNL     1      15.217  11.863  34.170  0.00  0.00    +0.000 A 
ATOM      9  N   UNL     1      15.954  11.313  35.165  0.00  0.00    +0.000 N 
ATOM     10  C   UNL     1      15.911  11.429  36.501  0.00  0.00    +0.000 A 
ENDBRANCH   1   2
BRANCH   1  16
ATOM     11  C   UNL     1      19.368   9.442  39.205  0.00  0.00    +0.000 A 
ATOM     12  N   UNL     1      20.646   9.831  39.288  0.00  0.00    +0.000 NA
ATOM     13  N   UNL     1      20.729  11.094  38.869  0.00  0.00    +0.000 NA
ATOM     14  C   UNL     1      19.502  11.530  38.511  0.00  0.00    +0.000 A 
ATOM     15  N   UNL     1      19.138  12.823  38.005  0.00  0.00    +0.000 NA
ATOM     16  N   UNL     1      18.677  10.491  38.727  0.00  0.00    +0.000 N 
BRANCH  11  17
ATOM     17  S   UNL     1      18.763   7.824  39.654  0.00  0.00    +0.000 S 
BRANCH  17  19
ATOM     18  C   UNL     1      16.770   6.776  41.258  0.00  0.00    +0.000 C 
ATOM     19  C   UNL     1      17.813   7.843  41.171  0.00  0.00    +0.000 C 
ENDBRANCH  17  19
ENDBRANCH  11  17
ENDBRANCH   1  16
TORSDOF 4
ENDMDL
MODEL 10
REMARK VINA RESULT:      -5.3     21.684     24.028
REMARK  Name = 
REMARK  4 active torsions:
REMARK  status: ('A' for Active; 'I' for Inactive)
REMARK    1  A    between atoms: C_2  and  S_3
REMARK    2  A    between atoms: S_3  and  C_4
REMARK    3  A    between atoms: N_9  and  C_10
REMARK    4  A    between atoms: C_10  and  C_11
REMARK                            x       y       z     vdW  Elec       q    Type
REMARK                         _______ _______ _______ _____ _____    ______ ____
ROOT
ATOM      1  C   UNL     1      20.533  -9.407  26.352  0.00  0.00    +0.000 C 
ENDROOT
BRANCH   1   2
ATOM      2  C   UNL     1      21.737  -8.919  25.637  0.00  0.00    +0.000 A 
ATOM      3  C   UNL     1      21.915  -7.608  25.262  0.00  0.00    +0.000 A 
ATOM      4  C   UNL     1      23.135  -7.536  24.629  0.00  0.00    +0.000 A 
ATOM      5  C   UNL     1      23.782  -6.452  24.067  0.00  0.00    +0.000 A 
ATOM      6  C   UNL     1      25.013  -6.603  23.477  0.00  0.00    +0.000 A 
ATOM      7  C   UNL     1      25.608  -7.851  23.447  0.00  0.00    +0.000 A 
ATOM      8  C   UNL     1      24.914  -8.905  24.026  0.00  0.00    +0.000 A 
ATOM      9  N   UNL     1      23.700  -8.741  24.605  0.00  0.00    +0.000 N 
ATOM     10  C   UNL     1      22.860  -9.590  25.215  0.00  0.00    +0.000 A 
ENDBRANCH   1   2
BRANCH   1  16
ATOM     11  C   UNL     1      18.304  -8.469  25.956  0.00  0.00    +0.000 A 
ATOM     12  N   UNL     1      17.363  -8.567  25.010  0.00  0.00    +0.000 NA
ATOM     13  N   UNL     1      17.801  -9.401  24.066  0.00  0.00    +0.000 NA
ATOM     14  C   UNL     1      19.031  -9.848  24.399  0.00  0.00    +0.000 A 
ATOM     15  N   UNL     1      19.866 -10.760  23.668  0.00  0.00    +0.000 NA
ATOM     16  N   UNL     1      19.321  -9.258  25.571  0.00  0.00    +0.000 N 
BRANCH  11  17
ATOM     17  S   UNL     1      18.173  -7.462  27.424  0.00  0.00    +0.000 S 
BRANCH  17  19
ATOM     18  C   UNL     1      19.328  -5.312  26.128  0.00  0.00    +0.000 C 
ATOM     19  C   UNL     1      18.233  -5.710  27.063  0.00  0.00    +0.000 C 
ENDBRANCH  17  19
ENDBRANCH  11  17
ENDBRANCH   1  16
TORSDOF 4
ENDMDL
