MODEL 1
REMARK VINA RESULT:      -7.7      0.000      0.000
REMARK  Name = 
REMARK  7 active torsions:
REMARK  status: ('A' for Active; 'I' for Inactive)
REMARK    1  A    between atoms: C_2  and  C_3
REMARK    2  A    between atoms: C_3  and  O_4
REMARK    3  A    between atoms: O_4  and  C_5
REMARK    4  A    between atoms: C_8  and  O_9
REMARK    5  A    between atoms: O_9  and  C_10
REMARK    6  A    between atoms: N_18  and  C_19
REMARK    7  A    between atoms: C_22  and  N_23
REMARK                            x       y       z     vdW  Elec       q    Type
REMARK                         _______ _______ _______ _____ _____    ______ ____
ROOT
ATOM      1  O   UNL     1      14.473  -0.606  25.953  0.00  0.00    +0.000 OA
ATOM      2  C   UNL     1      14.628   0.028  27.051  0.00  0.00    +0.000 C 
ATOM      3  N   UNL     1      15.933   0.456  27.350  0.00  0.00    +0.000 NA
ENDROOT
BRANCH   3   4
ATOM      4  C   UNL     1      17.017   0.184  26.456  0.00  0.00    +0.000 A 
ATOM      5  C   UNL     1      17.477   1.122  25.559  0.00  0.00    +0.000 A 
ATOM      6  C   UNL     1      18.522   0.848  24.703  0.00  0.00    +0.000 A 
ATOM      7  C   UNL     1      19.169  -0.382  24.695  0.00  0.00    +0.000 A 
ATOM      8  C   UNL     1      18.694  -1.310  25.600  0.00  0.00    +0.000 A 
ATOM      9  C   UNL     1      17.649  -1.040  26.458  0.00  0.00    +0.000 A 
BRANCH   7  10
ATOM     10  N   UNL     1      20.244  -0.657  23.811  0.00  0.00    +0.000 N 
ATOM     11  C   UNL     1      21.390   0.216  23.791  0.00  0.00    +0.000 C 
ATOM     12  C   UNL     1      21.478   0.799  22.389  0.00  0.00    +0.000 C 
ATOM     13  C   UNL     1      20.380   0.290  21.496  0.00  0.00    +0.000 C 
ATOM     14  C   UNL     1      20.250  -1.199  21.493  0.00  0.00    +0.000 C 
ATOM     15  C   UNL     1      20.260  -1.781  22.913  0.00  0.00    +0.000 C 
ENDBRANCH   7  10
ENDBRANCH   3   4
BRANCH   2  16
ATOM     16  C   UNL     1      13.451   0.280  27.942  0.00  0.00    +0.000 C 
BRANCH  16  17
ATOM     17  O   UNL     1      13.095   1.630  27.833  0.00  0.00    +0.000 OA
BRANCH  17  18
ATOM     18  C   UNL     1      11.784   2.015  27.634  0.00  0.00    +0.000 A 
ATOM     19  C   UNL     1      10.996   2.572  28.605  0.00  0.00    +0.000 A 
ATOM     20  C   UNL     1       9.684   2.935  28.335  0.00  0.00    +0.000 A 
ATOM     21  C   UNL     1       9.135   2.749  27.095  0.00  0.00    +0.000 A 
ATOM     22  C   UNL     1       9.926   2.188  26.115  0.00  0.00    +0.000 A 
ATOM     23  C   UNL     1      11.229   1.830  26.391  0.00  0.00    +0.000 A 
BRANCH  21  24
ATOM     24  O   UNL     1       7.816   3.114  26.821  0.00  0.00    +0.000 OA
BRANCH  24  25
ATOM     25  C   UNL     1       6.956   2.177  26.268  0.00  0.00    +0.000 A 
ATOM     26  C   UNL     1       6.392   2.357  25.016  0.00  0.00    +0.000 A 
ATOM     27  C   UNL     1       5.535   1.425  24.463  0.00  0.00    +0.000 A 
ATOM     28  C   UNL     1       5.224   0.279  25.165  0.00  0.00    +0.000 A 
ATOM     29  C   UNL     1       5.785   0.102  26.409  0.00  0.00    +0.000 A 
ATOM     30  C   UNL     1       6.645   1.030  26.971  0.00  0.00    +0.000 A 
ENDBRANCH  24  25
ENDBRANCH  21  24
ENDBRANCH  17  18
ENDBRANCH  16  17
ENDBRANCH   2  16
TORSDOF 7
ENDMDL
MODEL 2
REMARK VINA RESULT:      -7.7     23.966     27.359
REMARK  Name = 
REMARK  7 active torsions:
REMARK  status: ('A' for Active; 'I' for Inactive)
REMARK    1  A    between atoms: C_2  and  C_3
REMARK    2  A    between atoms: C_3  and  O_4
REMARK    3  A    between atoms: O_4  and  C_5
REMARK    4  A    between atoms: C_8  and  O_9
REMARK    5  A    between atoms: O_9  and  C_10
REMARK    6  A    between atoms: N_18  and  C_19
REMARK    7  A    between atoms: C_22  and  N_23
REMARK                            x       y       z     vdW  Elec       q    Type
REMARK                         _______ _______ _______ _____ _____    ______ ____
ROOT
ATOM      1  O   UNL     1      39.465  -4.280  16.592  0.00  0.00    +0.000 OA
ATOM      2  C   UNL     1      39.135  -3.124  17.024  0.00  0.00    +0.000 C 
ATOM      3  N   UNL     1      39.411  -2.036  16.179  0.00  0.00    +0.000 NA
ENDROOT
BRANCH   3   4
ATOM      4  C   UNL     1      40.032  -2.235  14.905  0.00  0.00    +0.000 A 
ATOM      5  C   UNL     1      41.394  -2.124  14.730  0.00  0.00    +0.000 A 
ATOM      6  C   UNL     1      41.980  -2.318  13.498  0.00  0.00    +0.000 A 
ATOM      7  C   UNL     1      41.237  -2.637  12.367  0.00  0.00    +0.000 A 
ATOM      8  C   UNL     1      39.874  -2.744  12.561  0.00  0.00    +0.000 A 
ATOM      9  C   UNL     1      39.284  -2.549  13.792  0.00  0.00    +0.000 A 
BRANCH   7  10
ATOM     10  N   UNL     1      41.847  -2.835  11.102  0.00  0.00    +0.000 N 
ATOM     11  C   UNL     1      42.494  -1.729  10.443  0.00  0.00    +0.000 C 
ATOM     12  C   UNL     1      41.764  -1.507   9.128  0.00  0.00    +0.000 C 
ATOM     13  C   UNL     1      40.638  -2.486   8.936  0.00  0.00    +0.000 C 
ATOM     14  C   UNL     1      41.039  -3.911   9.138  0.00  0.00    +0.000 C 
ATOM     15  C   UNL     1      41.859  -4.103  10.421  0.00  0.00    +0.000 C 
ENDBRANCH   7  10
ENDBRANCH   3   4
BRANCH   2  16
ATOM     16  C   UNL     1      38.487  -2.984  18.367  0.00  0.00    +0.000 C 
BRANCH  16  17
ATOM     17  O   UNL     1      37.098  -2.967  18.188  0.00  0.00    +0.000 OA
BRANCH  17  18
ATOM     18  C   UNL     1      36.435  -1.814  17.818  0.00  0.00    +0.000 A 
ATOM     19  C   UNL     1      35.889  -1.611  16.580  0.00  0.00    +0.000 A 
ATOM     20  C   UNL     1      35.235  -0.426  16.276  0.00  0.00    +0.000 A 
ATOM     21  C   UNL     1      35.115   0.578  17.199  0.00  0.00    +0.000 A 
ATOM     22  C   UNL     1      35.664   0.377  18.448  0.00  0.00    +0.000 A 
ATOM     23  C   UNL     1      36.312  -0.805  18.742  0.00  0.00    +0.000 A 
BRANCH  21  24
ATOM     24  O   UNL     1      34.457   1.771  16.896  0.00  0.00    +0.000 OA
BRANCH  24  25
ATOM     25  C   UNL     1      35.118   2.736  16.150  0.00  0.00    +0.000 A 
ATOM     26  C   UNL     1      36.441   3.065  16.395  0.00  0.00    +0.000 A 
ATOM     27  C   UNL     1      37.100   4.026  15.654  0.00  0.00    +0.000 A 
ATOM     28  C   UNL     1      36.437   4.684  14.639  0.00  0.00    +0.000 A 
ATOM     29  C   UNL     1      35.123   4.356  14.398  0.00  0.00    +0.000 A 
ATOM     30  C   UNL     1      34.453   3.394  15.134  0.00  0.00    +0.000 A 
ENDBRANCH  24  25
ENDBRANCH  21  24
ENDBRANCH  17  18
ENDBRANCH  16  17
ENDBRANCH   2  16
TORSDOF 7
ENDMDL
MODEL 3
REMARK VINA RESULT:      -7.6     24.525     27.742
REMARK  Name = 
REMARK  7 active torsions:
REMARK  status: ('A' for Active; 'I' for Inactive)
REMARK    1  A    between atoms: C_2  and  C_3
REMARK    2  A    between atoms: C_3  and  O_4
REMARK    3  A    between atoms: O_4  and  C_5
REMARK    4  A    between atoms: C_8  and  O_9
REMARK    5  A    between atoms: O_9  and  C_10
REMARK    6  A    between atoms: N_18  and  C_19
REMARK    7  A    between atoms: C_22  and  N_23
REMARK                            x       y       z     vdW  Elec       q    Type
REMARK                         _______ _______ _______ _____ _____    ______ ____
ROOT
ATOM      1  O   UNL     1      38.371   3.868  18.300  0.00  0.00    +0.000 OA
ATOM      2  C   UNL     1      38.112   4.551  17.251  0.00  0.00    +0.000 C 
ATOM      3  N   UNL     1      38.841   5.741  17.082  0.00  0.00    +0.000 NA
ENDROOT
BRANCH   3   4
ATOM      4  C   UNL     1      39.817   6.147  18.047  0.00  0.00    +0.000 A 
ATOM      5  C   UNL     1      39.471   6.495  19.334  0.00  0.00    +0.000 A 
ATOM      6  C   UNL     1      40.421   6.885  20.254  0.00  0.00    +0.000 A 
ATOM      7  C   UNL     1      41.774   6.948  19.939  0.00  0.00    +0.000 A 
ATOM      8  C   UNL     1      42.101   6.596  18.645  0.00  0.00    +0.000 A 
ATOM      9  C   UNL     1      41.154   6.207  17.722  0.00  0.00    +0.000 A 
BRANCH   7  10
ATOM     10  N   UNL     1      42.745   7.350  20.891  0.00  0.00    +0.000 N 
ATOM     11  C   UNL     1      43.090   8.745  21.010  0.00  0.00    +0.000 C 
ATOM     12  C   UNL     1      44.570   8.865  20.682  0.00  0.00    +0.000 C 
ATOM     13  C   UNL     1      45.186   7.532  20.355  0.00  0.00    +0.000 C 
ATOM     14  C   UNL     1      44.906   6.474  21.372  0.00  0.00    +0.000 C 
ATOM     15  C   UNL     1      43.424   6.430  21.765  0.00  0.00    +0.000 C 
ENDBRANCH   7  10
ENDBRANCH   3   4
BRANCH   2  16
ATOM     16  C   UNL     1      37.078   4.069  16.280  0.00  0.00    +0.000 C 
BRANCH  16  17
ATOM     17  O   UNL     1      36.320   3.070  16.902  0.00  0.00    +0.000 OA
BRANCH  17  18
ATOM     18  C   UNL     1      36.289   1.780  16.410  0.00  0.00    +0.000 A 
ATOM     19  C   UNL     1      35.520   0.779  16.939  0.00  0.00    +0.000 A 
ATOM     20  C   UNL     1      35.538  -0.496  16.393  0.00  0.00    +0.000 A 
ATOM     21  C   UNL     1      36.322  -0.797  15.312  0.00  0.00    +0.000 A 
ATOM     22  C   UNL     1      37.098   0.209  14.777  0.00  0.00    +0.000 A 
ATOM     23  C   UNL     1      37.074   1.475  15.325  0.00  0.00    +0.000 A 
BRANCH  21  24
ATOM     24  O   UNL     1      36.341  -2.079  14.761  0.00  0.00    +0.000 OA
BRANCH  24  25
ATOM     25  C   UNL     1      36.847  -3.130  15.512  0.00  0.00    +0.000 A 
ATOM     26  C   UNL     1      36.107  -4.275  15.751  0.00  0.00    +0.000 A 
ATOM     27  C   UNL     1      36.609  -5.323  16.499  0.00  0.00    +0.000 A 
ATOM     28  C   UNL     1      37.880  -5.240  17.028  0.00  0.00    +0.000 A 
ATOM     29  C   UNL     1      38.613  -4.101  16.790  0.00  0.00    +0.000 A 
ATOM     30  C   UNL     1      38.120  -3.046  16.041  0.00  0.00    +0.000 A 
ENDBRANCH  24  25
ENDBRANCH  21  24
ENDBRANCH  17  18
ENDBRANCH  16  17
ENDBRANCH   2  16
TORSDOF 7
ENDMDL
MODEL 4
REMARK VINA RESULT:      -7.6     23.962     28.374
REMARK  Name = 
REMARK  7 active torsions:
REMARK  status: ('A' for Active; 'I' for Inactive)
REMARK    1  A    between atoms: C_2  and  C_3
REMARK    2  A    between atoms: C_3  and  O_4
REMARK    3  A    between atoms: O_4  and  C_5
REMARK    4  A    between atoms: C_8  and  O_9
REMARK    5  A    between atoms: O_9  and  C_10
REMARK    6  A    between atoms: N_18  and  C_19
REMARK    7  A    between atoms: C_22  and  N_23
REMARK                            x       y       z     vdW  Elec       q    Type
REMARK                         _______ _______ _______ _____ _____    ______ ____
ROOT
ATOM      1  O   UNL     1      37.831   3.248  17.924  0.00  0.00    +0.000 OA
ATOM      2  C   UNL     1      37.657   3.870  16.822  0.00  0.00    +0.000 C 
ATOM      3  N   UNL     1      37.073   3.140  15.774  0.00  0.00    +0.000 NA
ENDROOT
BRANCH   3   4
ATOM      4  C   UNL     1      36.701   1.769  15.953  0.00  0.00    +0.000 A 
ATOM      5  C   UNL     1      37.468   0.734  15.465  0.00  0.00    +0.000 A 
ATOM      6  C   UNL     1      37.098  -0.582  15.644  0.00  0.00    +0.000 A 
ATOM      7  C   UNL     1      35.939  -0.939  16.324  0.00  0.00    +0.000 A 
ATOM      8  C   UNL     1      35.184   0.111  16.805  0.00  0.00    +0.000 A 
ATOM      9  C   UNL     1      35.549   1.428  16.628  0.00  0.00    +0.000 A 
BRANCH   7  10
ATOM     10  N   UNL     1      35.566  -2.296  16.504  0.00  0.00    +0.000 N 
ATOM     11  C   UNL     1      36.534  -3.240  17.004  0.00  0.00    +0.000 C 
ATOM     12  C   UNL     1      36.716  -4.299  15.928  0.00  0.00    +0.000 C 
ATOM     13  C   UNL     1      35.851  -4.036  14.725  0.00  0.00    +0.000 C 
ATOM     14  C   UNL     1      34.415  -3.796  15.058  0.00  0.00    +0.000 C 
ATOM     15  C   UNL     1      34.249  -2.798  16.212  0.00  0.00    +0.000 C 
ENDBRANCH   7  10
ENDBRANCH   3   4
BRANCH   2  16
ATOM     16  C   UNL     1      38.068   5.306  16.701  0.00  0.00    +0.000 C 
BRANCH  16  17
ATOM     17  O   UNL     1      38.105   5.865  17.984  0.00  0.00    +0.000 OA
BRANCH  17  18
ATOM     18  C   UNL     1      39.286   6.314  18.540  0.00  0.00    +0.000 A 
ATOM     19  C   UNL     1      39.369   6.939  19.755  0.00  0.00    +0.000 A 
ATOM     20  C   UNL     1      40.592   7.365  20.253  0.00  0.00    +0.000 A 
ATOM     21  C   UNL     1      41.752   7.178  19.550  0.00  0.00    +0.000 A 
ATOM     22  C   UNL     1      41.671   6.549  18.325  0.00  0.00    +0.000 A 
ATOM     23  C   UNL     1      40.451   6.128  17.837  0.00  0.00    +0.000 A 
BRANCH  21  24
ATOM     24  O   UNL     1      42.983   7.606  20.049  0.00  0.00    +0.000 OA
BRANCH  24  25
ATOM     25  C   UNL     1      43.892   6.662  20.505  0.00  0.00    +0.000 A 
ATOM     26  C   UNL     1      43.587   5.802  21.546  0.00  0.00    +0.000 A 
ATOM     27  C   UNL     1      44.492   4.862  22.001  0.00  0.00    +0.000 A 
ATOM     28  C   UNL     1      45.736   4.766  21.413  0.00  0.00    +0.000 A 
ATOM     29  C   UNL     1      46.036   5.623  20.379  0.00  0.00    +0.000 A 
ATOM     30  C   UNL     1      45.137   6.567  19.915  0.00  0.00    +0.000 A 
ENDBRANCH  24  25
ENDBRANCH  21  24
ENDBRANCH  17  18
ENDBRANCH  16  17
ENDBRANCH   2  16
TORSDOF 7
ENDMDL
MODEL 5
REMARK VINA RESULT:      -7.5     23.881     27.352
REMARK  Name = 
REMARK  7 active torsions:
REMARK  status: ('A' for Active; 'I' for Inactive)
REMARK    1  A    between atoms: C_2  and  C_3
REMARK    2  A    between atoms: C_3  and  O_4
REMARK    3  A    between atoms: O_4  and  C_5
REMARK    4  A    between atoms: C_8  and  O_9
REMARK    5  A    between atoms: O_9  and  C_10
REMARK    6  A    between atoms: N_18  and  C_19
REMARK    7  A    between atoms: C_22  and  N_23
REMARK                            x       y       z     vdW  Elec       q    Type
REMARK                         _______ _______ _______ _____ _____    ______ ____
ROOT
ATOM      1  O   UNL     1      37.775   6.281  14.854  0.00  0.00    +0.000 OA
ATOM      2  C   UNL     1      37.594   5.024  14.986  0.00  0.00    +0.000 C 
ATOM      3  N   UNL     1      38.375   4.375  15.957  0.00  0.00    +0.000 NA
ENDROOT
BRANCH   3   4
ATOM      4  C   UNL     1      39.320   5.106  16.746  0.00  0.00    +0.000 A 
ATOM      5  C   UNL     1      39.166   5.269  18.105  0.00  0.00    +0.000 A 
ATOM      6  C   UNL     1      40.082   5.975  18.854  0.00  0.00    +0.000 A 
ATOM      7  C   UNL     1      41.209   6.559  18.286  0.00  0.00    +0.000 A 
ATOM      8  C   UNL     1      41.347   6.385  16.924  0.00  0.00    +0.000 A 
ATOM      9  C   UNL     1      40.432   5.680  16.171  0.00  0.00    +0.000 A 
BRANCH   7  10
ATOM     10  N   UNL     1      42.148   7.284  19.063  0.00  0.00    +0.000 N 
ATOM     11  C   UNL     1      43.432   7.619  18.499  0.00  0.00    +0.000 C 
ATOM     12  C   UNL     1      44.486   6.946  19.364  0.00  0.00    +0.000 C 
ATOM     13  C   UNL     1      43.874   6.175  20.502  0.00  0.00    +0.000 C 
ATOM     14  C   UNL     1      42.890   6.965  21.303  0.00  0.00    +0.000 C 
ATOM     15  C   UNL     1      41.892   7.716  20.412  0.00  0.00    +0.000 C 
ENDBRANCH   7  10
ENDBRANCH   3   4
BRANCH   2  16
ATOM     16  C   UNL     1      36.588   4.318  14.128  0.00  0.00    +0.000 C 
BRANCH  16  17
ATOM     17  O   UNL     1      35.577   3.816  14.956  0.00  0.00    +0.000 OA
BRANCH  17  18
ATOM     18  C   UNL     1      35.551   2.489  15.335  0.00  0.00    +0.000 A 
ATOM     19  C   UNL     1      36.200   1.489  14.662  0.00  0.00    +0.000 A 
ATOM     20  C   UNL     1      36.131   0.174  15.100  0.00  0.00    +0.000 A 
ATOM     21  C   UNL     1      35.415  -0.167  16.216  0.00  0.00    +0.000 A 
ATOM     22  C   UNL     1      34.760   0.837  16.897  0.00  0.00    +0.000 A 
ATOM     23  C   UNL     1      34.834   2.142  16.454  0.00  0.00    +0.000 A 
BRANCH  21  24
ATOM     24  O   UNL     1      35.345  -1.489  16.659  0.00  0.00    +0.000 OA
BRANCH  24  25
ATOM     25  C   UNL     1      36.470  -2.075  17.220  0.00  0.00    +0.000 A 
ATOM     26  C   UNL     1      37.050  -1.577  18.375  0.00  0.00    +0.000 A 
ATOM     27  C   UNL     1      38.171  -2.159  18.935  0.00  0.00    +0.000 A 
ATOM     28  C   UNL     1      38.739  -3.265  18.338  0.00  0.00    +0.000 A 
ATOM     29  C   UNL     1      38.162  -3.757  17.191  0.00  0.00    +0.000 A 
ATOM     30  C   UNL     1      37.038  -3.182  16.622  0.00  0.00    +0.000 A 
ENDBRANCH  24  25
ENDBRANCH  21  24
ENDBRANCH  17  18
ENDBRANCH  16  17
ENDBRANCH   2  16
TORSDOF 7
ENDMDL
MODEL 6
REMARK VINA RESULT:      -7.3     24.324     27.795
REMARK  Name = 
REMARK  7 active torsions:
REMARK  status: ('A' for Active; 'I' for Inactive)
REMARK    1  A    between atoms: C_2  and  C_3
REMARK    2  A    between atoms: C_3  and  O_4
REMARK    3  A    between atoms: O_4  and  C_5
REMARK    4  A    between atoms: C_8  and  O_9
REMARK    5  A    between atoms: O_9  and  C_10
REMARK    6  A    between atoms: N_18  and  C_19
REMARK    7  A    between atoms: C_22  and  N_23
REMARK                            x       y       z     vdW  Elec       q    Type
REMARK                         _______ _______ _______ _____ _____    ______ ____
ROOT
ATOM      1  O   UNL     1      39.052   8.116  16.661  0.00  0.00    +0.000 OA
ATOM      2  C   UNL     1      38.594   6.943  16.447  0.00  0.00    +0.000 C 
ATOM      3  N   UNL     1      39.235   5.886  17.116  0.00  0.00    +0.000 NA
ENDROOT
BRANCH   3   4
ATOM      4  C   UNL     1      40.342   6.135  17.987  0.00  0.00    +0.000 A 
ATOM      5  C   UNL     1      41.617   6.344  17.508  0.00  0.00    +0.000 A 
ATOM      6  C   UNL     1      42.675   6.582  18.359  0.00  0.00    +0.000 A 
ATOM      7  C   UNL     1      42.520   6.626  19.739  0.00  0.00    +0.000 A 
ATOM      8  C   UNL     1      41.237   6.415  20.201  0.00  0.00    +0.000 A 
ATOM      9  C   UNL     1      40.175   6.176  19.354  0.00  0.00    +0.000 A 
BRANCH   7  10
ATOM     10  N   UNL     1      43.614   6.872  20.608  0.00  0.00    +0.000 N 
ATOM     11  C   UNL     1      44.956   6.868  20.081  0.00  0.00    +0.000 C 
ATOM     12  C   UNL     1      45.710   5.758  20.796  0.00  0.00    +0.000 C 
ATOM     13  C   UNL     1      44.845   5.044  21.799  0.00  0.00    +0.000 C 
ATOM     14  C   UNL     1      44.138   5.960  22.744  0.00  0.00    +0.000 C 
ATOM     15  C   UNL     1      43.463   7.130  22.016  0.00  0.00    +0.000 C 
ENDBRANCH   7  10
ENDBRANCH   3   4
BRANCH   2  16
ATOM     16  C   UNL     1      37.430   6.751  15.522  0.00  0.00    +0.000 C 
BRANCH  16  17
ATOM     17  O   UNL     1      37.719   5.682  14.665  0.00  0.00    +0.000 OA
BRANCH  17  18
ATOM     18  C   UNL     1      37.199   4.423  14.886  0.00  0.00    +0.000 A 
ATOM     19  C   UNL     1      35.861   4.159  15.005  0.00  0.00    +0.000 A 
ATOM     20  C   UNL     1      35.408   2.866  15.227  0.00  0.00    +0.000 A 
ATOM     21  C   UNL     1      36.279   1.815  15.336  0.00  0.00    +0.000 A 
ATOM     22  C   UNL     1      37.627   2.078  15.217  0.00  0.00    +0.000 A 
ATOM     23  C   UNL     1      38.070   3.366  14.996  0.00  0.00    +0.000 A 
BRANCH  21  24
ATOM     24  O   UNL     1      35.825   0.514  15.559  0.00  0.00    +0.000 OA
BRANCH  24  25
ATOM     25  C   UNL     1      36.126  -0.109  16.761  0.00  0.00    +0.000 A 
ATOM     26  C   UNL     1      35.664   0.382  17.970  0.00  0.00    +0.000 A 
ATOM     27  C   UNL     1      35.963  -0.237  19.169  0.00  0.00    +0.000 A 
ATOM     28  C   UNL     1      36.740  -1.377  19.176  0.00  0.00    +0.000 A 
ATOM     29  C   UNL     1      37.198  -1.863  17.973  0.00  0.00    +0.000 A 
ATOM     30  C   UNL     1      36.904  -1.250  16.767  0.00  0.00    +0.000 A 
ENDBRANCH  24  25
ENDBRANCH  21  24
ENDBRANCH  17  18
ENDBRANCH  16  17
ENDBRANCH   2  16
TORSDOF 7
ENDMDL
MODEL 7
REMARK VINA RESULT:      -7.2     24.274     26.909
REMARK  Name = 
REMARK  7 active torsions:
REMARK  status: ('A' for Active; 'I' for Inactive)
REMARK    1  A    between atoms: C_2  and  C_3
REMARK    2  A    between atoms: C_3  and  O_4
REMARK    3  A    between atoms: O_4  and  C_5
REMARK    4  A    between atoms: C_8  and  O_9
REMARK    5  A    between atoms: O_9  and  C_10
REMARK    6  A    between atoms: N_18  and  C_19
REMARK    7  A    between atoms: C_22  and  N_23
REMARK                            x       y       z     vdW  Elec       q    Type
REMARK                         _______ _______ _______ _____ _____    ______ ____
ROOT
ATOM      1  O   UNL     1      39.609   5.545  15.634  0.00  0.00    +0.000 OA
ATOM      2  C   UNL     1      38.967   4.545  16.103  0.00  0.00    +0.000 C 
ATOM      3  N   UNL     1      38.544   4.641  17.439  0.00  0.00    +0.000 NA
ENDROOT
BRANCH   3   4
ATOM      4  C   UNL     1      38.828   5.809  18.216  0.00  0.00    +0.000 A 
ATOM      5  C   UNL     1      39.818   5.827  19.173  0.00  0.00    +0.000 A 
ATOM      6  C   UNL     1      40.082   6.959  19.915  0.00  0.00    +0.000 A 
ATOM      7  C   UNL     1      39.370   8.141  19.741  0.00  0.00    +0.000 A 
ATOM      8  C   UNL     1      38.382   8.104  18.778  0.00  0.00    +0.000 A 
ATOM      9  C   UNL     1      38.115   6.974  18.034  0.00  0.00    +0.000 A 
BRANCH   7  10
ATOM     10  N   UNL     1      39.647   9.301  20.508  0.00  0.00    +0.000 N 
ATOM     11  C   UNL     1      38.575   9.965  21.207  0.00  0.00    +0.000 C 
ATOM     12  C   UNL     1      38.482  11.373  20.640  0.00  0.00    +0.000 C 
ATOM     13  C   UNL     1      39.510  11.620  19.570  0.00  0.00    +0.000 C 
ATOM     14  C   UNL     1      40.901  11.254  19.976  0.00  0.00    +0.000 C 
ATOM     15  C   UNL     1      40.963   9.869  20.634  0.00  0.00    +0.000 C 
ENDBRANCH   7  10
ENDBRANCH   3   4
BRANCH   2  16
ATOM     16  C   UNL     1      38.702   3.352  15.236  0.00  0.00    +0.000 C 
BRANCH  16  17
ATOM     17  O   UNL     1      37.317   3.158  15.163  0.00  0.00    +0.000 OA
BRANCH  17  18
ATOM     18  C   UNL     1      36.743   1.945  15.489  0.00  0.00    +0.000 A 
ATOM     19  C   UNL     1      36.830   0.825  14.708  0.00  0.00    +0.000 A 
ATOM     20  C   UNL     1      36.227  -0.363  15.098  0.00  0.00    +0.000 A 
ATOM     21  C   UNL     1      35.527  -0.454  16.270  0.00  0.00    +0.000 A 
ATOM     22  C   UNL     1      35.437   0.673  17.059  0.00  0.00    +0.000 A 
ATOM     23  C   UNL     1      36.039   1.850  16.665  0.00  0.00    +0.000 A 
BRANCH  21  24
ATOM     24  O   UNL     1      34.920  -1.647  16.664  0.00  0.00    +0.000 OA
BRANCH  24  25
ATOM     25  C   UNL     1      35.654  -2.824  16.628  0.00  0.00    +0.000 A 
ATOM     26  C   UNL     1      35.236  -3.919  15.891  0.00  0.00    +0.000 A 
ATOM     27  C   UNL     1      35.966  -5.091  15.853  0.00  0.00    +0.000 A 
ATOM     28  C   UNL     1      37.144  -5.189  16.564  0.00  0.00    +0.000 A 
ATOM     29  C   UNL     1      37.557  -4.099  17.295  0.00  0.00    +0.000 A 
ATOM     30  C   UNL     1      36.834  -2.920  17.340  0.00  0.00    +0.000 A 
ENDBRANCH  24  25
ENDBRANCH  21  24
ENDBRANCH  17  18
ENDBRANCH  16  17
ENDBRANCH   2  16
TORSDOF 7
ENDMDL
MODEL 8
REMARK VINA RESULT:      -7.2     23.907     27.409
REMARK  Name = 
REMARK  7 active torsions:
REMARK  status: ('A' for Active; 'I' for Inactive)
REMARK    1  A    between atoms: C_2  and  C_3
REMARK    2  A    between atoms: C_3  and  O_4
REMARK    3  A    between atoms: O_4  and  C_5
REMARK    4  A    between atoms: C_8  and  O_9
REMARK    5  A    between atoms: O_9  and  C_10
REMARK    6  A    between atoms: N_18  and  C_19
REMARK    7  A    between atoms: C_22  and  N_23
REMARK                            x       y       z     vdW  Elec       q    Type
REMARK                         _______ _______ _______ _____ _____    ______ ____
ROOT
ATOM      1  O   UNL     1      36.192   3.000  13.868  0.00  0.00    +0.000 OA
ATOM      2  C   UNL     1      36.087   3.737  14.906  0.00  0.00    +0.000 C 
ATOM      3  N   UNL     1      35.899   3.073  16.131  0.00  0.00    +0.000 NA
ENDROOT
BRANCH   3   4
ATOM      4  C   UNL     1      35.832   1.645  16.188  0.00  0.00    +0.000 A 
ATOM      5  C   UNL     1      36.784   0.844  15.597  0.00  0.00    +0.000 A 
ATOM      6  C   UNL     1      36.707  -0.531  15.659  0.00  0.00    +0.000 A 
ATOM      7  C   UNL     1      35.673  -1.186  16.318  0.00  0.00    +0.000 A 
ATOM      8  C   UNL     1      34.728  -0.367  16.903  0.00  0.00    +0.000 A 
ATOM      9  C   UNL     1      34.801   1.008  16.843  0.00  0.00    +0.000 A 
BRANCH   7  10
ATOM     10  N   UNL     1      35.600  -2.601  16.377  0.00  0.00    +0.000 N 
ATOM     11  C   UNL     1      36.655  -3.340  17.025  0.00  0.00    +0.000 C 
ATOM     12  C   UNL     1      37.273  -4.246  15.971  0.00  0.00    +0.000 C 
ATOM     13  C   UNL     1      36.605  -4.092  14.632  0.00  0.00    +0.000 C 
ATOM     14  C   UNL     1      35.116  -4.205  14.686  0.00  0.00    +0.000 C 
ATOM     15  C   UNL     1      34.514  -3.361  15.817  0.00  0.00    +0.000 C 
ENDBRANCH   7  10
ENDBRANCH   3   4
BRANCH   2  16
ATOM     16  C   UNL     1      36.167   5.228  14.778  0.00  0.00    +0.000 C 
BRANCH  16  17
ATOM     17  O   UNL     1      37.512   5.607  14.866  0.00  0.00    +0.000 OA
BRANCH  17  18
ATOM     18  C   UNL     1      38.106   5.873  16.084  0.00  0.00    +0.000 A 
ATOM     19  C   UNL     1      38.121   7.109  16.672  0.00  0.00    +0.000 A 
ATOM     20  C   UNL     1      38.737   7.304  17.900  0.00  0.00    +0.000 A 
ATOM     21  C   UNL     1      39.349   6.274  18.562  0.00  0.00    +0.000 A 
ATOM     22  C   UNL     1      39.336   5.028  17.972  0.00  0.00    +0.000 A 
ATOM     23  C   UNL     1      38.721   4.841  16.751  0.00  0.00    +0.000 A 
BRANCH  21  24
ATOM     24  O   UNL     1      39.969   6.468  19.797  0.00  0.00    +0.000 OA
BRANCH  24  25
ATOM     25  C   UNL     1      41.355   6.509  19.859  0.00  0.00    +0.000 A 
ATOM     26  C   UNL     1      42.043   6.120  20.995  0.00  0.00    +0.000 A 
ATOM     27  C   UNL     1      43.423   6.160  21.059  0.00  0.00    +0.000 A 
ATOM     28  C   UNL     1      44.147   6.597  19.970  0.00  0.00    +0.000 A 
ATOM     29  C   UNL     1      43.460   6.983  18.842  0.00  0.00    +0.000 A 
ATOM     30  C   UNL     1      42.079   6.947  18.767  0.00  0.00    +0.000 A 
ENDBRANCH  24  25
ENDBRANCH  21  24
ENDBRANCH  17  18
ENDBRANCH  16  17
ENDBRANCH   2  16
TORSDOF 7
ENDMDL
MODEL 9
REMARK VINA RESULT:      -7.0     20.993     23.665
REMARK  Name = 
REMARK  7 active torsions:
REMARK  status: ('A' for Active; 'I' for Inactive)
REMARK    1  A    between atoms: C_2  and  C_3
REMARK    2  A    between atoms: C_3  and  O_4
REMARK    3  A    between atoms: O_4  and  C_5
REMARK    4  A    between atoms: C_8  and  O_9
REMARK    5  A    between atoms: O_9  and  C_10
REMARK    6  A    between atoms: N_18  and  C_19
REMARK    7  A    between atoms: C_22  and  N_23
REMARK                            x       y       z     vdW  Elec       q    Type
REMARK                         _______ _______ _______ _____ _____    ______ ____
ROOT
ATOM      1  O   UNL     1      26.685  12.005  43.101  0.00  0.00    +0.000 OA
ATOM      2  C   UNL     1      26.598  11.585  41.898  0.00  0.00    +0.000 C 
ATOM      3  N   UNL     1      26.206  10.247  41.726  0.00  0.00    +0.000 NA
ENDROOT
BRANCH   3   4
ATOM      4  C   UNL     1      25.923   9.415  42.856  0.00  0.00    +0.000 A 
ATOM      5  C   UNL     1      24.643   9.237  43.330  0.00  0.00    +0.000 A 
ATOM      6  C   UNL     1      24.384   8.433  44.420  0.00  0.00    +0.000 A 
ATOM      7  C   UNL     1      25.392   7.757  45.098  0.00  0.00    +0.000 A 
ATOM      8  C   UNL     1      26.669   7.948  44.608  0.00  0.00    +0.000 A 
ATOM      9  C   UNL     1      26.932   8.752  43.520  0.00  0.00    +0.000 A 
BRANCH   7  10
ATOM     10  N   UNL     1      25.118   6.932  46.218  0.00  0.00    +0.000 N 
ATOM     11  C   UNL     1      25.908   7.073  47.416  0.00  0.00    +0.000 C 
ATOM     12  C   UNL     1      26.600   5.740  47.651  0.00  0.00    +0.000 C 
ATOM     13  C   UNL     1      26.246   4.727  46.595  0.00  0.00    +0.000 C 
ATOM     14  C   UNL     1      24.776   4.581  46.370  0.00  0.00    +0.000 C 
ATOM     15  C   UNL     1      24.076   5.939  46.232  0.00  0.00    +0.000 C 
ENDBRANCH   7  10
ENDBRANCH   3   4
BRANCH   2  16
ATOM     16  C   UNL     1      26.908  12.508  40.759  0.00  0.00    +0.000 C 
BRANCH  16  17
ATOM     17  O   UNL     1      25.788  13.317  40.529  0.00  0.00    +0.000 OA
BRANCH  17  18
ATOM     18  C   UNL     1      25.737  14.187  39.458  0.00  0.00    +0.000 A 
ATOM     19  C   UNL     1      24.573  14.615  38.877  0.00  0.00    +0.000 A 
ATOM     20  C   UNL     1      24.596  15.492  37.802  0.00  0.00    +0.000 A 
ATOM     21  C   UNL     1      25.776  15.956  37.287  0.00  0.00    +0.000 A 
ATOM     22  C   UNL     1      26.950  15.527  37.870  0.00  0.00    +0.000 A 
ATOM     23  C   UNL     1      26.919  14.655  38.939  0.00  0.00    +0.000 A 
BRANCH  21  24
ATOM     24  O   UNL     1      25.802  16.838  36.206  0.00  0.00    +0.000 OA
BRANCH  24  25
ATOM     25  C   UNL     1      25.550  16.353  34.931  0.00  0.00    +0.000 A 
ATOM     26  C   UNL     1      25.867  15.054  34.572  0.00  0.00    +0.000 A 
ATOM     27  C   UNL     1      25.618  14.568  33.303  0.00  0.00    +0.000 A 
ATOM     28  C   UNL     1      25.038  15.387  32.358  0.00  0.00    +0.000 A 
ATOM     29  C   UNL     1      24.723  16.678  32.717  0.00  0.00    +0.000 A 
ATOM     30  C   UNL     1      24.968  17.174  33.985  0.00  0.00    +0.000 A 
ENDBRANCH  24  25
ENDBRANCH  21  24
ENDBRANCH  17  18
ENDBRANCH  16  17
ENDBRANCH   2  16
TORSDOF 7
ENDMDL
MODEL 10
REMARK VINA RESULT:      -6.9     27.322     29.593
REMARK  Name = 
REMARK  7 active torsions:
REMARK  status: ('A' for Active; 'I' for Inactive)
REMARK    1  A    between atoms: C_2  and  C_3
REMARK    2  A    between atoms: C_3  and  O_4
REMARK    3  A    between atoms: O_4  and  C_5
REMARK    4  A    between atoms: C_8  and  O_9
REMARK    5  A    between atoms: O_9  and  C_10
REMARK    6  A    between atoms: N_18  and  C_19
REMARK    7  A    between atoms: C_22  and  N_23
REMARK                            x       y       z     vdW  Elec       q    Type
REMARK                         _______ _______ _______ _____ _____    ______ ____
ROOT
ATOM      1  O   UNL     1      43.090   5.387  21.366  0.00  0.00    +0.000 OA
ATOM      2  C   UNL     1      43.354   6.623  21.553  0.00  0.00    +0.000 C 
ATOM      3  N   UNL     1      42.640   7.544  20.769  0.00  0.00    +0.000 NA
ENDROOT
BRANCH   3   4
ATOM      4  C   UNL     1      41.671   7.098  19.815  0.00  0.00    +0.000 A 
ATOM      5  C   UNL     1      40.356   6.874  20.158  0.00  0.00    +0.000 A 
ATOM      6  C   UNL     1      39.432   6.444  19.229  0.00  0.00    +0.000 A 
ATOM      7  C   UNL     1      39.770   6.215  17.901  0.00  0.00    +0.000 A 
ATOM      8  C   UNL     1      41.092   6.444  17.575  0.00  0.00    +0.000 A 
ATOM      9  C   UNL     1      42.019   6.873  18.501  0.00  0.00    +0.000 A 
BRANCH   7  10
ATOM     10  N   UNL     1      38.815   5.773  16.951  0.00  0.00    +0.000 N 
ATOM     11  C   UNL     1      38.418   4.387  16.932  0.00  0.00    +0.000 C 
ATOM     12  C   UNL     1      38.801   3.834  15.568  0.00  0.00    +0.000 C 
ATOM     13  C   UNL     1      39.445   4.878  14.697  0.00  0.00    +0.000 C 
ATOM     14  C   UNL     1      38.665   6.150  14.604  0.00  0.00    +0.000 C 
ATOM     15  C   UNL     1      38.202   6.643  15.982  0.00  0.00    +0.000 C 
ENDBRANCH   7  10
ENDBRANCH   3   4
BRANCH   2  16
ATOM     16  C   UNL     1      44.380   7.023  22.569  0.00  0.00    +0.000 C 
BRANCH  16  17
ATOM     17  O   UNL     1      44.483   6.000  23.520  0.00  0.00    +0.000 OA
BRANCH  17  18
ATOM     18  C   UNL     1      44.135   6.208  24.840  0.00  0.00    +0.000 A 
ATOM     19  C   UNL     1      43.704   5.217  25.681  0.00  0.00    +0.000 A 
ATOM     20  C   UNL     1      43.371   5.498  26.999  0.00  0.00    +0.000 A 
ATOM     21  C   UNL     1      43.461   6.769  27.500  0.00  0.00    +0.000 A 
ATOM     22  C   UNL     1      43.894   7.769  26.656  0.00  0.00    +0.000 A 
ATOM     23  C   UNL     1      44.224   7.481  25.347  0.00  0.00    +0.000 A 
BRANCH  21  24
ATOM     24  O   UNL     1      43.127   7.053  28.825  0.00  0.00    +0.000 OA
BRANCH  24  25
ATOM     25  C   UNL     1      41.933   6.569  29.340  0.00  0.00    +0.000 A 
ATOM     26  C   UNL     1      41.897   5.475  30.188  0.00  0.00    +0.000 A 
ATOM     27  C   UNL     1      40.710   4.991  30.701  0.00  0.00    +0.000 A 
ATOM     28  C   UNL     1      39.519   5.604  30.370  0.00  0.00    +0.000 A 
ATOM     29  C   UNL     1      39.557   6.691  29.528  0.00  0.00    +0.000 A 
ATOM     30  C   UNL     1      40.742   7.184  29.008  0.00  0.00    +0.000 A 
ENDBRANCH  24  25
ENDBRANCH  21  24
ENDBRANCH  17  18
ENDBRANCH  16  17
ENDBRANCH   2  16
TORSDOF 7
ENDMDL
