MODEL 1
REMARK VINA RESULT:      -7.7      0.000      0.000
REMARK  Name = 
REMARK  7 active torsions:
REMARK  status: ('A' for Active; 'I' for Inactive)
REMARK    1  A    between atoms: O_2  and  C_3
REMARK    2  A    between atoms: C_3  and  C_5
REMARK    3  A    between atoms: C_10  and  N_11
REMARK    4  A    between atoms: C_12  and  C_14
REMARK    5  A    between atoms: C_17  and  C_18
REMARK    6  A    between atoms: C_18  and  S_19
REMARK    7  A    between atoms: S_19  and  C_20
REMARK                            x       y       z     vdW  Elec       q    Type
REMARK                         _______ _______ _______ _____ _____    ______ ____
ROOT
ATOM      1  C   UNL     1      36.276   0.957  15.633  0.00  0.00    +0.000 A 
ATOM      2  C   UNL     1      37.451   1.415  15.082  0.00  0.00    +0.000 A 
ATOM      3  C   UNL     1      37.689   2.755  14.829  0.00  0.00    +0.000 A 
ATOM      4  C   UNL     1      36.726   3.680  15.133  0.00  0.00    +0.000 A 
ATOM      5  C   UNL     1      35.545   3.258  15.683  0.00  0.00    +0.000 A 
ATOM      6  C   UNL     1      35.316   1.899  15.933  0.00  0.00    +0.000 A 
ENDROOT
BRANCH   1   8
ATOM      7  N   UNL     1      36.872  -1.484  15.392  0.00  0.00    +0.000 NA
ATOM      8  C   UNL     1      36.041  -0.458  15.893  0.00  0.00    +0.000 C 
ATOM      9  O   UNL     1      35.049  -0.795  16.600  0.00  0.00    +0.000 OA
BRANCH   7  15
ATOM     10  C   UNL     1      35.369  -4.907  15.330  0.00  0.00    +0.000 A 
ATOM     11  C   UNL     1      36.242  -5.536  16.191  0.00  0.00    +0.000 A 
ATOM     12  C   UNL     1      37.301  -4.888  16.790  0.00  0.00    +0.000 A 
ATOM     13  C   UNL     1      37.480  -3.550  16.503  0.00  0.00    +0.000 A 
ATOM     14  C   UNL     1      38.600  -2.802  17.118  0.00  0.00    +0.000 C 
ATOM     15  C   UNL     1      36.640  -2.864  15.650  0.00  0.00    +0.000 A 
ATOM     16  C   UNL     1      35.600  -3.569  15.084  0.00  0.00    +0.000 A 
BRANCH  10  17
ATOM     17  C   UNL     1      34.247  -5.620  14.706  0.00  0.00    +0.000 C 
ATOM     18  O   UNL     1      33.592  -5.033  13.814  0.00  0.00    +0.000 OA
BRANCH  17  20
ATOM     19  C   UNL     1      33.812  -7.887  14.054  0.00  0.00    +0.000 C 
ATOM     20  O   UNL     1      33.892  -6.897  15.061  0.00  0.00    +0.000 OA
ENDBRANCH  17  20
ENDBRANCH  10  17
ENDBRANCH   7  15
ENDBRANCH   1   8
BRANCH   4  21
ATOM     21  C   UNL     1      36.979   5.108  14.864  0.00  0.00    +0.000 C 
BRANCH  21  22
ATOM     22  S   UNL     1      38.750   5.396  14.758  0.00  0.00    +0.000 S 
BRANCH  22  23
ATOM     23  C   UNL     1      39.468   5.691  16.376  0.00  0.00    +0.000 A 
ATOM     24  C   UNL     1      38.727   5.422  17.509  0.00  0.00    +0.000 A 
ATOM     25  C   UNL     1      39.235   5.633  18.782  0.00  0.00    +0.000 A 
ATOM     26  C   UNL     1      40.521   6.128  18.927  0.00  0.00    +0.000 A 
ATOM     27  C   UNL     1      41.018   6.337  20.310  0.00  0.00    +0.000 C 
ATOM     28  C   UNL     1      41.277   6.404  17.823  0.00  0.00    +0.000 A 
ATOM     29  C   UNL     1      40.744   6.183  16.551  0.00  0.00    +0.000 A 
ENDBRANCH  22  23
ENDBRANCH  21  22
ENDBRANCH   4  21
TORSDOF 7
ENDMDL
MODEL 2
REMARK VINA RESULT:      -7.6      5.220     11.425
REMARK  Name = 
REMARK  7 active torsions:
REMARK  status: ('A' for Active; 'I' for Inactive)
REMARK    1  A    between atoms: O_2  and  C_3
REMARK    2  A    between atoms: C_3  and  C_5
REMARK    3  A    between atoms: C_10  and  N_11
REMARK    4  A    between atoms: C_12  and  C_14
REMARK    5  A    between atoms: C_17  and  C_18
REMARK    6  A    between atoms: C_18  and  S_19
REMARK    7  A    between atoms: S_19  and  C_20
REMARK                            x       y       z     vdW  Elec       q    Type
REMARK                         _______ _______ _______ _____ _____    ______ ____
ROOT
ATOM      1  C   UNL     1      39.791   5.603  18.087  0.00  0.00    +0.000 A 
ATOM      2  C   UNL     1      38.671   4.826  18.283  0.00  0.00    +0.000 A 
ATOM      3  C   UNL     1      37.967   4.248  17.241  0.00  0.00    +0.000 A 
ATOM      4  C   UNL     1      38.386   4.447  15.952  0.00  0.00    +0.000 A 
ATOM      5  C   UNL     1      39.496   5.214  15.722  0.00  0.00    +0.000 A 
ATOM      6  C   UNL     1      40.201   5.794  16.785  0.00  0.00    +0.000 A 
ENDROOT
BRANCH   1   8
ATOM      7  N   UNL     1      41.919   6.409  19.179  0.00  0.00    +0.000 NA
ATOM      8  C   UNL     1      40.522   6.204  19.196  0.00  0.00    +0.000 C 
ATOM      9  O   UNL     1      39.885   6.561  20.228  0.00  0.00    +0.000 OA
BRANCH   7  15
ATOM     10  C   UNL     1      43.792   6.832  22.387  0.00  0.00    +0.000 A 
ATOM     11  C   UNL     1      43.994   8.195  22.335  0.00  0.00    +0.000 A 
ATOM     12  C   UNL     1      43.543   8.980  21.295  0.00  0.00    +0.000 A 
ATOM     13  C   UNL     1      42.862   8.357  20.269  0.00  0.00    +0.000 A 
ATOM     14  C   UNL     1      42.355   9.149  19.127  0.00  0.00    +0.000 C 
ATOM     15  C   UNL     1      42.628   6.997  20.263  0.00  0.00    +0.000 A 
ATOM     16  C   UNL     1      43.104   6.268  21.332  0.00  0.00    +0.000 A 
BRANCH  10  17
ATOM     17  C   UNL     1      44.282   6.019  23.507  0.00  0.00    +0.000 C 
ATOM     18  O   UNL     1      44.922   4.974  23.248  0.00  0.00    +0.000 OA
BRANCH  17  20
ATOM     19  C   UNL     1      44.018   5.329  25.789  0.00  0.00    +0.000 C 
ATOM     20  O   UNL     1      44.064   6.357  24.819  0.00  0.00    +0.000 OA
ENDBRANCH  17  20
ENDBRANCH  10  17
ENDBRANCH   7  15
ENDBRANCH   1   8
BRANCH   4  21
ATOM     21  C   UNL     1      37.636   3.830  14.841  0.00  0.00    +0.000 C 
BRANCH  21  22
ATOM     22  S   UNL     1      35.963   3.456  15.379  0.00  0.00    +0.000 S 
BRANCH  22  23
ATOM     23  C   UNL     1      35.757   1.708  15.725  0.00  0.00    +0.000 A 
ATOM     24  C   UNL     1      34.955   1.311  16.775  0.00  0.00    +0.000 A 
ATOM     25  C   UNL     1      34.763  -0.027  17.084  0.00  0.00    +0.000 A 
ATOM     26  C   UNL     1      35.391  -0.997  16.320  0.00  0.00    +0.000 A 
ATOM     27  C   UNL     1      35.155  -2.415  16.691  0.00  0.00    +0.000 C 
ATOM     28  C   UNL     1      36.191  -0.634  15.274  0.00  0.00    +0.000 A 
ATOM     29  C   UNL     1      36.369   0.721  14.982  0.00  0.00    +0.000 A 
ENDBRANCH  22  23
ENDBRANCH  21  22
ENDBRANCH   4  21
TORSDOF 7
ENDMDL
MODEL 3
REMARK VINA RESULT:      -7.3     25.960     29.332
REMARK  Name = 
REMARK  7 active torsions:
REMARK  status: ('A' for Active; 'I' for Inactive)
REMARK    1  A    between atoms: O_2  and  C_3
REMARK    2  A    between atoms: C_3  and  C_5
REMARK    3  A    between atoms: C_10  and  N_11
REMARK    4  A    between atoms: C_12  and  C_14
REMARK    5  A    between atoms: C_17  and  C_18
REMARK    6  A    between atoms: C_18  and  S_19
REMARK    7  A    between atoms: S_19  and  C_20
REMARK                            x       y       z     vdW  Elec       q    Type
REMARK                         _______ _______ _______ _____ _____    ______ ____
ROOT
ATOM      1  C   UNL     1      25.444  16.415  38.640  0.00  0.00    +0.000 A 
ATOM      2  C   UNL     1      24.360  17.045  38.070  0.00  0.00    +0.000 A 
ATOM      3  C   UNL     1      24.468  18.227  37.358  0.00  0.00    +0.000 A 
ATOM      4  C   UNL     1      25.697  18.811  37.203  0.00  0.00    +0.000 A 
ATOM      5  C   UNL     1      26.796  18.211  37.757  0.00  0.00    +0.000 A 
ATOM      6  C   UNL     1      26.674  17.015  38.476  0.00  0.00    +0.000 A 
ENDROOT
BRANCH   1   8
ATOM      7  N   UNL     1      26.211  14.783  40.406  0.00  0.00    +0.000 NA
ATOM      8  C   UNL     1      25.314  15.170  39.387  0.00  0.00    +0.000 C 
ATOM      9  O   UNL     1      24.356  14.391  39.117  0.00  0.00    +0.000 OA
BRANCH   7  15
ATOM     10  C   UNL     1      26.513  11.195  41.414  0.00  0.00    +0.000 A 
ATOM     11  C   UNL     1      25.788  11.243  42.584  0.00  0.00    +0.000 A 
ATOM     12  C   UNL     1      25.205  12.400  43.057  0.00  0.00    +0.000 A 
ATOM     13  C   UNL     1      25.365  13.550  42.313  0.00  0.00    +0.000 A 
ATOM     14  C   UNL     1      24.761  14.821  42.771  0.00  0.00    +0.000 C 
ATOM     15  C   UNL     1      26.080  13.567  41.132  0.00  0.00    +0.000 A 
ATOM     16  C   UNL     1      26.638  12.378  40.714  0.00  0.00    +0.000 A 
BRANCH  10  17
ATOM     17  C   UNL     1      27.123   9.949  40.931  0.00  0.00    +0.000 C 
ATOM     18  O   UNL     1      26.553   8.867  41.199  0.00  0.00    +0.000 OA
BRANCH  17  20
ATOM     19  C   UNL     1      29.444   9.361  40.789  0.00  0.00    +0.000 C 
ATOM     20  O   UNL     1      28.287   9.927  40.205  0.00  0.00    +0.000 OA
ENDBRANCH  17  20
ENDBRANCH  10  17
ENDBRANCH   7  15
ENDBRANCH   1   8
BRANCH   4  21
ATOM     21  C   UNL     1      25.812  20.071  36.444  0.00  0.00    +0.000 C 
BRANCH  21  22
ATOM     22  S   UNL     1      26.723  19.776  34.923  0.00  0.00    +0.000 S 
BRANCH  22  23
ATOM     23  C   UNL     1      26.282  18.202  34.185  0.00  0.00    +0.000 A 
ATOM     24  C   UNL     1      25.074  18.070  33.532  0.00  0.00    +0.000 A 
ATOM     25  C   UNL     1      24.686  16.875  32.945  0.00  0.00    +0.000 A 
ATOM     26  C   UNL     1      25.531  15.780  33.013  0.00  0.00    +0.000 A 
ATOM     27  C   UNL     1      25.070  14.523  32.370  0.00  0.00    +0.000 C 
ATOM     28  C   UNL     1      26.733  15.880  33.654  0.00  0.00    +0.000 A 
ATOM     29  C   UNL     1      27.102  17.094  34.237  0.00  0.00    +0.000 A 
ENDBRANCH  22  23
ENDBRANCH  21  22
ENDBRANCH   4  21
TORSDOF 7
ENDMDL
MODEL 4
REMARK VINA RESULT:      -7.3      9.497     13.592
REMARK  Name = 
REMARK  7 active torsions:
REMARK  status: ('A' for Active; 'I' for Inactive)
REMARK    1  A    between atoms: O_2  and  C_3
REMARK    2  A    between atoms: C_3  and  C_5
REMARK    3  A    between atoms: C_10  and  N_11
REMARK    4  A    between atoms: C_12  and  C_14
REMARK    5  A    between atoms: C_17  and  C_18
REMARK    6  A    between atoms: C_18  and  S_19
REMARK    7  A    between atoms: S_19  and  C_20
REMARK                            x       y       z     vdW  Elec       q    Type
REMARK                         _______ _______ _______ _____ _____    ______ ____
ROOT
ATOM      1  C   UNL     1      44.302   6.289  24.055  0.00  0.00    +0.000 A 
ATOM      2  C   UNL     1      44.400   7.498  23.405  0.00  0.00    +0.000 A 
ATOM      3  C   UNL     1      44.774   7.608  22.077  0.00  0.00    +0.000 A 
ATOM      4  C   UNL     1      45.065   6.476  21.362  0.00  0.00    +0.000 A 
ATOM      5  C   UNL     1      44.977   5.257  21.979  0.00  0.00    +0.000 A 
ATOM      6  C   UNL     1      44.597   5.159  23.324  0.00  0.00    +0.000 A 
ENDROOT
BRANCH   1   8
ATOM      7  N   UNL     1      43.398   5.006  26.032  0.00  0.00    +0.000 NA
ATOM      8  C   UNL     1      43.905   6.190  25.455  0.00  0.00    +0.000 C 
ATOM      9  O   UNL     1      44.015   7.208  26.195  0.00  0.00    +0.000 OA
BRANCH   7  15
ATOM     10  C   UNL     1      41.473   5.387  29.214  0.00  0.00    +0.000 A 
ATOM     11  C   UNL     1      42.322   4.703  30.058  0.00  0.00    +0.000 A 
ATOM     12  C   UNL     1      43.497   4.123  29.628  0.00  0.00    +0.000 A 
ATOM     13  C   UNL     1      43.821   4.242  28.292  0.00  0.00    +0.000 A 
ATOM     14  C   UNL     1      45.070   3.640  27.775  0.00  0.00    +0.000 C 
ATOM     15  C   UNL     1      43.013   4.914  27.398  0.00  0.00    +0.000 A 
ATOM     16  C   UNL     1      41.852   5.472  27.891  0.00  0.00    +0.000 A 
BRANCH  10  17
ATOM     17  C   UNL     1      40.227   5.997  29.697  0.00  0.00    +0.000 C 
ATOM     18  O   UNL     1      39.756   6.967  29.062  0.00  0.00    +0.000 OA
BRANCH  17  20
ATOM     19  C   UNL     1      38.228   5.955  31.021  0.00  0.00    +0.000 C 
ATOM     20  O   UNL     1      39.566   5.547  30.812  0.00  0.00    +0.000 OA
ENDBRANCH  17  20
ENDBRANCH  10  17
ENDBRANCH   7  15
ENDBRANCH   1   8
BRANCH   4  21
ATOM     21  C   UNL     1      45.464   6.593  19.947  0.00  0.00    +0.000 C 
BRANCH  21  22
ATOM     22  S   UNL     1      44.344   7.712  19.096  0.00  0.00    +0.000 S 
BRANCH  22  23
ATOM     23  C   UNL     1      42.700   7.010  18.945  0.00  0.00    +0.000 A 
ATOM     24  C   UNL     1      42.220   6.662  17.699  0.00  0.00    +0.000 A 
ATOM     25  C   UNL     1      40.957   6.117  17.527  0.00  0.00    +0.000 A 
ATOM     26  C   UNL     1      40.149   5.914  18.634  0.00  0.00    +0.000 A 
ATOM     27  C   UNL     1      38.805   5.328  18.399  0.00  0.00    +0.000 C 
ATOM     28  C   UNL     1      40.598   6.249  19.880  0.00  0.00    +0.000 A 
ATOM     29  C   UNL     1      41.874   6.797  20.028  0.00  0.00    +0.000 A 
ENDBRANCH  22  23
ENDBRANCH  21  22
ENDBRANCH   4  21
TORSDOF 7
ENDMDL
MODEL 5
REMARK VINA RESULT:      -7.2      5.026     10.707
REMARK  Name = 
REMARK  7 active torsions:
REMARK  status: ('A' for Active; 'I' for Inactive)
REMARK    1  A    between atoms: O_2  and  C_3
REMARK    2  A    between atoms: C_3  and  C_5
REMARK    3  A    between atoms: C_10  and  N_11
REMARK    4  A    between atoms: C_12  and  C_14
REMARK    5  A    between atoms: C_17  and  C_18
REMARK    6  A    between atoms: C_18  and  S_19
REMARK    7  A    between atoms: S_19  and  C_20
REMARK                            x       y       z     vdW  Elec       q    Type
REMARK                         _______ _______ _______ _____ _____    ______ ____
ROOT
ATOM      1  C   UNL     1      38.490   4.262  16.829  0.00  0.00    +0.000 A 
ATOM      2  C   UNL     1      37.347   3.759  17.408  0.00  0.00    +0.000 A 
ATOM      3  C   UNL     1      36.582   2.767  16.820  0.00  0.00    +0.000 A 
ATOM      4  C   UNL     1      36.962   2.250  15.610  0.00  0.00    +0.000 A 
ATOM      5  C   UNL     1      38.095   2.728  15.006  0.00  0.00    +0.000 A 
ATOM      6  C   UNL     1      38.860   3.733  15.612  0.00  0.00    +0.000 A 
ENDROOT
BRANCH   1   8
ATOM      7  N   UNL     1      39.190   5.626  18.834  0.00  0.00    +0.000 NA
ATOM      8  C   UNL     1      39.285   5.307  17.462  0.00  0.00    +0.000 C 
ATOM      9  O   UNL     1      40.102   5.967  16.758  0.00  0.00    +0.000 OA
BRANCH   7  15
ATOM     10  C   UNL     1      42.001   7.415  20.530  0.00  0.00    +0.000 A 
ATOM     11  C   UNL     1      41.427   8.664  20.629  0.00  0.00    +0.000 A 
ATOM     12  C   UNL     1      40.160   8.945  20.164  0.00  0.00    +0.000 A 
ATOM     13  C   UNL     1      39.450   7.918  19.577  0.00  0.00    +0.000 A 
ATOM     14  C   UNL     1      38.084   8.161  19.060  0.00  0.00    +0.000 C 
ATOM     15  C   UNL     1      39.968   6.646  19.448  0.00  0.00    +0.000 A 
ATOM     16  C   UNL     1      41.241   6.430  19.933  0.00  0.00    +0.000 A 
BRANCH  10  17
ATOM     17  C   UNL     1      43.353   7.141  21.034  0.00  0.00    +0.000 C 
ATOM     18  O   UNL     1      43.470   6.471  22.086  0.00  0.00    +0.000 OA
BRANCH  17  20
ATOM     19  C   UNL     1      45.104   6.758  19.442  0.00  0.00    +0.000 C 
ATOM     20  O   UNL     1      44.485   7.590  20.402  0.00  0.00    +0.000 OA
ENDBRANCH  17  20
ENDBRANCH  10  17
ENDBRANCH   7  15
ENDBRANCH   1   8
BRANCH   4  21
ATOM     21  C   UNL     1      36.147   1.192  14.983  0.00  0.00    +0.000 C 
BRANCH  21  22
ATOM     22  S   UNL     1      35.261   0.282  16.255  0.00  0.00    +0.000 S 
BRANCH  22  23
ATOM     23  C   UNL     1      36.357  -0.797  17.178  0.00  0.00    +0.000 A 
ATOM     24  C   UNL     1      36.207  -0.914  18.545  0.00  0.00    +0.000 A 
ATOM     25  C   UNL     1      37.027  -1.734  19.304  0.00  0.00    +0.000 A 
ATOM     26  C   UNL     1      38.028  -2.459  18.679  0.00  0.00    +0.000 A 
ATOM     27  C   UNL     1      38.880  -3.322  19.535  0.00  0.00    +0.000 C 
ATOM     28  C   UNL     1      38.201  -2.363  17.327  0.00  0.00    +0.000 A 
ATOM     29  C   UNL     1      37.362  -1.531  16.583  0.00  0.00    +0.000 A 
ENDBRANCH  22  23
ENDBRANCH  21  22
ENDBRANCH   4  21
TORSDOF 7
ENDMDL
MODEL 6
REMARK VINA RESULT:      -7.1      2.840      4.064
REMARK  Name = 
REMARK  7 active torsions:
REMARK  status: ('A' for Active; 'I' for Inactive)
REMARK    1  A    between atoms: O_2  and  C_3
REMARK    2  A    between atoms: C_3  and  C_5
REMARK    3  A    between atoms: C_10  and  N_11
REMARK    4  A    between atoms: C_12  and  C_14
REMARK    5  A    between atoms: C_17  and  C_18
REMARK    6  A    between atoms: C_18  and  S_19
REMARK    7  A    between atoms: S_19  and  C_20
REMARK                            x       y       z     vdW  Elec       q    Type
REMARK                         _______ _______ _______ _____ _____    ______ ____
ROOT
ATOM      1  C   UNL     1      38.545   3.110  15.262  0.00  0.00    +0.000 A 
ATOM      2  C   UNL     1      37.871   4.113  15.923  0.00  0.00    +0.000 A 
ATOM      3  C   UNL     1      38.237   5.445  15.840  0.00  0.00    +0.000 A 
ATOM      4  C   UNL     1      39.315   5.802  15.073  0.00  0.00    +0.000 A 
ATOM      5  C   UNL     1      40.007   4.830  14.402  0.00  0.00    +0.000 A 
ATOM      6  C   UNL     1      39.627   3.485  14.494  0.00  0.00    +0.000 A 
ENDROOT
BRANCH   1   8
ATOM      7  N   UNL     1      38.924   0.649  14.851  0.00  0.00    +0.000 NA
ATOM      8  C   UNL     1      38.145   1.712  15.358  0.00  0.00    +0.000 C 
ATOM      9  O   UNL     1      37.050   1.425  15.920  0.00  0.00    +0.000 OA
BRANCH   7  15
ATOM     10  C   UNL     1      38.340  -2.793  16.187  0.00  0.00    +0.000 A 
ATOM     11  C   UNL     1      37.748  -3.353  15.076  0.00  0.00    +0.000 A 
ATOM     12  C   UNL     1      37.532  -2.652  13.908  0.00  0.00    +0.000 A 
ATOM     13  C   UNL     1      37.933  -1.332  13.870  0.00  0.00    +0.000 A 
ATOM     14  C   UNL     1      37.727  -0.530  12.643  0.00  0.00    +0.000 C 
ATOM     15  C   UNL     1      38.531  -0.714  14.949  0.00  0.00    +0.000 A 
ATOM     16  C   UNL     1      38.718  -1.471  16.086  0.00  0.00    +0.000 A 
BRANCH  10  17
ATOM     17  C   UNL     1      38.559  -3.563  17.418  0.00  0.00    +0.000 C 
ATOM     18  O   UNL     1      38.948  -4.749  17.315  0.00  0.00    +0.000 OA
BRANCH  17  20
ATOM     19  C   UNL     1      38.859  -3.731  19.792  0.00  0.00    +0.000 C 
ATOM     20  O   UNL     1      38.354  -3.037  18.668  0.00  0.00    +0.000 OA
ENDBRANCH  17  20
ENDBRANCH  10  17
ENDBRANCH   7  15
ENDBRANCH   1   8
BRANCH   4  21
ATOM     21  C   UNL     1      39.705   7.221  14.985  0.00  0.00    +0.000 C 
BRANCH  21  22
ATOM     22  S   UNL     1      39.314   8.051  16.531  0.00  0.00    +0.000 S 
BRANCH  22  23
ATOM     23  C   UNL     1      40.305   7.419  17.887  0.00  0.00    +0.000 A 
ATOM     24  C   UNL     1      41.679   7.394  17.772  0.00  0.00    +0.000 A 
ATOM     25  C   UNL     1      42.490   6.916  18.790  0.00  0.00    +0.000 A 
ATOM     26  C   UNL     1      41.909   6.449  19.958  0.00  0.00    +0.000 A 
ATOM     27  C   UNL     1      42.820   5.948  21.018  0.00  0.00    +0.000 C 
ATOM     28  C   UNL     1      40.551   6.462  20.100  0.00  0.00    +0.000 A 
ATOM     29  C   UNL     1      39.755   6.948  19.060  0.00  0.00    +0.000 A 
ENDBRANCH  22  23
ENDBRANCH  21  22
ENDBRANCH   4  21
TORSDOF 7
ENDMDL
MODEL 7
REMARK VINA RESULT:      -7.1      1.892      2.893
REMARK  Name = 
REMARK  7 active torsions:
REMARK  status: ('A' for Active; 'I' for Inactive)
REMARK    1  A    between atoms: O_2  and  C_3
REMARK    2  A    between atoms: C_3  and  C_5
REMARK    3  A    between atoms: C_10  and  N_11
REMARK    4  A    between atoms: C_12  and  C_14
REMARK    5  A    between atoms: C_17  and  C_18
REMARK    6  A    between atoms: C_18  and  S_19
REMARK    7  A    between atoms: S_19  and  C_20
REMARK                            x       y       z     vdW  Elec       q    Type
REMARK                         _______ _______ _______ _____ _____    ______ ____
ROOT
ATOM      1  C   UNL     1      37.669   2.864  15.024  0.00  0.00    +0.000 A 
ATOM      2  C   UNL     1      38.958   2.712  14.565  0.00  0.00    +0.000 A 
ATOM      3  C   UNL     1      39.820   3.779  14.379  0.00  0.00    +0.000 A 
ATOM      4  C   UNL     1      39.390   5.049  14.656  0.00  0.00    +0.000 A 
ATOM      5  C   UNL     1      38.114   5.237  15.115  0.00  0.00    +0.000 A 
ATOM      6  C   UNL     1      37.251   4.148  15.299  0.00  0.00    +0.000 A 
ENDROOT
BRANCH   1   8
ATOM      7  N   UNL     1      37.104   0.613  16.014  0.00  0.00    +0.000 NA
ATOM      8  C   UNL     1      36.774   1.730  15.216  0.00  0.00    +0.000 C 
ATOM      9  O   UNL     1      35.647   1.735  14.644  0.00  0.00    +0.000 OA
BRANCH   7  15
ATOM     10  C   UNL     1      35.391  -2.680  15.560  0.00  0.00    +0.000 A 
ATOM     11  C   UNL     1      34.502  -2.601  16.609  0.00  0.00    +0.000 A 
ATOM     12  C   UNL     1      34.439  -1.516  17.459  0.00  0.00    +0.000 A 
ATOM     13  C   UNL     1      35.314  -0.473  17.233  0.00  0.00    +0.000 A 
ATOM     14  C   UNL     1      35.292   0.717  18.113  0.00  0.00    +0.000 C 
ATOM     15  C   UNL     1      36.228  -0.492  16.199  0.00  0.00    +0.000 A 
ATOM     16  C   UNL     1      36.239  -1.605  15.386  0.00  0.00    +0.000 A 
BRANCH  10  17
ATOM     17  C   UNL     1      35.436  -3.846  14.669  0.00  0.00    +0.000 C 
ATOM     18  O   UNL     1      36.556  -4.256  14.284  0.00  0.00    +0.000 OA
BRANCH  17  20
ATOM     19  C   UNL     1      33.958  -5.726  14.851  0.00  0.00    +0.000 C 
ATOM     20  O   UNL     1      34.307  -4.497  14.243  0.00  0.00    +0.000 OA
ENDBRANCH  17  20
ENDBRANCH  10  17
ENDBRANCH   7  15
ENDBRANCH   1   8
BRANCH   4  21
ATOM     21  C   UNL     1      40.308   6.186  14.458  0.00  0.00    +0.000 C 
BRANCH  21  22
ATOM     22  S   UNL     1      41.446   6.291  15.845  0.00  0.00    +0.000 S 
BRANCH  22  23
ATOM     23  C   UNL     1      40.612   6.824  17.342  0.00  0.00    +0.000 A 
ATOM     24  C   UNL     1      39.802   7.941  17.310  0.00  0.00    +0.000 A 
ATOM     25  C   UNL     1      39.136   8.394  18.438  0.00  0.00    +0.000 A 
ATOM     26  C   UNL     1      39.285   7.712  19.634  0.00  0.00    +0.000 A 
ATOM     27  C   UNL     1      38.551   8.237  20.813  0.00  0.00    +0.000 C 
ATOM     28  C   UNL     1      40.081   6.603  19.696  0.00  0.00    +0.000 A 
ATOM     29  C   UNL     1      40.742   6.165  18.546  0.00  0.00    +0.000 A 
ENDBRANCH  22  23
ENDBRANCH  21  22
ENDBRANCH   4  21
TORSDOF 7
ENDMDL
MODEL 8
REMARK VINA RESULT:      -7.1      5.696     11.295
REMARK  Name = 
REMARK  7 active torsions:
REMARK  status: ('A' for Active; 'I' for Inactive)
REMARK    1  A    between atoms: O_2  and  C_3
REMARK    2  A    between atoms: C_3  and  C_5
REMARK    3  A    between atoms: C_10  and  N_11
REMARK    4  A    between atoms: C_12  and  C_14
REMARK    5  A    between atoms: C_17  and  C_18
REMARK    6  A    between atoms: C_18  and  S_19
REMARK    7  A    between atoms: S_19  and  C_20
REMARK                            x       y       z     vdW  Elec       q    Type
REMARK                         _______ _______ _______ _____ _____    ______ ____
ROOT
ATOM      1  C   UNL     1      39.964   5.751  18.103  0.00  0.00    +0.000 A 
ATOM      2  C   UNL     1      40.385   5.999  16.815  0.00  0.00    +0.000 A 
ATOM      3  C   UNL     1      39.729   5.502  15.702  0.00  0.00    +0.000 A 
ATOM      4  C   UNL     1      38.611   4.727  15.868  0.00  0.00    +0.000 A 
ATOM      5  C   UNL     1      38.166   4.461  17.135  0.00  0.00    +0.000 A 
ATOM      6  C   UNL     1      38.839   4.970  18.254  0.00  0.00    +0.000 A 
ENDROOT
BRANCH   1   8
ATOM      7  N   UNL     1      42.056   6.533  19.280  0.00  0.00    +0.000 NA
ATOM      8  C   UNL     1      40.666   6.283  19.264  0.00  0.00    +0.000 C 
ATOM      9  O   UNL     1      40.009   6.537  20.314  0.00  0.00    +0.000 OA
BRANCH   7  15
ATOM     10  C   UNL     1      43.873   6.756  22.539  0.00  0.00    +0.000 A 
ATOM     11  C   UNL     1      44.046   8.123  22.591  0.00  0.00    +0.000 A 
ATOM     12  C   UNL     1      43.593   8.973  21.604  0.00  0.00    +0.000 A 
ATOM     13  C   UNL     1      42.941   8.413  20.525  0.00  0.00    +0.000 A 
ATOM     14  C   UNL     1      42.432   9.278  19.436  0.00  0.00    +0.000 C 
ATOM     15  C   UNL     1      42.736   7.053  20.415  0.00  0.00    +0.000 A 
ATOM     16  C   UNL     1      43.213   6.258  21.435  0.00  0.00    +0.000 A 
BRANCH  10  17
ATOM     17  C   UNL     1      44.364   5.873  23.604  0.00  0.00    +0.000 C 
ATOM     18  O   UNL     1      44.038   6.130  24.786  0.00  0.00    +0.000 OA
BRANCH  17  20
ATOM     19  C   UNL     1      46.481   5.000  22.892  0.00  0.00    +0.000 C 
ATOM     20  O   UNL     1      45.163   4.786  23.356  0.00  0.00    +0.000 OA
ENDBRANCH  17  20
ENDBRANCH  10  17
ENDBRANCH   7  15
ENDBRANCH   1   8
BRANCH   4  21
ATOM     21  C   UNL     1      37.913   4.197  14.683  0.00  0.00    +0.000 C 
BRANCH  21  22
ATOM     22  S   UNL     1      37.163   2.613  15.083  0.00  0.00    +0.000 S 
BRANCH  22  23
ATOM     23  C   UNL     1      38.338   1.268  14.916  0.00  0.00    +0.000 A 
ATOM     24  C   UNL     1      37.984  -0.001  15.327  0.00  0.00    +0.000 A 
ATOM     25  C   UNL     1      38.855  -1.075  15.221  0.00  0.00    +0.000 A 
ATOM     26  C   UNL     1      40.117  -0.874  14.688  0.00  0.00    +0.000 A 
ATOM     27  C   UNL     1      41.013  -2.055  14.596  0.00  0.00    +0.000 C 
ATOM     28  C   UNL     1      40.496   0.371  14.273  0.00  0.00    +0.000 A 
ATOM     29  C   UNL     1      39.602   1.437  14.390  0.00  0.00    +0.000 A 
ENDBRANCH  22  23
ENDBRANCH  21  22
ENDBRANCH   4  21
TORSDOF 7
ENDMDL
MODEL 9
REMARK VINA RESULT:      -7.1      5.034     10.562
REMARK  Name = 
REMARK  7 active torsions:
REMARK  status: ('A' for Active; 'I' for Inactive)
REMARK    1  A    between atoms: O_2  and  C_3
REMARK    2  A    between atoms: C_3  and  C_5
REMARK    3  A    between atoms: C_10  and  N_11
REMARK    4  A    between atoms: C_12  and  C_14
REMARK    5  A    between atoms: C_17  and  C_18
REMARK    6  A    between atoms: C_18  and  S_19
REMARK    7  A    between atoms: S_19  and  C_20
REMARK                            x       y       z     vdW  Elec       q    Type
REMARK                         _______ _______ _______ _____ _____    ______ ____
ROOT
ATOM      1  C   UNL     1      38.222   4.208  16.717  0.00  0.00    +0.000 A 
ATOM      2  C   UNL     1      37.190   3.570  17.369  0.00  0.00    +0.000 A 
ATOM      3  C   UNL     1      36.397   2.612  16.762  0.00  0.00    +0.000 A 
ATOM      4  C   UNL     1      36.634   2.269  15.457  0.00  0.00    +0.000 A 
ATOM      5  C   UNL     1      37.653   2.883  14.779  0.00  0.00    +0.000 A 
ATOM      6  C   UNL     1      38.448   3.852  15.405  0.00  0.00    +0.000 A 
ENDROOT
BRANCH   1   8
ATOM      7  N   UNL     1      38.968   5.502  18.752  0.00  0.00    +0.000 NA
ATOM      8  C   UNL     1      39.048   5.215  17.372  0.00  0.00    +0.000 C 
ATOM      9  O   UNL     1      39.880   5.868  16.680  0.00  0.00    +0.000 OA
BRANCH   7  15
ATOM     10  C   UNL     1      41.849   7.181  20.443  0.00  0.00    +0.000 A 
ATOM     11  C   UNL     1      41.295   8.431  20.611  0.00  0.00    +0.000 A 
ATOM     12  C   UNL     1      40.019   8.748  20.194  0.00  0.00    +0.000 A 
ATOM     13  C   UNL     1      39.279   7.756  19.583  0.00  0.00    +0.000 A 
ATOM     14  C   UNL     1      37.903   8.039  19.116  0.00  0.00    +0.000 C 
ATOM     15  C   UNL     1      39.777   6.485  19.386  0.00  0.00    +0.000 A 
ATOM     16  C   UNL     1      41.059   6.232  19.826  0.00  0.00    +0.000 A 
BRANCH  10  17
ATOM     17  C   UNL     1      43.210   6.869  20.897  0.00  0.00    +0.000 C 
ATOM     18  O   UNL     1      44.066   6.559  20.037  0.00  0.00    +0.000 OA
BRANCH  17  20
ATOM     19  C   UNL     1      44.366   5.850  22.734  0.00  0.00    +0.000 C 
ATOM     20  O   UNL     1      43.576   6.903  22.218  0.00  0.00    +0.000 OA
ENDBRANCH  17  20
ENDBRANCH  10  17
ENDBRANCH   7  15
ENDBRANCH   1   8
BRANCH   4  21
ATOM     21  C   UNL     1      35.789   1.247  14.810  0.00  0.00    +0.000 C 
BRANCH  21  22
ATOM     22  S   UNL     1      36.109  -0.357  15.553  0.00  0.00    +0.000 S 
BRANCH  22  23
ATOM     23  C   UNL     1      37.763  -0.940  15.176  0.00  0.00    +0.000 A 
ATOM     24  C   UNL     1      38.384  -1.828  16.031  0.00  0.00    +0.000 A 
ATOM     25  C   UNL     1      39.662  -2.309  15.785  0.00  0.00    +0.000 A 
ATOM     26  C   UNL     1      40.338  -1.889  14.652  0.00  0.00    +0.000 A 
ATOM     27  C   UNL     1      41.703  -2.432  14.434  0.00  0.00    +0.000 C 
ATOM     28  C   UNL     1      39.749  -1.011  13.788  0.00  0.00    +0.000 A 
ATOM     29  C   UNL     1      38.461  -0.540  14.056  0.00  0.00    +0.000 A 
ENDBRANCH  22  23
ENDBRANCH  21  22
ENDBRANCH   4  21
TORSDOF 7
ENDMDL
MODEL 10
REMARK VINA RESULT:      -7.1      5.364      8.294
REMARK  Name = 
REMARK  7 active torsions:
REMARK  status: ('A' for Active; 'I' for Inactive)
REMARK    1  A    between atoms: O_2  and  C_3
REMARK    2  A    between atoms: C_3  and  C_5
REMARK    3  A    between atoms: C_10  and  N_11
REMARK    4  A    between atoms: C_12  and  C_14
REMARK    5  A    between atoms: C_17  and  C_18
REMARK    6  A    between atoms: C_18  and  S_19
REMARK    7  A    between atoms: S_19  and  C_20
REMARK                            x       y       z     vdW  Elec       q    Type
REMARK                         _______ _______ _______ _____ _____    ______ ____
ROOT
ATOM      1  C   UNL     1      40.196   0.177  14.411  0.00  0.00    +0.000 A 
ATOM      2  C   UNL     1      40.155  -1.166  14.712  0.00  0.00    +0.000 A 
ATOM      3  C   UNL     1      41.199  -2.030  14.431  0.00  0.00    +0.000 A 
ATOM      4  C   UNL     1      42.329  -1.549  13.826  0.00  0.00    +0.000 A 
ATOM      5  C   UNL     1      42.403  -0.218  13.513  0.00  0.00    +0.000 A 
ATOM      6  C   UNL     1      41.340   0.647  13.803  0.00  0.00    +0.000 A 
ENDROOT
BRANCH   1   8
ATOM      7  N   UNL     1      37.734   0.718  14.540  0.00  0.00    +0.000 NA
ATOM      8  C   UNL     1      39.089   1.075  14.715  0.00  0.00    +0.000 C 
ATOM      9  O   UNL     1      39.342   2.232  15.157  0.00  0.00    +0.000 OA
BRANCH   7  15
ATOM     10  C   UNL     1      35.457   3.682  14.519  0.00  0.00    +0.000 A 
ATOM     11  C   UNL     1      34.548   3.257  15.464  0.00  0.00    +0.000 A 
ATOM     12  C   UNL     1      34.649   2.041  16.106  0.00  0.00    +0.000 A 
ATOM     13  C   UNL     1      35.714   1.227  15.776  0.00  0.00    +0.000 A 
ATOM     14  C   UNL     1      35.874  -0.089  16.434  0.00  0.00    +0.000 C 
ATOM     15  C   UNL     1      36.657   1.597  14.839  0.00  0.00    +0.000 A 
ATOM     16  C   UNL     1      36.499   2.825  14.233  0.00  0.00    +0.000 A 
BRANCH  10  17
ATOM     17  C   UNL     1      35.326   4.983  13.850  0.00  0.00    +0.000 C 
ATOM     18  O   UNL     1      34.386   5.736  14.194  0.00  0.00    +0.000 OA
BRANCH  17  20
ATOM     19  C   UNL     1      35.657   6.005  11.706  0.00  0.00    +0.000 C 
ATOM     20  O   UNL     1      36.189   5.402  12.869  0.00  0.00    +0.000 OA
ENDBRANCH  17  20
ENDBRANCH  10  17
ENDBRANCH   7  15
ENDBRANCH   1   8
BRANCH   4  21
ATOM     21  C   UNL     1      43.441  -2.471  13.526  0.00  0.00    +0.000 C 
BRANCH  21  22
ATOM     22  S   UNL     1      45.007  -1.615  13.738  0.00  0.00    +0.000 S 
BRANCH  22  23
ATOM     23  C   UNL     1      45.422  -1.420  15.473  0.00  0.00    +0.000 A 
ATOM     24  C   UNL     1      45.887  -2.505  16.188  0.00  0.00    +0.000 A 
ATOM     25  C   UNL     1      46.221  -2.408  17.530  0.00  0.00    +0.000 A 
ATOM     26  C   UNL     1      46.086  -1.191  18.177  0.00  0.00    +0.000 A 
ATOM     27  C   UNL     1      46.457  -1.139  19.613  0.00  0.00    +0.000 C 
ATOM     28  C   UNL     1      45.628  -0.100  17.495  0.00  0.00    +0.000 A 
ATOM     29  C   UNL     1      45.298  -0.222  16.143  0.00  0.00    +0.000 A 
ENDBRANCH  22  23
ENDBRANCH  21  22
ENDBRANCH   4  21
TORSDOF 7
ENDMDL
