MODEL 1
REMARK VINA RESULT:      -7.0      0.000      0.000
REMARK  Name = 
REMARK  1 active torsions:
REMARK  status: ('A' for Active; 'I' for Inactive)
REMARK    1  A    between atoms: C_10  and  C_11
REMARK                            x       y       z     vdW  Elec       q    Type
REMARK                         _______ _______ _______ _____ _____    ______ ____
ROOT
ATOM      1  C   UNL     1      28.805  24.225  22.917  0.00  0.00    +0.000 C 
ATOM      2  C   UNL     1      28.857  25.451  22.483  0.00  0.00    +0.000 C 
ATOM      3  C   UNL     1      28.462  26.585  23.302  0.00  0.00    +0.000 C 
ATOM      4  O   UNL     1      28.003  26.441  24.491  0.00  0.00    +0.000 OA
ATOM      5  N   UNL     1      28.588  27.893  22.756  0.00  0.00    +0.000 N 
ATOM      6  C   UNL     1      28.190  29.022  23.588  0.00  0.00    +0.000 C 
ATOM      7  C   UNL     1      29.085  28.101  21.446  0.00  0.00    +0.000 C 
ATOM      8  S   UNL     1      29.233  29.621  20.813  0.00  0.00    +0.000 S 
ATOM      9  N   UNL     1      29.473  26.992  20.639  0.00  0.00    +0.000 N 
ATOM     10  C   UNL     1      29.981  27.258  19.290  0.00  0.00    +0.000 C 
ATOM     11  C   UNL     1      29.381  25.671  21.099  0.00  0.00    +0.000 C 
ATOM     12  O   UNL     1      29.712  24.665  20.419  0.00  0.00    +0.000 OA
ENDROOT
BRANCH   1  22
ATOM     13  C   UNL     1      25.906  23.484  23.495  0.00  0.00    +0.000 C 
ATOM     14  C   UNL     1      27.083  23.245  24.396  0.00  0.00    +0.000 A 
ATOM     15  N   UNL     1      27.074  22.648  25.593  0.00  0.00    +0.000 NA
ATOM     16  C   UNL     1      28.321  22.620  26.092  0.00  0.00    +0.000 A 
ATOM     17  C   UNL     1      28.801  22.094  27.286  0.00  0.00    +0.000 A 
ATOM     18  C   UNL     1      30.132  22.164  27.581  0.00  0.00    +0.000 A 
ATOM     19  C   UNL     1      30.991  22.755  26.693  0.00  0.00    +0.000 A 
ATOM     20  C   UNL     1      30.503  23.269  25.521  0.00  0.00    +0.000 A 
ATOM     21  C   UNL     1      29.184  23.215  25.200  0.00  0.00    +0.000 A 
ATOM     22  C   UNL     1      28.423  23.615  24.127  0.00  0.00    +0.000 A 
ENDBRANCH   1  22
TORSDOF 1
ENDMDL
MODEL 2
REMARK VINA RESULT:      -6.5     20.157     22.202
REMARK  Name = 
REMARK  1 active torsions:
REMARK  status: ('A' for Active; 'I' for Inactive)
REMARK    1  A    between atoms: C_10  and  C_11
REMARK                            x       y       z     vdW  Elec       q    Type
REMARK                         _______ _______ _______ _____ _____    ______ ____
ROOT
ATOM      1  C   UNL     1      20.081  10.041  37.496  0.00  0.00    +0.000 C 
ATOM      2  C   UNL     1      21.125  10.808  37.620  0.00  0.00    +0.000 C 
ATOM      3  C   UNL     1      21.093  12.055  38.367  0.00  0.00    +0.000 C 
ATOM      4  O   UNL     1      20.019  12.493  38.917  0.00  0.00    +0.000 OA
ATOM      5  N   UNL     1      22.294  12.810  38.481  0.00  0.00    +0.000 N 
ATOM      6  C   UNL     1      22.247  14.058  39.233  0.00  0.00    +0.000 C 
ATOM      7  C   UNL     1      23.501  12.369  37.887  0.00  0.00    +0.000 C 
ATOM      8  S   UNL     1      24.896  13.245  38.020  0.00  0.00    +0.000 S 
ATOM      9  N   UNL     1      23.538  11.147  37.153  0.00  0.00    +0.000 N 
ATOM     10  C   UNL     1      24.811  10.733  36.556  0.00  0.00    +0.000 C 
ATOM     11  C   UNL     1      22.400  10.343  36.992  0.00  0.00    +0.000 C 
ATOM     12  O   UNL     1      22.391   9.259  36.354  0.00  0.00    +0.000 OA
ENDROOT
BRANCH   1  22
ATOM     13  C   UNL     1      19.233   8.756  40.125  0.00  0.00    +0.000 C 
ATOM     14  C   UNL     1      18.351   9.523  39.183  0.00  0.00    +0.000 A 
ATOM     15  N   UNL     1      17.051   9.797  39.340  0.00  0.00    +0.000 NA
ATOM     16  C   UNL     1      16.609  10.503  38.287  0.00  0.00    +0.000 A 
ATOM     17  C   UNL     1      15.348  11.021  38.015  0.00  0.00    +0.000 A 
ATOM     18  C   UNL     1      15.130  11.735  36.872  0.00  0.00    +0.000 A 
ATOM     19  C   UNL     1      16.162  11.938  35.995  0.00  0.00    +0.000 A 
ATOM     20  C   UNL     1      17.399  11.421  36.276  0.00  0.00    +0.000 A 
ATOM     21  C   UNL     1      17.646  10.706  37.405  0.00  0.00    +0.000 A 
ATOM     22  C   UNL     1      18.750  10.095  37.951  0.00  0.00    +0.000 A 
ENDBRANCH   1  22
TORSDOF 1
ENDMDL
MODEL 3
REMARK VINA RESULT:      -6.5     33.499     35.992
REMARK  Name = 
REMARK  1 active torsions:
REMARK  status: ('A' for Active; 'I' for Inactive)
REMARK    1  A    between atoms: C_10  and  C_11
REMARK                            x       y       z     vdW  Elec       q    Type
REMARK                         _______ _______ _______ _____ _____    ______ ____
ROOT
ATOM      1  C   UNL     1      18.844  -8.407  27.361  0.00  0.00    +0.000 C 
ATOM      2  C   UNL     1      17.822  -9.193  27.185  0.00  0.00    +0.000 C 
ATOM      3  C   UNL     1      17.249  -9.446  25.872  0.00  0.00    +0.000 C 
ATOM      4  O   UNL     1      17.697  -8.879  24.813  0.00  0.00    +0.000 OA
ATOM      5  N   UNL     1      16.155 -10.350  25.772  0.00  0.00    +0.000 N 
ATOM      6  C   UNL     1      15.591 -10.596  24.450  0.00  0.00    +0.000 C 
ATOM      7  C   UNL     1      15.625 -10.996  26.915  0.00  0.00    +0.000 C 
ATOM      8  S   UNL     1      14.354 -12.048  26.798  0.00  0.00    +0.000 S 
ATOM      9  N   UNL     1      16.181 -10.751  28.205  0.00  0.00    +0.000 N 
ATOM     10  C   UNL     1      15.598 -11.443  29.357  0.00  0.00    +0.000 C 
ATOM     11  C   UNL     1      17.260  -9.875  28.392  0.00  0.00    +0.000 C 
ATOM     12  O   UNL     1      17.781  -9.632  29.512  0.00  0.00    +0.000 OA
ENDROOT
BRANCH   1  22
ATOM     13  C   UNL     1      18.155  -5.521  26.668  0.00  0.00    +0.000 C 
ATOM     14  C   UNL     1      19.362  -6.284  26.205  0.00  0.00    +0.000 A 
ATOM     15  N   UNL     1      20.354  -5.831  25.430  0.00  0.00    +0.000 NA
ATOM     16  C   UNL     1      21.254  -6.808  25.232  0.00  0.00    +0.000 A 
ATOM     17  C   UNL     1      22.445  -6.804  24.517  0.00  0.00    +0.000 A 
ATOM     18  C   UNL     1      23.222  -7.926  24.468  0.00  0.00    +0.000 A 
ATOM     19  C   UNL     1      22.819  -9.056  25.130  0.00  0.00    +0.000 A 
ATOM     20  C   UNL     1      21.642  -9.045  25.830  0.00  0.00    +0.000 A 
ATOM     21  C   UNL     1      20.849  -7.944  25.897  0.00  0.00    +0.000 A 
ATOM     22  C   UNL     1      19.659  -7.634  26.513  0.00  0.00    +0.000 A 
ENDBRANCH   1  22
TORSDOF 1
ENDMDL
MODEL 4
REMARK VINA RESULT:      -6.3     20.140     22.496
REMARK  Name = 
REMARK  1 active torsions:
REMARK  status: ('A' for Active; 'I' for Inactive)
REMARK    1  A    between atoms: C_10  and  C_11
REMARK                            x       y       z     vdW  Elec       q    Type
REMARK                         _______ _______ _______ _____ _____    ______ ____
ROOT
ATOM      1  C   UNL     1      20.257   9.887  37.646  0.00  0.00    +0.000 C 
ATOM      2  C   UNL     1      21.285  10.685  37.679  0.00  0.00    +0.000 C 
ATOM      3  C   UNL     1      21.242  11.985  38.331  0.00  0.00    +0.000 C 
ATOM      4  O   UNL     1      20.175  12.437  38.880  0.00  0.00    +0.000 OA
ATOM      5  N   UNL     1      22.426  12.774  38.349  0.00  0.00    +0.000 N 
ATOM      6  C   UNL     1      22.370  14.074  39.007  0.00  0.00    +0.000 C 
ATOM      7  C   UNL     1      23.626  12.318  37.752  0.00  0.00    +0.000 C 
ATOM      8  S   UNL     1      25.002  13.234  37.776  0.00  0.00    +0.000 S 
ATOM      9  N   UNL     1      23.673  11.045  37.111  0.00  0.00    +0.000 N 
ATOM     10  C   UNL     1      24.938  10.617  36.507  0.00  0.00    +0.000 C 
ATOM     11  C   UNL     1      22.552  10.205  37.048  0.00  0.00    +0.000 C 
ATOM     12  O   UNL     1      22.552   9.075  36.493  0.00  0.00    +0.000 OA
ENDROOT
BRANCH   1  22
ATOM     13  C   UNL     1      17.879  10.379  35.806  0.00  0.00    +0.000 C 
ATOM     14  C   UNL     1      17.826  10.147  37.288  0.00  0.00    +0.000 A 
ATOM     15  N   UNL     1      16.732  10.092  38.057  0.00  0.00    +0.000 NA
ATOM     16  C   UNL     1      17.087   9.868  39.332  0.00  0.00    +0.000 A 
ATOM     17  C   UNL     1      16.306   9.719  40.472  0.00  0.00    +0.000 A 
ATOM     18  C   UNL     1      16.893   9.475  41.680  0.00  0.00    +0.000 A 
ATOM     19  C   UNL     1      18.257   9.376  41.761  0.00  0.00    +0.000 A 
ATOM     20  C   UNL     1      19.014   9.525  40.629  0.00  0.00    +0.000 A 
ATOM     21  C   UNL     1      18.458   9.769  39.414  0.00  0.00    +0.000 A 
ATOM     22  C   UNL     1      18.940   9.944  38.138  0.00  0.00    +0.000 A 
ENDBRANCH   1  22
TORSDOF 1
ENDMDL
MODEL 5
REMARK VINA RESULT:      -6.3      4.367      7.176
REMARK  Name = 
REMARK  1 active torsions:
REMARK  status: ('A' for Active; 'I' for Inactive)
REMARK    1  A    between atoms: C_10  and  C_11
REMARK                            x       y       z     vdW  Elec       q    Type
REMARK                         _______ _______ _______ _____ _____    ______ ____
ROOT
ATOM      1  C   UNL     1      30.781  22.421  26.819  0.00  0.00    +0.000 C 
ATOM      2  C   UNL     1      30.923  22.909  28.017  0.00  0.00    +0.000 C 
ATOM      3  C   UNL     1      30.374  24.199  28.404  0.00  0.00    +0.000 C 
ATOM      4  O   UNL     1      29.748  24.950  27.573  0.00  0.00    +0.000 OA
ATOM      5  N   UNL     1      30.547  24.635  29.747  0.00  0.00    +0.000 N 
ATOM      6  C   UNL     1      29.991  25.930  30.122  0.00  0.00    +0.000 C 
ATOM      7  C   UNL     1      31.236  23.843  30.697  0.00  0.00    +0.000 C 
ATOM      8  S   UNL     1      31.435  24.350  32.258  0.00  0.00    +0.000 S 
ATOM      9  N   UNL     1      31.777  22.578  30.324  0.00  0.00    +0.000 N 
ATOM     10  C   UNL     1      32.481  21.794  31.342  0.00  0.00    +0.000 C 
ATOM     11  C   UNL     1      31.651  22.073  29.021  0.00  0.00    +0.000 C 
ATOM     12  O   UNL     1      32.112  20.962  28.651  0.00  0.00    +0.000 OA
ENDROOT
BRANCH   1  22
ATOM     13  C   UNL     1      32.382  23.416  24.426  0.00  0.00    +0.000 C 
ATOM     14  C   UNL     1      30.888  23.298  24.511  0.00  0.00    +0.000 A 
ATOM     15  N   UNL     1      30.001  23.584  23.551  0.00  0.00    +0.000 NA
ATOM     16  C   UNL     1      28.758  23.351  24.002  0.00  0.00    +0.000 A 
ATOM     17  C   UNL     1      27.529  23.486  23.367  0.00  0.00    +0.000 A 
ATOM     18  C   UNL     1      26.376  23.168  24.025  0.00  0.00    +0.000 A 
ATOM     19  C   UNL     1      26.438  22.714  25.316  0.00  0.00    +0.000 A 
ATOM     20  C   UNL     1      27.657  22.586  25.930  0.00  0.00    +0.000 A 
ATOM     21  C   UNL     1      28.820  22.895  25.300  0.00  0.00    +0.000 A 
ATOM     22  C   UNL     1      30.153  22.857  25.638  0.00  0.00    +0.000 A 
ENDBRANCH   1  22
TORSDOF 1
ENDMDL
MODEL 6
REMARK VINA RESULT:      -6.3      2.144      3.307
REMARK  Name = 
REMARK  1 active torsions:
REMARK  status: ('A' for Active; 'I' for Inactive)
REMARK    1  A    between atoms: C_10  and  C_11
REMARK                            x       y       z     vdW  Elec       q    Type
REMARK                         _______ _______ _______ _____ _____    ______ ____
ROOT
ATOM      1  C   UNL     1      28.155  26.372  22.427  0.00  0.00    +0.000 C 
ATOM      2  C   UNL     1      28.406  27.100  21.377  0.00  0.00    +0.000 C 
ATOM      3  C   UNL     1      29.253  26.634  20.290  0.00  0.00    +0.000 C 
ATOM      4  O   UNL     1      29.833  25.491  20.319  0.00  0.00    +0.000 OA
ATOM      5  N   UNL     1      29.440  27.485  19.164  0.00  0.00    +0.000 N 
ATOM      6  C   UNL     1      30.291  27.006  18.081  0.00  0.00    +0.000 C 
ATOM      7  C   UNL     1      28.824  28.757  19.090  0.00  0.00    +0.000 C 
ATOM      8  S   UNL     1      29.041  29.744  17.782  0.00  0.00    +0.000 S 
ATOM      9  N   UNL     1      27.994  29.219  20.153  0.00  0.00    +0.000 N 
ATOM     10  C   UNL     1      27.378  30.543  20.031  0.00  0.00    +0.000 C 
ATOM     11  C   UNL     1      27.756  28.444  21.298  0.00  0.00    +0.000 C 
ATOM     12  O   UNL     1      27.030  28.814  22.258  0.00  0.00    +0.000 OA
ENDROOT
BRANCH   1  22
ATOM     13  C   UNL     1      26.529  23.907  21.675  0.00  0.00    +0.000 C 
ATOM     14  C   UNL     1      27.791  23.928  22.488  0.00  0.00    +0.000 A 
ATOM     15  N   UNL     1      28.435  22.875  23.004  0.00  0.00    +0.000 NA
ATOM     16  C   UNL     1      29.525  23.293  23.668  0.00  0.00    +0.000 A 
ATOM     17  C   UNL     1      30.499  22.571  24.347  0.00  0.00    +0.000 A 
ATOM     18  C   UNL     1      31.544  23.217  24.941  0.00  0.00    +0.000 A 
ATOM     19  C   UNL     1      31.628  24.582  24.863  0.00  0.00    +0.000 A 
ATOM     20  C   UNL     1      30.661  25.281  24.190  0.00  0.00    +0.000 A 
ATOM     21  C   UNL     1      29.609  24.666  23.590  0.00  0.00    +0.000 A 
ATOM     22  C   UNL     1      28.526  25.083  22.852  0.00  0.00    +0.000 A 
ENDBRANCH   1  22
TORSDOF 1
ENDMDL
MODEL 7
REMARK VINA RESULT:      -6.1     32.859     34.842
REMARK  Name = 
REMARK  1 active torsions:
REMARK  status: ('A' for Active; 'I' for Inactive)
REMARK    1  A    between atoms: C_10  and  C_11
REMARK                            x       y       z     vdW  Elec       q    Type
REMARK                         _______ _______ _______ _____ _____    ______ ____
ROOT
ATOM      1  C   UNL     1      21.882  -8.807  25.212  0.00  0.00    +0.000 C 
ATOM      2  C   UNL     1      22.145  -9.123  23.977  0.00  0.00    +0.000 C 
ATOM      3  C   UNL     1      21.102  -9.333  22.986  0.00  0.00    +0.000 C 
ATOM      4  O   UNL     1      19.856  -9.255  23.281  0.00  0.00    +0.000 OA
ATOM      5  N   UNL     1      21.487  -9.639  21.651  0.00  0.00    +0.000 N 
ATOM      6  C   UNL     1      20.431  -9.847  20.667  0.00  0.00    +0.000 C 
ATOM      7  C   UNL     1      22.850  -9.741  21.280  0.00  0.00    +0.000 C 
ATOM      8  S   UNL     1      23.296 -10.096  19.729  0.00  0.00    +0.000 S 
ATOM      9  N   UNL     1      23.876  -9.537  22.248  0.00  0.00    +0.000 N 
ATOM     10  C   UNL     1      25.272  -9.653  21.817  0.00  0.00    +0.000 C 
ATOM     11  C   UNL     1      23.585  -9.231  23.586  0.00  0.00    +0.000 C 
ATOM     12  O   UNL     1      24.460  -9.044  24.470  0.00  0.00    +0.000 OA
ENDROOT
BRANCH   1  22
ATOM     13  C   UNL     1      20.488 -11.041  26.746  0.00  0.00    +0.000 C 
ATOM     14  C   UNL     1      20.062  -9.602  26.684  0.00  0.00    +0.000 A 
ATOM     15  N   UNL     1      19.017  -9.044  27.305  0.00  0.00    +0.000 NA
ATOM     16  C   UNL     1      18.962  -7.736  27.007  0.00  0.00    +0.000 A 
ATOM     17  C   UNL     1      18.070  -6.754  27.424  0.00  0.00    +0.000 A 
ATOM     18  C   UNL     1      18.221  -5.465  27.000  0.00  0.00    +0.000 A 
ATOM     19  C   UNL     1      19.256  -5.145  26.161  0.00  0.00    +0.000 A 
ATOM     20  C   UNL     1      20.126  -6.124  25.758  0.00  0.00    +0.000 A 
ATOM     21  C   UNL     1      20.001  -7.415  26.163  0.00  0.00    +0.000 A 
ATOM     22  C   UNL     1      20.704  -8.577  25.948  0.00  0.00    +0.000 A 
ENDBRANCH   1  22
TORSDOF 1
ENDMDL
MODEL 8
REMARK VINA RESULT:      -6.0     34.452     36.829
REMARK  Name = 
REMARK  1 active torsions:
REMARK  status: ('A' for Active; 'I' for Inactive)
REMARK    1  A    between atoms: C_10  and  C_11
REMARK                            x       y       z     vdW  Elec       q    Type
REMARK                         _______ _______ _______ _____ _____    ______ ____
ROOT
ATOM      1  C   UNL     1      16.128  -9.599  26.673  0.00  0.00    +0.000 C 
ATOM      2  C   UNL     1      14.885  -9.630  26.287  0.00  0.00    +0.000 C 
ATOM      3  C   UNL     1      14.417  -8.922  25.107  0.00  0.00    +0.000 C 
ATOM      4  O   UNL     1      15.197  -8.193  24.396  0.00  0.00    +0.000 OA
ATOM      5  N   UNL     1      13.048  -9.044  24.740  0.00  0.00    +0.000 N 
ATOM      6  C   UNL     1      12.592  -8.330  23.554  0.00  0.00    +0.000 C 
ATOM      7  C   UNL     1      12.149  -9.834  25.498  0.00  0.00    +0.000 C 
ATOM      8  S   UNL     1      10.558  -9.976  25.071  0.00  0.00    +0.000 S 
ATOM      9  N   UNL     1      12.602 -10.530  26.657  0.00  0.00    +0.000 N 
ATOM     10  C   UNL     1      11.635 -11.334  27.408  0.00  0.00    +0.000 C 
ATOM     11  C   UNL     1      13.935 -10.463  27.087  0.00  0.00    +0.000 C 
ATOM     12  O   UNL     1      14.375 -11.062  28.103  0.00  0.00    +0.000 OA
ENDROOT
BRANCH   1  22
ATOM     13  C   UNL     1      17.983 -11.014  24.713  0.00  0.00    +0.000 C 
ATOM     14  C   UNL     1      18.157  -9.627  25.263  0.00  0.00    +0.000 A 
ATOM     15  N   UNL     1      19.137  -8.763  24.975  0.00  0.00    +0.000 NA
ATOM     16  C   UNL     1      18.952  -7.625  25.663  0.00  0.00    +0.000 A 
ATOM     17  C   UNL     1      19.695  -6.451  25.678  0.00  0.00    +0.000 A 
ATOM     18  C   UNL     1      19.301  -5.399  26.454  0.00  0.00    +0.000 A 
ATOM     19  C   UNL     1      18.169  -5.508  27.217  0.00  0.00    +0.000 A 
ATOM     20  C   UNL     1      17.447  -6.672  27.192  0.00  0.00    +0.000 A 
ATOM     21  C   UNL     1      17.814  -7.735  26.431  0.00  0.00    +0.000 A 
ATOM     22  C   UNL     1      17.301  -8.989  26.193  0.00  0.00    +0.000 A 
ENDBRANCH   1  22
TORSDOF 1
ENDMDL
MODEL 9
REMARK VINA RESULT:      -5.9      4.497      5.818
REMARK  Name = 
REMARK  1 active torsions:
REMARK  status: ('A' for Active; 'I' for Inactive)
REMARK    1  A    between atoms: C_10  and  C_11
REMARK                            x       y       z     vdW  Elec       q    Type
REMARK                         _______ _______ _______ _____ _____    ______ ____
ROOT
ATOM      1  C   UNL     1      25.931  23.945  27.436  0.00  0.00    +0.000 C 
ATOM      2  C   UNL     1      26.751  24.313  26.495  0.00  0.00    +0.000 C 
ATOM      3  C   UNL     1      27.822  25.270  26.723  0.00  0.00    +0.000 C 
ATOM      4  O   UNL     1      27.998  25.837  27.860  0.00  0.00    +0.000 OA
ATOM      5  N   UNL     1      28.694  25.584  25.643  0.00  0.00    +0.000 N 
ATOM      6  C   UNL     1      29.764  26.544  25.886  0.00  0.00    +0.000 C 
ATOM      7  C   UNL     1      28.535  24.986  24.369  0.00  0.00    +0.000 C 
ATOM      8  S   UNL     1      29.548  25.350  23.115  0.00  0.00    +0.000 S 
ATOM      9  N   UNL     1      27.486  24.048  24.139  0.00  0.00    +0.000 N 
ATOM     10  C   UNL     1      27.362  23.457  22.804  0.00  0.00    +0.000 C 
ATOM     11  C   UNL     1      26.583  23.683  25.149  0.00  0.00    +0.000 C 
ATOM     12  O   UNL     1      25.645  22.859  24.988  0.00  0.00    +0.000 OA
ENDROOT
BRANCH   1  22
ATOM     13  C   UNL     1      27.149  22.211  29.626  0.00  0.00    +0.000 C 
ATOM     14  C   UNL     1      26.362  23.475  29.824  0.00  0.00    +0.000 A 
ATOM     15  N   UNL     1      26.078  24.074  30.986  0.00  0.00    +0.000 NA
ATOM     16  C   UNL     1      25.355  25.182  30.758  0.00  0.00    +0.000 A 
ATOM     17  C   UNL     1      24.847  26.125  31.644  0.00  0.00    +0.000 A 
ATOM     18  C   UNL     1      24.146  27.199  31.177  0.00  0.00    +0.000 A 
ATOM     19  C   UNL     1      23.947  27.342  29.829  0.00  0.00    +0.000 A 
ATOM     20  C   UNL     1      24.453  26.405  28.968  0.00  0.00    +0.000 A 
ATOM     21  C   UNL     1      25.154  25.326  29.403  0.00  0.00    +0.000 A 
ATOM     22  C   UNL     1      25.780  24.260  28.799  0.00  0.00    +0.000 A 
ENDBRANCH   1  22
TORSDOF 1
ENDMDL
MODEL 10
REMARK VINA RESULT:      -5.9     26.390     29.770
REMARK  Name = 
REMARK  1 active torsions:
REMARK  status: ('A' for Active; 'I' for Inactive)
REMARK    1  A    between atoms: C_10  and  C_11
REMARK                            x       y       z     vdW  Elec       q    Type
REMARK                         _______ _______ _______ _____ _____    ______ ____
ROOT
ATOM      1  C   UNL     1      33.172  -0.984  35.667  0.00  0.00    +0.000 C 
ATOM      2  C   UNL     1      33.882  -2.073  35.610  0.00  0.00    +0.000 C 
ATOM      3  C   UNL     1      35.315  -2.083  35.858  0.00  0.00    +0.000 C 
ATOM      4  O   UNL     1      35.970  -1.010  36.113  0.00  0.00    +0.000 OA
ATOM      5  N   UNL     1      36.004  -3.327  35.810  0.00  0.00    +0.000 N 
ATOM      6  C   UNL     1      37.440  -3.323  36.062  0.00  0.00    +0.000 C 
ATOM      7  C   UNL     1      35.323  -4.537  35.529  0.00  0.00    +0.000 C 
ATOM      8  S   UNL     1      36.124  -5.982  35.475  0.00  0.00    +0.000 S 
ATOM      9  N   UNL     1      33.919  -4.533  35.283  0.00  0.00    +0.000 N 
ATOM     10  C   UNL     1      33.259  -5.809  34.996  0.00  0.00    +0.000 C 
ATOM     11  C   UNL     1      33.165  -3.351  35.311  0.00  0.00    +0.000 C 
ATOM     12  O   UNL     1      31.925  -3.304  35.101  0.00  0.00    +0.000 OA
ENDROOT
BRANCH   1  22
ATOM     13  C   UNL     1      33.669  -0.002  38.508  0.00  0.00    +0.000 C 
ATOM     14  C   UNL     1      33.704   0.830  37.258  0.00  0.00    +0.000 A 
ATOM     15  N   UNL     1      33.981   2.136  37.167  0.00  0.00    +0.000 NA
ATOM     16  C   UNL     1      33.914   2.522  35.883  0.00  0.00    +0.000 A 
ATOM     17  C   UNL     1      34.134   3.767  35.304  0.00  0.00    +0.000 A 
ATOM     18  C   UNL     1      34.026   3.924  33.952  0.00  0.00    +0.000 A 
ATOM     19  C   UNL     1      33.699   2.848  33.170  0.00  0.00    +0.000 A 
ATOM     20  C   UNL     1      33.484   1.629  33.755  0.00  0.00    +0.000 A 
ATOM     21  C   UNL     1      33.584   1.441  35.096  0.00  0.00    +0.000 A 
ATOM     22  C   UNL     1      33.447   0.367  35.945  0.00  0.00    +0.000 A 
ENDBRANCH   1  22
TORSDOF 1
ENDMDL
