MODEL 1
REMARK VINA RESULT:      -8.1      0.000      0.000
REMARK  Name = 
REMARK  7 active torsions:
REMARK  status: ('A' for Active; 'I' for Inactive)
REMARK    1  A    between atoms: O_2  and  C_3
REMARK    2  A    between atoms: C_8  and  C_9
REMARK    3  A    between atoms: N_11  and  C_12
REMARK    4  A    between atoms: N_16  and  C_17
REMARK    5  A    between atoms: C_17  and  C_18
REMARK    6  A    between atoms: C_22  and  O_23
REMARK    7  A    between atoms: O_23  and  C_24
REMARK                            x       y       z     vdW  Elec       q    Type
REMARK                         _______ _______ _______ _____ _____    ______ ____
ROOT
ATOM      1  C   UNL     1      37.257   1.717  15.482  0.00  0.00    +0.000 A 
ATOM      2  C   UNL     1      36.238   2.682  15.595  0.00  0.00    +0.000 A 
ATOM      3  C   UNL     1      34.903   2.467  16.165  0.00  0.00    +0.000 C 
ATOM      4  N   UNL     1      36.737   3.793  15.086  0.00  0.00    +0.000 NA
ATOM      5  N   UNL     1      37.966   3.659  14.654  0.00  0.00    +0.000 N 
ATOM      6  C   UNL     1      38.299   2.384  14.893  0.00  0.00    +0.000 A 
ATOM      7  C   UNL     1      39.616   1.774  14.556  0.00  0.00    +0.000 C 
ENDROOT
BRANCH   1  10
ATOM      8  C   UNL     1      36.856  -0.705  15.066  0.00  0.00    +0.000 C 
ATOM      9  O   UNL     1      36.727  -0.424  13.826  0.00  0.00    +0.000 OA
ATOM     10  N   UNL     1      37.132   0.368  15.910  0.00  0.00    +0.000 NA
BRANCH   8  16
ATOM     11  C   UNL     1      37.760  -2.885  15.857  0.00  0.00    +0.000 A 
ATOM     12  C   UNL     1      37.493  -4.213  16.217  0.00  0.00    +0.000 A 
ATOM     13  C   UNL     1      36.228  -4.740  16.173  0.00  0.00    +0.000 A 
ATOM     14  C   UNL     1      35.154  -3.961  15.762  0.00  0.00    +0.000 A 
ATOM     15  C   UNL     1      35.447  -2.668  15.418  0.00  0.00    +0.000 A 
ATOM     16  C   UNL     1      36.698  -2.098  15.447  0.00  0.00    +0.000 A 
BRANCH  11  18
ATOM     17  C   UNL     1      40.164  -2.485  15.219  0.00  0.00    +0.000 C 
ATOM     18  O   UNL     1      38.984  -2.373  15.911  0.00  0.00    +0.000 OA
ENDBRANCH  11  18
ENDBRANCH   8  16
ENDBRANCH   1  10
BRANCH   5  19
ATOM     19  C   UNL     1      38.746   4.751  14.031  0.00  0.00    +0.000 C 
BRANCH  19  20
ATOM     20  C   UNL     1      39.700   5.314  15.020  0.00  0.00    +0.000 A 
ATOM     21  C   UNL     1      40.930   5.818  14.572  0.00  0.00    +0.000 A 
ATOM     22  C   UNL     1      41.740   6.343  15.549  0.00  0.00    +0.000 A 
ATOM     23  C   UNL     1      41.425   6.393  16.866  0.00  0.00    +0.000 A 
ATOM     24  C   UNL     1      40.185   5.879  17.286  0.00  0.00    +0.000 A 
ATOM     25  C   UNL     1      39.361   5.352  16.342  0.00  0.00    +0.000 A 
BRANCH  24  26
ATOM     26  O   UNL     1      39.788   5.893  18.594  0.00  0.00    +0.000 OA
BRANCH  26  27
ATOM     27  C   UNL     1      39.099   6.924  19.207  0.00  0.00    +0.000 A 
ATOM     28  C   UNL     1      37.964   7.465  18.581  0.00  0.00    +0.000 A 
ATOM     29  C   UNL     1      37.229   8.490  19.127  0.00  0.00    +0.000 A 
ATOM     30  C   UNL     1      37.618   9.003  20.322  0.00  0.00    +0.000 A 
ATOM     31  C   UNL     1      38.728   8.491  20.957  0.00  0.00    +0.000 A 
ATOM     32  C   UNL     1      39.459   7.469  20.412  0.00  0.00    +0.000 A 
ENDBRANCH  26  27
ENDBRANCH  24  26
ENDBRANCH  19  20
ENDBRANCH   5  19
TORSDOF 7
ENDMDL
MODEL 2
REMARK VINA RESULT:      -8.0     24.737     27.807
REMARK  Name = 
REMARK  7 active torsions:
REMARK  status: ('A' for Active; 'I' for Inactive)
REMARK    1  A    between atoms: O_2  and  C_3
REMARK    2  A    between atoms: C_8  and  C_9
REMARK    3  A    between atoms: N_11  and  C_12
REMARK    4  A    between atoms: N_16  and  C_17
REMARK    5  A    between atoms: C_17  and  C_18
REMARK    6  A    between atoms: C_22  and  O_23
REMARK    7  A    between atoms: O_23  and  C_24
REMARK                            x       y       z     vdW  Elec       q    Type
REMARK                         _______ _______ _______ _____ _____    ______ ____
ROOT
ATOM      1  C   UNL     1      11.941   0.860  28.461  0.00  0.00    +0.000 A 
ATOM      2  C   UNL     1      12.922   0.472  29.394  0.00  0.00    +0.000 A 
ATOM      3  C   UNL     1      12.919   0.781  30.829  0.00  0.00    +0.000 C 
ATOM      4  N   UNL     1      13.819  -0.211  28.710  0.00  0.00    +0.000 NA
ATOM      5  N   UNL     1      13.534  -0.310  27.436  0.00  0.00    +0.000 N 
ATOM      6  C   UNL     1      12.378   0.345  27.270  0.00  0.00    +0.000 A 
ATOM      7  C   UNL     1      11.671   0.500  25.967  0.00  0.00    +0.000 C 
ENDROOT
BRANCH   1  10
ATOM      8  C   UNL     1      10.651   2.989  28.532  0.00  0.00    +0.000 C 
ATOM      9  O   UNL     1      11.642   3.556  27.959  0.00  0.00    +0.000 OA
ATOM     10  N   UNL     1      10.788   1.625  28.784  0.00  0.00    +0.000 NA
BRANCH   8  16
ATOM     11  C   UNL     1       9.033   3.973  30.147  0.00  0.00    +0.000 A 
ATOM     12  C   UNL     1       7.934   4.819  30.350  0.00  0.00    +0.000 A 
ATOM     13  C   UNL     1       7.329   5.489  29.318  0.00  0.00    +0.000 A 
ATOM     14  C   UNL     1       7.795   5.348  28.017  0.00  0.00    +0.000 A 
ATOM     15  C   UNL     1       8.872   4.516  27.852  0.00  0.00    +0.000 A 
ATOM     16  C   UNL     1       9.508   3.826  28.856  0.00  0.00    +0.000 A 
BRANCH  11  18
ATOM     17  C   UNL     1      10.275   3.653  32.316  0.00  0.00    +0.000 C 
ATOM     18  O   UNL     1       9.624   3.335  31.150  0.00  0.00    +0.000 OA
ENDBRANCH  11  18
ENDBRANCH   8  16
ENDBRANCH   1  10
BRANCH   5  19
ATOM     19  C   UNL     1      14.385  -1.016  26.452  0.00  0.00    +0.000 C 
BRANCH  19  20
ATOM     20  C   UNL     1      15.732  -0.392  26.415  0.00  0.00    +0.000 A 
ATOM     21  C   UNL     1      15.894   0.913  26.905  0.00  0.00    +0.000 A 
ATOM     22  C   UNL     1      17.176   1.402  26.856  0.00  0.00    +0.000 A 
ATOM     23  C   UNL     1      18.244   0.719  26.378  0.00  0.00    +0.000 A 
ATOM     24  C   UNL     1      18.051  -0.587  25.892  0.00  0.00    +0.000 A 
ATOM     25  C   UNL     1      16.792  -1.099  25.926  0.00  0.00    +0.000 A 
BRANCH  24  26
ATOM     26  O   UNL     1      19.074  -1.346  25.397  0.00  0.00    +0.000 OA
BRANCH  26  27
ATOM     27  C   UNL     1      19.571  -1.271  24.108  0.00  0.00    +0.000 A 
ATOM     28  C   UNL     1      19.694  -2.445  23.345  0.00  0.00    +0.000 A 
ATOM     29  C   UNL     1      20.179  -2.451  22.060  0.00  0.00    +0.000 A 
ATOM     30  C   UNL     1      20.559  -1.273  21.504  0.00  0.00    +0.000 A 
ATOM     31  C   UNL     1      20.449  -0.108  22.230  0.00  0.00    +0.000 A 
ATOM     32  C   UNL     1      19.964  -0.102  23.511  0.00  0.00    +0.000 A 
ENDBRANCH  26  27
ENDBRANCH  24  26
ENDBRANCH  19  20
ENDBRANCH   5  19
TORSDOF 7
ENDMDL
MODEL 3
REMARK VINA RESULT:      -8.0      2.232      8.708
REMARK  Name = 
REMARK  7 active torsions:
REMARK  status: ('A' for Active; 'I' for Inactive)
REMARK    1  A    between atoms: O_2  and  C_3
REMARK    2  A    between atoms: C_8  and  C_9
REMARK    3  A    between atoms: N_11  and  C_12
REMARK    4  A    between atoms: N_16  and  C_17
REMARK    5  A    between atoms: C_17  and  C_18
REMARK    6  A    between atoms: C_22  and  O_23
REMARK    7  A    between atoms: O_23  and  C_24
REMARK                            x       y       z     vdW  Elec       q    Type
REMARK                         _______ _______ _______ _____ _____    ______ ____
ROOT
ATOM      1  C   UNL     1      36.288   2.242  16.374  0.00  0.00    +0.000 A 
ATOM      2  C   UNL     1      35.958   2.069  15.016  0.00  0.00    +0.000 A 
ATOM      3  C   UNL     1      35.974   3.111  13.983  0.00  0.00    +0.000 C 
ATOM      4  N   UNL     1      35.641   0.795  14.882  0.00  0.00    +0.000 NA
ATOM      5  N   UNL     1      35.725   0.121  16.001  0.00  0.00    +0.000 N 
ATOM      6  C   UNL     1      36.123   1.000  16.928  0.00  0.00    +0.000 A 
ATOM      7  C   UNL     1      36.347   0.676  18.365  0.00  0.00    +0.000 C 
ENDROOT
BRANCH   1  10
ATOM      8  C   UNL     1      37.952   4.042  16.810  0.00  0.00    +0.000 C 
ATOM      9  O   UNL     1      38.784   3.382  16.099  0.00  0.00    +0.000 OA
ATOM     10  N   UNL     1      36.685   3.479  16.948  0.00  0.00    +0.000 NA
BRANCH   8  16
ATOM     11  C   UNL     1      38.358   6.496  16.712  0.00  0.00    +0.000 A 
ATOM     12  C   UNL     1      38.824   7.643  17.369  0.00  0.00    +0.000 A 
ATOM     13  C   UNL     1      39.333   7.598  18.642  0.00  0.00    +0.000 A 
ATOM     14  C   UNL     1      39.403   6.393  19.330  0.00  0.00    +0.000 A 
ATOM     15  C   UNL     1      38.938   5.291  18.661  0.00  0.00    +0.000 A 
ATOM     16  C   UNL     1      38.421   5.290  17.388  0.00  0.00    +0.000 A 
BRANCH  11  18
ATOM     17  C   UNL     1      36.693   6.950  14.876  0.00  0.00    +0.000 C 
ATOM     18  O   UNL     1      37.855   6.544  15.484  0.00  0.00    +0.000 OA
ENDBRANCH  11  18
ENDBRANCH   8  16
ENDBRANCH   1  10
BRANCH   5  19
ATOM     19  C   UNL     1      35.411  -1.321  16.122  0.00  0.00    +0.000 C 
BRANCH  19  20
ATOM     20  C   UNL     1      36.669  -2.098  16.262  0.00  0.00    +0.000 A 
ATOM     21  C   UNL     1      36.868  -2.874  17.413  0.00  0.00    +0.000 A 
ATOM     22  C   UNL     1      38.045  -3.580  17.449  0.00  0.00    +0.000 A 
ATOM     23  C   UNL     1      38.984  -3.563  16.472  0.00  0.00    +0.000 A 
ATOM     24  C   UNL     1      38.758  -2.775  15.330  0.00  0.00    +0.000 A 
ATOM     25  C   UNL     1      37.601  -2.063  15.265  0.00  0.00    +0.000 A 
BRANCH  24  26
ATOM     26  O   UNL     1      39.651  -2.703  14.297  0.00  0.00    +0.000 OA
BRANCH  26  27
ATOM     27  C   UNL     1      40.735  -1.847  14.237  0.00  0.00    +0.000 A 
ATOM     28  C   UNL     1      40.535  -0.503  13.876  0.00  0.00    +0.000 A 
ATOM     29  C   UNL     1      41.561   0.406  13.794  0.00  0.00    +0.000 A 
ATOM     30  C   UNL     1      42.823  -0.010  14.071  0.00  0.00    +0.000 A 
ATOM     31  C   UNL     1      43.046  -1.323  14.427  0.00  0.00    +0.000 A 
ATOM     32  C   UNL     1      42.022  -2.228  14.510  0.00  0.00    +0.000 A 
ENDBRANCH  26  27
ENDBRANCH  24  26
ENDBRANCH  19  20
ENDBRANCH   5  19
TORSDOF 7
ENDMDL
MODEL 4
REMARK VINA RESULT:      -8.0      2.301      3.500
REMARK  Name = 
REMARK  7 active torsions:
REMARK  status: ('A' for Active; 'I' for Inactive)
REMARK    1  A    between atoms: O_2  and  C_3
REMARK    2  A    between atoms: C_8  and  C_9
REMARK    3  A    between atoms: N_11  and  C_12
REMARK    4  A    between atoms: N_16  and  C_17
REMARK    5  A    between atoms: C_17  and  C_18
REMARK    6  A    between atoms: C_22  and  O_23
REMARK    7  A    between atoms: O_23  and  C_24
REMARK                            x       y       z     vdW  Elec       q    Type
REMARK                         _______ _______ _______ _____ _____    ______ ____
ROOT
ATOM      1  C   UNL     1      36.778   2.445  15.034  0.00  0.00    +0.000 A 
ATOM      2  C   UNL     1      35.499   2.648  15.587  0.00  0.00    +0.000 A 
ATOM      3  C   UNL     1      34.871   1.834  16.635  0.00  0.00    +0.000 C 
ATOM      4  N   UNL     1      35.004   3.703  14.969  0.00  0.00    +0.000 NA
ATOM      5  N   UNL     1      35.817   4.209  14.076  0.00  0.00    +0.000 N 
ATOM      6  C   UNL     1      36.914   3.443  14.107  0.00  0.00    +0.000 A 
ATOM      7  C   UNL     1      38.112   3.643  13.244  0.00  0.00    +0.000 C 
ENDROOT
BRANCH   1  10
ATOM      8  C   UNL     1      37.684   0.134  14.832  0.00  0.00    +0.000 C 
ATOM      9  O   UNL     1      36.856  -0.058  13.878  0.00  0.00    +0.000 OA
ATOM     10  N   UNL     1      37.658   1.397  15.418  0.00  0.00    +0.000 NA
BRANCH   8  16
ATOM     11  C   UNL     1      38.279  -1.808  16.270  0.00  0.00    +0.000 A 
ATOM     12  C   UNL     1      39.168  -2.863  16.521  0.00  0.00    +0.000 A 
ATOM     13  C   UNL     1      40.272  -3.089  15.740  0.00  0.00    +0.000 A 
ATOM     14  C   UNL     1      40.550  -2.263  14.658  0.00  0.00    +0.000 A 
ATOM     15  C   UNL     1      39.662  -1.242  14.438  0.00  0.00    +0.000 A 
ATOM     16  C   UNL     1      38.545  -0.980  15.194  0.00  0.00    +0.000 A 
BRANCH  11  18
ATOM     17  C   UNL     1      36.922  -1.165  18.292  0.00  0.00    +0.000 C 
ATOM     18  O   UNL     1      37.205  -1.600  17.022  0.00  0.00    +0.000 OA
ENDBRANCH  11  18
ENDBRANCH   8  16
ENDBRANCH   1  10
BRANCH   5  19
ATOM     19  C   UNL     1      35.494   5.387  13.240  0.00  0.00    +0.000 C 
BRANCH  19  20
ATOM     20  C   UNL     1      35.627   6.627  14.047  0.00  0.00    +0.000 A 
ATOM     21  C   UNL     1      34.526   7.487  14.164  0.00  0.00    +0.000 A 
ATOM     22  C   UNL     1      34.728   8.596  14.948  0.00  0.00    +0.000 A 
ATOM     23  C   UNL     1      35.887   8.888  15.585  0.00  0.00    +0.000 A 
ATOM     24  C   UNL     1      36.976   8.008  15.449  0.00  0.00    +0.000 A 
ATOM     25  C   UNL     1      36.807   6.901  14.678  0.00  0.00    +0.000 A 
BRANCH  24  26
ATOM     26  O   UNL     1      38.179   8.225  16.060  0.00  0.00    +0.000 OA
BRANCH  26  27
ATOM     27  C   UNL     1      38.604   7.613  17.225  0.00  0.00    +0.000 A 
ATOM     28  C   UNL     1      39.232   6.358  17.157  0.00  0.00    +0.000 A 
ATOM     29  C   UNL     1      39.681   5.689  18.270  0.00  0.00    +0.000 A 
ATOM     30  C   UNL     1      39.508   6.262  19.487  0.00  0.00    +0.000 A 
ATOM     31  C   UNL     1      38.895   7.493  19.582  0.00  0.00    +0.000 A 
ATOM     32  C   UNL     1      38.449   8.160  18.472  0.00  0.00    +0.000 A 
ENDBRANCH  26  27
ENDBRANCH  24  26
ENDBRANCH  19  20
ENDBRANCH   5  19
TORSDOF 7
ENDMDL
MODEL 5
REMARK VINA RESULT:      -7.7      2.222      3.242
REMARK  Name = 
REMARK  7 active torsions:
REMARK  status: ('A' for Active; 'I' for Inactive)
REMARK    1  A    between atoms: O_2  and  C_3
REMARK    2  A    between atoms: C_8  and  C_9
REMARK    3  A    between atoms: N_11  and  C_12
REMARK    4  A    between atoms: N_16  and  C_17
REMARK    5  A    between atoms: C_17  and  C_18
REMARK    6  A    between atoms: C_22  and  O_23
REMARK    7  A    between atoms: O_23  and  C_24
REMARK                            x       y       z     vdW  Elec       q    Type
REMARK                         _______ _______ _______ _____ _____    ______ ____
ROOT
ATOM      1  C   UNL     1      37.196   2.054  14.758  0.00  0.00    +0.000 A 
ATOM      2  C   UNL     1      36.311   3.104  15.071  0.00  0.00    +0.000 A 
ATOM      3  C   UNL     1      34.853   2.995  15.202  0.00  0.00    +0.000 C 
ATOM      4  N   UNL     1      37.063   4.178  15.216  0.00  0.00    +0.000 NA
ATOM      5  N   UNL     1      38.338   3.946  15.031  0.00  0.00    +0.000 N 
ATOM      6  C   UNL     1      38.434   2.641  14.749  0.00  0.00    +0.000 A 
ATOM      7  C   UNL     1      39.709   1.928  14.455  0.00  0.00    +0.000 C 
ENDROOT
BRANCH   1  10
ATOM      8  C   UNL     1      36.794  -0.297  15.474  0.00  0.00    +0.000 C 
ATOM      9  O   UNL     1      37.176   0.043  16.645  0.00  0.00    +0.000 OA
ATOM     10  N   UNL     1      36.793   0.714  14.515  0.00  0.00    +0.000 NA
BRANCH   8  16
ATOM     11  C   UNL     1      37.185  -2.577  14.556  0.00  0.00    +0.000 A 
ATOM     12  C   UNL     1      36.731  -3.899  14.445  0.00  0.00    +0.000 A 
ATOM     13  C   UNL     1      35.562  -4.320  15.024  0.00  0.00    +0.000 A 
ATOM     14  C   UNL     1      34.777  -3.434  15.752  0.00  0.00    +0.000 A 
ATOM     15  C   UNL     1      35.249  -2.150  15.843  0.00  0.00    +0.000 A 
ATOM     16  C   UNL     1      36.413  -1.686  15.280  0.00  0.00    +0.000 A 
BRANCH  11  18
ATOM     17  C   UNL     1      38.807  -1.919  12.745  0.00  0.00    +0.000 C 
ATOM     18  O   UNL     1      38.323  -2.175  14.004  0.00  0.00    +0.000 OA
ENDBRANCH  11  18
ENDBRANCH   8  16
ENDBRANCH   1  10
BRANCH   5  19
ATOM     19  C   UNL     1      39.388   4.984  15.125  0.00  0.00    +0.000 C 
BRANCH  19  20
ATOM     20  C   UNL     1      39.586   5.371  16.545  0.00  0.00    +0.000 A 
ATOM     21  C   UNL     1      38.686   4.899  17.513  0.00  0.00    +0.000 A 
ATOM     22  C   UNL     1      38.957   5.284  18.803  0.00  0.00    +0.000 A 
ATOM     23  C   UNL     1      40.003   6.063  19.171  0.00  0.00    +0.000 A 
ATOM     24  C   UNL     1      40.887   6.522  18.179  0.00  0.00    +0.000 A 
ATOM     25  C   UNL     1      40.645   6.159  16.892  0.00  0.00    +0.000 A 
BRANCH  24  26
ATOM     26  O   UNL     1      41.968   7.309  18.465  0.00  0.00    +0.000 OA
BRANCH  26  27
ATOM     27  C   UNL     1      43.071   6.914  19.201  0.00  0.00    +0.000 A 
ATOM     28  C   UNL     1      42.898   6.487  20.529  0.00  0.00    +0.000 A 
ATOM     29  C   UNL     1      43.943   6.081  21.322  0.00  0.00    +0.000 A 
ATOM     30  C   UNL     1      45.197   6.094  20.803  0.00  0.00    +0.000 A 
ATOM     31  C   UNL     1      45.393   6.508  19.503  0.00  0.00    +0.000 A 
ATOM     32  C   UNL     1      44.351   6.912  18.713  0.00  0.00    +0.000 A 
ENDBRANCH  26  27
ENDBRANCH  24  26
ENDBRANCH  19  20
ENDBRANCH   5  19
TORSDOF 7
ENDMDL
MODEL 6
REMARK VINA RESULT:      -7.7      1.944      3.314
REMARK  Name = 
REMARK  7 active torsions:
REMARK  status: ('A' for Active; 'I' for Inactive)
REMARK    1  A    between atoms: O_2  and  C_3
REMARK    2  A    between atoms: C_8  and  C_9
REMARK    3  A    between atoms: N_11  and  C_12
REMARK    4  A    between atoms: N_16  and  C_17
REMARK    5  A    between atoms: C_17  and  C_18
REMARK    6  A    between atoms: C_22  and  O_23
REMARK    7  A    between atoms: O_23  and  C_24
REMARK                            x       y       z     vdW  Elec       q    Type
REMARK                         _______ _______ _______ _____ _____    ______ ____
ROOT
ATOM      1  C   UNL     1      38.197   0.799  14.548  0.00  0.00    +0.000 A 
ATOM      2  C   UNL     1      39.576   1.053  14.425  0.00  0.00    +0.000 A 
ATOM      3  C   UNL     1      40.629   0.046  14.251  0.00  0.00    +0.000 C 
ATOM      4  N   UNL     1      39.708   2.364  14.500  0.00  0.00    +0.000 NA
ATOM      5  N   UNL     1      38.570   2.990  14.659  0.00  0.00    +0.000 N 
ATOM      6  C   UNL     1      37.630   2.037  14.689  0.00  0.00    +0.000 A 
ATOM      7  C   UNL     1      36.172   2.289  14.863  0.00  0.00    +0.000 C 
ENDROOT
BRANCH   1  10
ATOM      8  C   UNL     1      37.283  -1.233  15.659  0.00  0.00    +0.000 C 
ATOM      9  O   UNL     1      37.511  -0.667  16.782  0.00  0.00    +0.000 OA
ATOM     10  N   UNL     1      37.618  -0.499  14.524  0.00  0.00    +0.000 NA
BRANCH   8  16
ATOM     11  C   UNL     1      37.432  -3.680  16.092  0.00  0.00    +0.000 A 
ATOM     12  C   UNL     1      36.775  -4.918  16.108  0.00  0.00    +0.000 A 
ATOM     13  C   UNL     1      35.458  -5.050  15.749  0.00  0.00    +0.000 A 
ATOM     14  C   UNL     1      34.722  -3.942  15.351  0.00  0.00    +0.000 A 
ATOM     15  C   UNL     1      35.392  -2.746  15.347  0.00  0.00    +0.000 A 
ATOM     16  C   UNL     1      36.708  -2.568  15.698  0.00  0.00    +0.000 A 
BRANCH  11  18
ATOM     17  C   UNL     1      39.902  -3.250  15.855  0.00  0.00    +0.000 C 
ATOM     18  O   UNL     1      38.703  -3.553  16.451  0.00  0.00    +0.000 OA
ENDBRANCH  11  18
ENDBRANCH   8  16
ENDBRANCH   1  10
BRANCH   5  19
ATOM     19  C   UNL     1      38.447   4.460  14.783  0.00  0.00    +0.000 C 
BRANCH  19  20
ATOM     20  C   UNL     1      38.843   4.884  16.150  0.00  0.00    +0.000 A 
ATOM     21  C   UNL     1      38.108   4.418  17.250  0.00  0.00    +0.000 A 
ATOM     22  C   UNL     1      38.558   4.838  18.477  0.00  0.00    +0.000 A 
ATOM     23  C   UNL     1      39.629   5.646  18.670  0.00  0.00    +0.000 A 
ATOM     24  C   UNL     1      40.346   6.099  17.548  0.00  0.00    +0.000 A 
ATOM     25  C   UNL     1      39.924   5.701  16.318  0.00  0.00    +0.000 A 
BRANCH  24  26
ATOM     26  O   UNL     1      41.439   6.913  17.654  0.00  0.00    +0.000 OA
BRANCH  26  27
ATOM     27  C   UNL     1      42.440   6.787  18.600  0.00  0.00    +0.000 A 
ATOM     28  C   UNL     1      43.782   6.925  18.210  0.00  0.00    +0.000 A 
ATOM     29  C   UNL     1      44.830   6.812  19.091  0.00  0.00    +0.000 A 
ATOM     30  C   UNL     1      44.557   6.555  20.395  0.00  0.00    +0.000 A 
ATOM     31  C   UNL     1      43.249   6.414  20.804  0.00  0.00    +0.000 A 
ATOM     32  C   UNL     1      42.205   6.528  19.925  0.00  0.00    +0.000 A 
ENDBRANCH  26  27
ENDBRANCH  24  26
ENDBRANCH  19  20
ENDBRANCH   5  19
TORSDOF 7
ENDMDL
MODEL 7
REMARK VINA RESULT:      -7.7      1.395      2.050
REMARK  Name = 
REMARK  7 active torsions:
REMARK  status: ('A' for Active; 'I' for Inactive)
REMARK    1  A    between atoms: O_2  and  C_3
REMARK    2  A    between atoms: C_8  and  C_9
REMARK    3  A    between atoms: N_11  and  C_12
REMARK    4  A    between atoms: N_16  and  C_17
REMARK    5  A    between atoms: C_17  and  C_18
REMARK    6  A    between atoms: C_22  and  O_23
REMARK    7  A    between atoms: O_23  and  C_24
REMARK                            x       y       z     vdW  Elec       q    Type
REMARK                         _______ _______ _______ _____ _____    ______ ____
ROOT
ATOM      1  C   UNL     1      37.787   2.327  15.341  0.00  0.00    +0.000 A 
ATOM      2  C   UNL     1      36.824   3.201  15.883  0.00  0.00    +0.000 A 
ATOM      3  C   UNL     1      35.607   2.806  16.601  0.00  0.00    +0.000 C 
ATOM      4  N   UNL     1      37.248   4.419  15.606  0.00  0.00    +0.000 NA
ATOM      5  N   UNL     1      38.378   4.437  14.945  0.00  0.00    +0.000 N 
ATOM      6  C   UNL     1      38.721   3.154  14.775  0.00  0.00    +0.000 A 
ATOM      7  C   UNL     1      39.945   2.691  14.062  0.00  0.00    +0.000 C 
ENDROOT
BRANCH   1  10
ATOM      8  C   UNL     1      36.985   0.114  14.529  0.00  0.00    +0.000 C 
ATOM      9  O   UNL     1      36.369   0.731  13.595  0.00  0.00    +0.000 OA
ATOM     10  N   UNL     1      37.711   0.910  15.412  0.00  0.00    +0.000 NA
BRANCH   8  16
ATOM     11  C   UNL     1      35.953  -1.981  15.388  0.00  0.00    +0.000 A 
ATOM     12  C   UNL     1      35.899  -3.381  15.329  0.00  0.00    +0.000 A 
ATOM     13  C   UNL     1      36.703  -4.108  14.490  0.00  0.00    +0.000 A 
ATOM     14  C   UNL     1      37.614  -3.469  13.658  0.00  0.00    +0.000 A 
ATOM     15  C   UNL     1      37.642  -2.100  13.738  0.00  0.00    +0.000 A 
ATOM     16  C   UNL     1      36.855  -1.333  14.563  0.00  0.00    +0.000 A 
BRANCH  11  18
ATOM     17  C   UNL     1      34.519  -1.457  17.391  0.00  0.00    +0.000 C 
ATOM     18  O   UNL     1      35.165  -1.280  16.193  0.00  0.00    +0.000 OA
ENDBRANCH  11  18
ENDBRANCH   8  16
ENDBRANCH   1  10
BRANCH   5  19
ATOM     19  C   UNL     1      39.058   5.676  14.506  0.00  0.00    +0.000 C 
BRANCH  19  20
ATOM     20  C   UNL     1      40.229   5.943  15.379  0.00  0.00    +0.000 A 
ATOM     21  C   UNL     1      41.490   6.128  14.794  0.00  0.00    +0.000 A 
ATOM     22  C   UNL     1      42.511   6.395  15.672  0.00  0.00    +0.000 A 
ATOM     23  C   UNL     1      42.368   6.482  17.016  0.00  0.00    +0.000 A 
ATOM     24  C   UNL     1      41.092   6.290  17.576  0.00  0.00    +0.000 A 
ATOM     25  C   UNL     1      40.060   6.023  16.732  0.00  0.00    +0.000 A 
BRANCH  24  26
ATOM     26  O   UNL     1      40.860   6.364  18.921  0.00  0.00    +0.000 OA
BRANCH  26  27
ATOM     27  C   UNL     1      40.287   7.440  19.574  0.00  0.00    +0.000 A 
ATOM     28  C   UNL     1      41.045   8.605  19.782  0.00  0.00    +0.000 A 
ATOM     29  C   UNL     1      40.546   9.713  20.422  0.00  0.00    +0.000 A 
ATOM     30  C   UNL     1      39.267   9.682  20.874  0.00  0.00    +0.000 A 
ATOM     31  C   UNL     1      38.503   8.552  20.683  0.00  0.00    +0.000 A 
ATOM     32  C   UNL     1      39.000   7.448  20.044  0.00  0.00    +0.000 A 
ENDBRANCH  26  27
ENDBRANCH  24  26
ENDBRANCH  19  20
ENDBRANCH   5  19
TORSDOF 7
ENDMDL
MODEL 8
REMARK VINA RESULT:      -7.7      3.842      9.424
REMARK  Name = 
REMARK  7 active torsions:
REMARK  status: ('A' for Active; 'I' for Inactive)
REMARK    1  A    between atoms: O_2  and  C_3
REMARK    2  A    between atoms: C_8  and  C_9
REMARK    3  A    between atoms: N_11  and  C_12
REMARK    4  A    between atoms: N_16  and  C_17
REMARK    5  A    between atoms: C_17  and  C_18
REMARK    6  A    between atoms: C_22  and  O_23
REMARK    7  A    between atoms: O_23  and  C_24
REMARK                            x       y       z     vdW  Elec       q    Type
REMARK                         _______ _______ _______ _____ _____    ______ ____
ROOT
ATOM      1  C   UNL     1      36.397   3.159  14.485  0.00  0.00    +0.000 A 
ATOM      2  C   UNL     1      37.735   2.755  14.657  0.00  0.00    +0.000 A 
ATOM      3  C   UNL     1      38.851   3.053  13.752  0.00  0.00    +0.000 C 
ATOM      4  N   UNL     1      37.760   2.065  15.781  0.00  0.00    +0.000 NA
ATOM      5  N   UNL     1      36.589   1.975  16.360  0.00  0.00    +0.000 N 
ATOM      6  C   UNL     1      35.740   2.645  15.572  0.00  0.00    +0.000 A 
ATOM      7  C   UNL     1      34.282   2.802  15.835  0.00  0.00    +0.000 C 
ENDROOT
BRANCH   1  10
ATOM      8  C   UNL     1      35.913   5.319  13.344  0.00  0.00    +0.000 C 
ATOM      9  O   UNL     1      36.371   5.915  14.377  0.00  0.00    +0.000 OA
ATOM     10  N   UNL     1      35.928   3.926  13.385  0.00  0.00    +0.000 NA
BRANCH   8  16
ATOM     11  C   UNL     1      34.330   6.986  12.389  0.00  0.00    +0.000 A 
ATOM     12  C   UNL     1      33.959   7.763  11.283  0.00  0.00    +0.000 A 
ATOM     13  C   UNL     1      34.646   7.719  10.097  0.00  0.00    +0.000 A 
ATOM     14  C   UNL     1      35.750   6.889   9.953  0.00  0.00    +0.000 A 
ATOM     15  C   UNL     1      36.088   6.143  11.053  0.00  0.00    +0.000 A 
ATOM     16  C   UNL     1      35.429   6.156  12.258  0.00  0.00    +0.000 A 
BRANCH  11  18
ATOM     17  C   UNL     1      33.587   7.872  14.627  0.00  0.00    +0.000 C 
ATOM     18  O   UNL     1      33.670   7.039  13.540  0.00  0.00    +0.000 OA
ENDBRANCH  11  18
ENDBRANCH   8  16
ENDBRANCH   1  10
BRANCH   5  19
ATOM     19  C   UNL     1      36.348   1.246  17.626  0.00  0.00    +0.000 C 
BRANCH  19  20
ATOM     20  C   UNL     1      35.964  -0.158  17.331  0.00  0.00    +0.000 A 
ATOM     21  C   UNL     1      34.611  -0.524  17.397  0.00  0.00    +0.000 A 
ATOM     22  C   UNL     1      34.342  -1.834  17.084  0.00  0.00    +0.000 A 
ATOM     23  C   UNL     1      35.276  -2.750  16.734  0.00  0.00    +0.000 A 
ATOM     24  C   UNL     1      36.625  -2.355  16.678  0.00  0.00    +0.000 A 
ATOM     25  C   UNL     1      36.924  -1.064  16.982  0.00  0.00    +0.000 A 
BRANCH  24  26
ATOM     26  O   UNL     1      37.630  -3.214  16.330  0.00  0.00    +0.000 OA
BRANCH  26  27
ATOM     27  C   UNL     1      38.514  -3.026  15.284  0.00  0.00    +0.000 A 
ATOM     28  C   UNL     1      39.884  -2.871  15.556  0.00  0.00    +0.000 A 
ATOM     29  C   UNL     1      40.822  -2.680  14.571  0.00  0.00    +0.000 A 
ATOM     30  C   UNL     1      40.409  -2.635  13.279  0.00  0.00    +0.000 A 
ATOM     31  C   UNL     1      39.071  -2.784  12.985  0.00  0.00    +0.000 A 
ATOM     32  C   UNL     1      38.136  -2.976  13.967  0.00  0.00    +0.000 A 
ENDBRANCH  26  27
ENDBRANCH  24  26
ENDBRANCH  19  20
ENDBRANCH   5  19
TORSDOF 7
ENDMDL
MODEL 9
REMARK VINA RESULT:      -7.6      2.104      2.889
REMARK  Name = 
REMARK  7 active torsions:
REMARK  status: ('A' for Active; 'I' for Inactive)
REMARK    1  A    between atoms: O_2  and  C_3
REMARK    2  A    between atoms: C_8  and  C_9
REMARK    3  A    between atoms: N_11  and  C_12
REMARK    4  A    between atoms: N_16  and  C_17
REMARK    5  A    between atoms: C_17  and  C_18
REMARK    6  A    between atoms: C_22  and  O_23
REMARK    7  A    between atoms: O_23  and  C_24
REMARK                            x       y       z     vdW  Elec       q    Type
REMARK                         _______ _______ _______ _____ _____    ______ ____
ROOT
ATOM      1  C   UNL     1      37.120   1.907  15.188  0.00  0.00    +0.000 A 
ATOM      2  C   UNL     1      36.283   2.878  15.771  0.00  0.00    +0.000 A 
ATOM      3  C   UNL     1      34.864   2.708  16.104  0.00  0.00    +0.000 C 
ATOM      4  N   UNL     1      37.038   3.946  15.944  0.00  0.00    +0.000 NA
ATOM      5  N   UNL     1      38.272   3.780  15.539  0.00  0.00    +0.000 N 
ATOM      6  C   UNL     1      38.336   2.527  15.072  0.00  0.00    +0.000 A 
ATOM      7  C   UNL     1      39.558   1.898  14.495  0.00  0.00    +0.000 C 
ENDROOT
BRANCH   1  10
ATOM      8  C   UNL     1      36.797  -0.517  15.657  0.00  0.00    +0.000 C 
ATOM      9  O   UNL     1      37.294  -0.312  16.817  0.00  0.00    +0.000 OA
ATOM     10  N   UNL     1      36.698   0.599  14.829  0.00  0.00    +0.000 NA
BRANCH   8  16
ATOM     11  C   UNL     1      37.179  -2.719  14.561  0.00  0.00    +0.000 A 
ATOM     12  C   UNL     1      36.710  -4.019  14.329  0.00  0.00    +0.000 A 
ATOM     13  C   UNL     1      35.522  -4.469  14.845  0.00  0.00    +0.000 A 
ATOM     14  C   UNL     1      34.732  -3.635  15.627  0.00  0.00    +0.000 A 
ATOM     15  C   UNL     1      35.219  -2.371  15.836  0.00  0.00    +0.000 A 
ATOM     16  C   UNL     1      36.402  -1.879  15.339  0.00  0.00    +0.000 A 
BRANCH  11  18
ATOM     17  C   UNL     1      38.843  -1.911  12.852  0.00  0.00    +0.000 C 
ATOM     18  O   UNL     1      38.335  -2.289  14.069  0.00  0.00    +0.000 OA
ENDBRANCH  11  18
ENDBRANCH   8  16
ENDBRANCH   1  10
BRANCH   5  19
ATOM     19  C   UNL     1      39.314   4.828  15.614  0.00  0.00    +0.000 C 
BRANCH  19  20
ATOM     20  C   UNL     1      39.051   5.715  16.775  0.00  0.00    +0.000 A 
ATOM     21  C   UNL     1      39.372   5.266  18.065  0.00  0.00    +0.000 A 
ATOM     22  C   UNL     1      39.120   6.158  19.077  0.00  0.00    +0.000 A 
ATOM     23  C   UNL     1      38.599   7.396  18.900  0.00  0.00    +0.000 A 
ATOM     24  C   UNL     1      38.286   7.820  17.597  0.00  0.00    +0.000 A 
ATOM     25  C   UNL     1      38.523   6.958  16.572  0.00  0.00    +0.000 A 
BRANCH  24  26
ATOM     26  O   UNL     1      37.761   9.054  17.330  0.00  0.00    +0.000 OA
BRANCH  26  27
ATOM     27  C   UNL     1      36.459   9.297  16.930  0.00  0.00    +0.000 A 
ATOM     28  C   UNL     1      36.104   9.110  15.583  0.00  0.00    +0.000 A 
ATOM     29  C   UNL     1      34.833   9.332  15.111  0.00  0.00    +0.000 A 
ATOM     30  C   UNL     1      33.880   9.752  15.981  0.00  0.00    +0.000 A 
ATOM     31  C   UNL     1      34.203   9.944  17.307  0.00  0.00    +0.000 A 
ATOM     32  C   UNL     1      35.470   9.721  17.777  0.00  0.00    +0.000 A 
ENDBRANCH  26  27
ENDBRANCH  24  26
ENDBRANCH  19  20
ENDBRANCH   5  19
TORSDOF 7
ENDMDL
MODEL 10
REMARK VINA RESULT:      -7.5      2.289      8.112
REMARK  Name = 
REMARK  7 active torsions:
REMARK  status: ('A' for Active; 'I' for Inactive)
REMARK    1  A    between atoms: O_2  and  C_3
REMARK    2  A    between atoms: C_8  and  C_9
REMARK    3  A    between atoms: N_11  and  C_12
REMARK    4  A    between atoms: N_16  and  C_17
REMARK    5  A    between atoms: C_17  and  C_18
REMARK    6  A    between atoms: C_22  and  O_23
REMARK    7  A    between atoms: O_23  and  C_24
REMARK                            x       y       z     vdW  Elec       q    Type
REMARK                         _______ _______ _______ _____ _____    ______ ____
ROOT
ATOM      1  C   UNL     1      36.694   3.446  14.655  0.00  0.00    +0.000 A 
ATOM      2  C   UNL     1      35.491   2.731  14.813  0.00  0.00    +0.000 A 
ATOM      3  C   UNL     1      34.421   3.040  15.769  0.00  0.00    +0.000 C 
ATOM      4  N   UNL     1      35.540   1.747  13.935  0.00  0.00    +0.000 NA
ATOM      5  N   UNL     1      36.639   1.741  13.225  0.00  0.00    +0.000 N 
ATOM      6  C   UNL     1      37.359   2.784  13.658  0.00  0.00    +0.000 A 
ATOM      7  C   UNL     1      38.702   3.164  13.134  0.00  0.00    +0.000 C 
ENDROOT
BRANCH   1  10
ATOM      8  C   UNL     1      38.009   4.596  16.430  0.00  0.00    +0.000 C 
ATOM      9  O   UNL     1      38.599   3.484  16.650  0.00  0.00    +0.000 OA
ATOM     10  N   UNL     1      37.050   4.590  15.419  0.00  0.00    +0.000 NA
BRANCH   8  16
ATOM     11  C   UNL     1      38.262   7.038  16.839  0.00  0.00    +0.000 A 
ATOM     12  C   UNL     1      38.658   8.052  17.721  0.00  0.00    +0.000 A 
ATOM     13  C   UNL     1      39.169   7.780  18.964  0.00  0.00    +0.000 A 
ATOM     14  C   UNL     1      39.315   6.467  19.394  0.00  0.00    +0.000 A 
ATOM     15  C   UNL     1      38.918   5.499  18.509  0.00  0.00    +0.000 A 
ATOM     16  C   UNL     1      38.401   5.726  17.256  0.00  0.00    +0.000 A 
BRANCH  11  18
ATOM     17  C   UNL     1      38.205   7.763  14.427  0.00  0.00    +0.000 C 
ATOM     18  O   UNL     1      37.757   7.305  15.641  0.00  0.00    +0.000 OA
ENDBRANCH  11  18
ENDBRANCH   8  16
ENDBRANCH   1  10
BRANCH   5  19
ATOM     19  C   UNL     1      36.942   0.736  12.181  0.00  0.00    +0.000 C 
BRANCH  19  20
ATOM     20  C   UNL     1      37.611  -0.439  12.795  0.00  0.00    +0.000 A 
ATOM     21  C   UNL     1      38.815  -0.904  12.246  0.00  0.00    +0.000 A 
ATOM     22  C   UNL     1      39.379  -1.978  12.890  0.00  0.00    +0.000 A 
ATOM     23  C   UNL     1      38.852  -2.584  13.981  0.00  0.00    +0.000 A 
ATOM     24  C   UNL     1      37.643  -2.097  14.510  0.00  0.00    +0.000 A 
ATOM     25  C   UNL     1      37.060  -1.035  13.893  0.00  0.00    +0.000 A 
BRANCH  24  26
ATOM     26  O   UNL     1      37.046  -2.648  15.609  0.00  0.00    +0.000 OA
BRANCH  26  27
ATOM     27  C   UNL     1      36.764  -1.976  16.785  0.00  0.00    +0.000 A 
ATOM     28  C   UNL     1      35.535  -1.309  16.921  0.00  0.00    +0.000 A 
ATOM     29  C   UNL     1      35.184  -0.620  18.057  0.00  0.00    +0.000 A 
ATOM     30  C   UNL     1      36.062  -0.581  19.091  0.00  0.00    +0.000 A 
ATOM     31  C   UNL     1      37.274  -1.226  18.982  0.00  0.00    +0.000 A 
ATOM     32  C   UNL     1      37.623  -1.913  17.850  0.00  0.00    +0.000 A 
ENDBRANCH  26  27
ENDBRANCH  24  26
ENDBRANCH  19  20
ENDBRANCH   5  19
TORSDOF 7
ENDMDL
