MODEL 1
REMARK VINA RESULT:      -7.8      0.000      0.000
REMARK  Name = 
REMARK  3 active torsions:
REMARK  status: ('A' for Active; 'I' for Inactive)
REMARK    1  A    between atoms: C_2  and  C_3
REMARK    2  A    between atoms: N_5  and  C_6
REMARK    3  A    between atoms: C_9  and  N_10
REMARK                            x       y       z     vdW  Elec       q    Type
REMARK                         _______ _______ _______ _____ _____    ______ ____
ROOT
ATOM      1  C   UNL     1      14.024  13.740  33.834  0.00  0.00    +0.000 A 
ATOM      2  N   UNL     1      14.535  13.365  35.015  0.00  0.00    +0.000 NA
ATOM      3  N   UNL     1      15.195  12.231  34.927  0.00  0.00    +0.000 N 
ATOM      4  C   UNL     1      15.112  11.851  33.641  0.00  0.00    +0.000 A 
ATOM      5  C   UNL     1      14.383  12.768  32.903  0.00  0.00    +0.000 A 
ATOM      6  C   UNL     1      13.997  12.838  31.483  0.00  0.00    +0.000 C 
ATOM      7  C   UNL     1      14.653  11.796  30.641  0.00  0.00    +0.000 C 
ATOM      8  C   UNL     1      16.114  11.570  30.961  0.00  0.00    +0.000 C 
ATOM      9  C   UNL     1      16.239  10.340  31.845  0.00  0.00    +0.000 C 
ATOM     10  N   UNL     1      15.711  10.658  33.155  0.00  0.00    +0.000 NA
ENDROOT
BRANCH   3  11
ATOM     11  C   UNL     1      15.860  11.547  35.985  0.00  0.00    +0.000 A 
ATOM     12  C   UNL     1      15.237  11.343  37.198  0.00  0.00    +0.000 A 
ATOM     13  C   UNL     1      15.871  10.678  38.243  0.00  0.00    +0.000 A 
ATOM     14  C   UNL     1      17.154  10.194  38.105  0.00  0.00    +0.000 A 
ATOM     15  C   UNL     1      17.778  10.397  36.892  0.00  0.00    +0.000 A 
ATOM     16  C   UNL     1      17.141  11.060  35.856  0.00  0.00    +0.000 A 
BRANCH  14  17
ATOM     17  N   UNL     1      17.823   9.508  39.160  0.00  0.00    +0.000 N 
ATOM     18  O   UNL     1      17.454   9.568  40.346  0.00  0.00    +0.000 OA
ATOM     19  O   UNL     1      18.925   8.743  38.881  0.00  0.00    +0.000 OA
ENDBRANCH  14  17
ENDBRANCH   3  11
BRANCH   1  21
ATOM     20  C   UNL     1      12.584  15.568  34.704  0.00  0.00    +0.000 C 
ATOM     21  C   UNL     1      13.222  14.940  33.498  0.00  0.00    +0.000 C 
ENDBRANCH   1  21
TORSDOF 3
ENDMDL
MODEL 2
REMARK VINA RESULT:      -6.5      3.670      7.438
REMARK  Name = 
REMARK  3 active torsions:
REMARK  status: ('A' for Active; 'I' for Inactive)
REMARK    1  A    between atoms: C_2  and  C_3
REMARK    2  A    between atoms: N_5  and  C_6
REMARK    3  A    between atoms: C_9  and  N_10
REMARK                            x       y       z     vdW  Elec       q    Type
REMARK                         _______ _______ _______ _____ _____    ______ ____
ROOT
ATOM      1  C   UNL     1      17.820   9.670  40.071  0.00  0.00    +0.000 A 
ATOM      2  N   UNL     1      17.120   9.757  38.932  0.00  0.00    +0.000 NA
ATOM      3  N   UNL     1      17.827  10.294  37.962  0.00  0.00    +0.000 N 
ATOM      4  C   UNL     1      19.033  10.568  38.486  0.00  0.00    +0.000 A 
ATOM      5  C   UNL     1      19.086  10.194  39.819  0.00  0.00    +0.000 A 
ATOM      6  C   UNL     1      20.141  10.268  40.844  0.00  0.00    +0.000 C 
ATOM      7  C   UNL     1      21.466  10.683  40.298  0.00  0.00    +0.000 C 
ATOM      8  C   UNL     1      21.817  10.046  38.973  0.00  0.00    +0.000 C 
ATOM      9  C   UNL     1      21.516  11.033  37.857  0.00  0.00    +0.000 C 
ATOM     10  N   UNL     1      20.080  11.163  37.732  0.00  0.00    +0.000 NA
ENDROOT
BRANCH   3  11
ATOM     11  C   UNL     1      17.396  10.535  36.626  0.00  0.00    +0.000 A 
ATOM     12  C   UNL     1      16.558  11.590  36.332  0.00  0.00    +0.000 A 
ATOM     13  C   UNL     1      16.125  11.842  35.033  0.00  0.00    +0.000 A 
ATOM     14  C   UNL     1      16.520  11.042  33.984  0.00  0.00    +0.000 A 
ATOM     15  C   UNL     1      17.359   9.986  34.276  0.00  0.00    +0.000 A 
ATOM     16  C   UNL     1      17.786   9.742  35.571  0.00  0.00    +0.000 A 
BRANCH  14  17
ATOM     17  N   UNL     1      16.092  11.280  32.645  0.00  0.00    +0.000 N 
ATOM     18  O   UNL     1      15.455  12.293  32.311  0.00  0.00    +0.000 OA
ATOM     19  O   UNL     1      16.385  10.367  31.666  0.00  0.00    +0.000 OA
ENDBRANCH  14  17
ENDBRANCH   3  11
BRANCH   1  21
ATOM     20  C   UNL     1      15.950   9.377  41.681  0.00  0.00    +0.000 C 
ATOM     21  C   UNL     1      17.403   9.133  41.389  0.00  0.00    +0.000 C 
ENDBRANCH   1  21
TORSDOF 3
ENDMDL
MODEL 3
REMARK VINA RESULT:      -6.5     19.352     20.945
REMARK  Name = 
REMARK  3 active torsions:
REMARK  status: ('A' for Active; 'I' for Inactive)
REMARK    1  A    between atoms: C_2  and  C_3
REMARK    2  A    between atoms: N_5  and  C_6
REMARK    3  A    between atoms: C_9  and  N_10
REMARK                            x       y       z     vdW  Elec       q    Type
REMARK                         _______ _______ _______ _____ _____    ______ ____
ROOT
ATOM      1  C   UNL     1      30.109  22.741  28.974  0.00  0.00    +0.000 A 
ATOM      2  N   UNL     1      30.371  23.054  27.698  0.00  0.00    +0.000 NA
ATOM      3  N   UNL     1      29.280  23.370  27.036  0.00  0.00    +0.000 N 
ATOM      4  C   UNL     1      28.267  23.259  27.912  0.00  0.00    +0.000 A 
ATOM      5  C   UNL     1      28.733  22.864  29.155  0.00  0.00    +0.000 A 
ATOM      6  C   UNL     1      28.067  22.598  30.442  0.00  0.00    +0.000 C 
ATOM      7  C   UNL     1      26.626  22.981  30.450  0.00  0.00    +0.000 C 
ATOM      8  C   UNL     1      26.329  24.296  29.765  0.00  0.00    +0.000 C 
ATOM      9  C   UNL     1      25.817  24.015  28.362  0.00  0.00    +0.000 C 
ATOM     10  N   UNL     1      26.916  23.523  27.560  0.00  0.00    +0.000 NA
ENDROOT
BRANCH   3  11
ATOM     11  C   UNL     1      29.194  23.751  25.666  0.00  0.00    +0.000 A 
ATOM     12  C   UNL     1      29.291  25.075  25.292  0.00  0.00    +0.000 A 
ATOM     13  C   UNL     1      29.208  25.466  23.959  0.00  0.00    +0.000 A 
ATOM     14  C   UNL     1      29.026  24.540  22.955  0.00  0.00    +0.000 A 
ATOM     15  C   UNL     1      28.928  23.216  23.328  0.00  0.00    +0.000 A 
ATOM     16  C   UNL     1      29.012  22.833  24.656  0.00  0.00    +0.000 A 
BRANCH  14  17
ATOM     17  N   UNL     1      28.940  24.916  21.583  0.00  0.00    +0.000 N 
ATOM     18  O   UNL     1      29.749  24.526  20.724  0.00  0.00    +0.000 OA
ATOM     19  O   UNL     1      27.930  25.743  21.167  0.00  0.00    +0.000 OA
ENDBRANCH  14  17
ENDBRANCH   3  11
BRANCH   1  21
ATOM     20  C   UNL     1      32.262  21.630  29.525  0.00  0.00    +0.000 C 
ATOM     21  C   UNL     1      31.043  22.333  30.051  0.00  0.00    +0.000 C 
ENDBRANCH   1  21
TORSDOF 3
ENDMDL
MODEL 4
REMARK VINA RESULT:      -6.3     19.414     20.890
REMARK  Name = 
REMARK  3 active torsions:
REMARK  status: ('A' for Active; 'I' for Inactive)
REMARK    1  A    between atoms: C_2  and  C_3
REMARK    2  A    between atoms: N_5  and  C_6
REMARK    3  A    between atoms: C_9  and  N_10
REMARK                            x       y       z     vdW  Elec       q    Type
REMARK                         _______ _______ _______ _____ _____    ______ ____
ROOT
ATOM      1  C   UNL     1      27.625  23.203  29.179  0.00  0.00    +0.000 A 
ATOM      2  N   UNL     1      27.360  23.465  27.892  0.00  0.00    +0.000 NA
ATOM      3  N   UNL     1      28.458  23.655  27.194  0.00  0.00    +0.000 N 
ATOM      4  C   UNL     1      29.478  23.513  28.056  0.00  0.00    +0.000 A 
ATOM      5  C   UNL     1      29.010  23.225  29.328  0.00  0.00    +0.000 A 
ATOM      6  C   UNL     1      29.682  22.978  30.616  0.00  0.00    +0.000 C 
ATOM      7  C   UNL     1      31.164  22.861  30.495  0.00  0.00    +0.000 C 
ATOM      8  C   UNL     1      31.627  22.062  29.297  0.00  0.00    +0.000 C 
ATOM      9  C   UNL     1      32.032  23.023  28.192  0.00  0.00    +0.000 C 
ATOM     10  N   UNL     1      30.837  23.649  27.666  0.00  0.00    +0.000 NA
ENDROOT
BRANCH   3  11
ATOM     11  C   UNL     1      28.543  23.955  25.804  0.00  0.00    +0.000 A 
ATOM     12  C   UNL     1      28.270  25.222  25.335  0.00  0.00    +0.000 A 
ATOM     13  C   UNL     1      28.347  25.534  23.980  0.00  0.00    +0.000 A 
ATOM     14  C   UNL     1      28.702  24.581  23.050  0.00  0.00    +0.000 A 
ATOM     15  C   UNL     1      28.975  23.313  23.518  0.00  0.00    +0.000 A 
ATOM     16  C   UNL     1      28.897  23.010  24.867  0.00  0.00    +0.000 A 
BRANCH  14  17
ATOM     17  N   UNL     1      28.789  24.876  21.658  0.00  0.00    +0.000 N 
ATOM     18  O   UNL     1      28.076  25.729  21.103  0.00  0.00    +0.000 OA
ATOM     19  O   UNL     1      29.692  24.204  20.877  0.00  0.00    +0.000 OA
ENDBRANCH  14  17
ENDBRANCH   3  11
BRANCH   1  21
ATOM     20  C   UNL     1      26.365  21.468  30.434  0.00  0.00    +0.000 C 
ATOM     21  C   UNL     1      26.686  22.929  30.293  0.00  0.00    +0.000 C 
ENDBRANCH   1  21
TORSDOF 3
ENDMDL
MODEL 5
REMARK VINA RESULT:      -6.3     19.720     21.263
REMARK  Name = 
REMARK  3 active torsions:
REMARK  status: ('A' for Active; 'I' for Inactive)
REMARK    1  A    between atoms: C_2  and  C_3
REMARK    2  A    between atoms: N_5  and  C_6
REMARK    3  A    between atoms: C_9  and  N_10
REMARK                            x       y       z     vdW  Elec       q    Type
REMARK                         _______ _______ _______ _____ _____    ______ ____
ROOT
ATOM      1  C   UNL     1      33.643   1.814  34.302  0.00  0.00    +0.000 A 
ATOM      2  N   UNL     1      34.010   3.092  34.133  0.00  0.00    +0.000 NA
ATOM      3  N   UNL     1      34.312   3.671  35.274  0.00  0.00    +0.000 N 
ATOM      4  C   UNL     1      34.137   2.737  36.224  0.00  0.00    +0.000 A 
ATOM      5  C   UNL     1      33.714   1.542  35.666  0.00  0.00    +0.000 A 
ATOM      6  C   UNL     1      33.381   0.226  36.239  0.00  0.00    +0.000 C 
ATOM      7  C   UNL     1      33.715   0.112  37.688  0.00  0.00    +0.000 C 
ATOM      8  C   UNL     1      35.043   0.727  38.069  0.00  0.00    +0.000 C 
ATOM      9  C   UNL     1      34.795   2.104  38.662  0.00  0.00    +0.000 C 
ATOM     10  N   UNL     1      34.368   2.993  37.602  0.00  0.00    +0.000 NA
ENDROOT
BRANCH   3  11
ATOM     11  C   UNL     1      34.738   5.017  35.461  0.00  0.00    +0.000 A 
ATOM     12  C   UNL     1      33.821   6.030  35.648  0.00  0.00    +0.000 A 
ATOM     13  C   UNL     1      34.218   7.352  35.832  0.00  0.00    +0.000 A 
ATOM     14  C   UNL     1      35.551   7.701  35.833  0.00  0.00    +0.000 A 
ATOM     15  C   UNL     1      36.469   6.689  35.646  0.00  0.00    +0.000 A 
ATOM     16  C   UNL     1      36.067   5.376  35.465  0.00  0.00    +0.000 A 
BRANCH  14  17
ATOM     17  N   UNL     1      35.982   9.047  36.020  0.00  0.00    +0.000 N 
ATOM     18  O   UNL     1      36.059   9.867  35.089  0.00  0.00    +0.000 OA
ATOM     19  O   UNL     1      36.331   9.480  37.272  0.00  0.00    +0.000 OA
ENDBRANCH  14  17
ENDBRANCH   3  11
BRANCH   1  21
ATOM     20  C   UNL     1      34.370   0.360  32.424  0.00  0.00    +0.000 C 
ATOM     21  C   UNL     1      33.229   0.816  33.287  0.00  0.00    +0.000 C 
ENDBRANCH   1  21
TORSDOF 3
ENDMDL
MODEL 6
REMARK VINA RESULT:      -6.2     19.092     21.559
REMARK  Name = 
REMARK  3 active torsions:
REMARK  status: ('A' for Active; 'I' for Inactive)
REMARK    1  A    between atoms: C_2  and  C_3
REMARK    2  A    between atoms: N_5  and  C_6
REMARK    3  A    between atoms: C_9  and  N_10
REMARK                            x       y       z     vdW  Elec       q    Type
REMARK                         _______ _______ _______ _____ _____    ______ ____
ROOT
ATOM      1  C   UNL     1      33.866   3.568  34.828  0.00  0.00    +0.000 A 
ATOM      2  N   UNL     1      33.490   2.406  34.277  0.00  0.00    +0.000 NA
ATOM      3  N   UNL     1      33.671   1.394  35.097  0.00  0.00    +0.000 N 
ATOM      4  C   UNL     1      34.185   1.913  36.224  0.00  0.00    +0.000 A 
ATOM      5  C   UNL     1      34.330   3.286  36.112  0.00  0.00    +0.000 A 
ATOM      6  C   UNL     1      34.832   4.324  37.028  0.00  0.00    +0.000 C 
ATOM      7  C   UNL     1      35.090   3.818  38.407  0.00  0.00    +0.000 C 
ATOM      8  C   UNL     1      34.031   2.873  38.930  0.00  0.00    +0.000 C 
ATOM      9  C   UNL     1      34.522   1.444  38.763  0.00  0.00    +0.000 C 
ATOM     10  N   UNL     1      34.518   1.117  37.353  0.00  0.00    +0.000 NA
ENDROOT
BRANCH   3  11
ATOM     11  C   UNL     1      33.382   0.023  34.836  0.00  0.00    +0.000 A 
ATOM     12  C   UNL     1      32.338  -0.613  35.473  0.00  0.00    +0.000 A 
ATOM     13  C   UNL     1      32.040  -1.951  35.232  0.00  0.00    +0.000 A 
ATOM     14  C   UNL     1      32.781  -2.696  34.341  0.00  0.00    +0.000 A 
ATOM     15  C   UNL     1      33.826  -2.060  33.703  0.00  0.00    +0.000 A 
ATOM     16  C   UNL     1      34.116  -0.728  33.947  0.00  0.00    +0.000 A 
BRANCH  14  17
ATOM     17  N   UNL     1      32.495  -4.067  34.076  0.00  0.00    +0.000 N 
ATOM     18  O   UNL     1      32.932  -4.667  33.079  0.00  0.00    +0.000 OA
ATOM     19  O   UNL     1      31.706  -4.776  34.943  0.00  0.00    +0.000 OA
ENDBRANCH  14  17
ENDBRANCH   3  11
BRANCH   1  21
ATOM     20  C   UNL     1      32.434   5.384  33.920  0.00  0.00    +0.000 C 
ATOM     21  C   UNL     1      33.828   4.934  34.253  0.00  0.00    +0.000 C 
ENDBRANCH   1  21
TORSDOF 3
ENDMDL
MODEL 7
REMARK VINA RESULT:      -6.2     19.196     21.064
REMARK  Name = 
REMARK  3 active torsions:
REMARK  status: ('A' for Active; 'I' for Inactive)
REMARK    1  A    between atoms: C_2  and  C_3
REMARK    2  A    between atoms: N_5  and  C_6
REMARK    3  A    between atoms: C_9  and  N_10
REMARK                            x       y       z     vdW  Elec       q    Type
REMARK                         _______ _______ _______ _____ _____    ______ ____
ROOT
ATOM      1  C   UNL     1      34.704   8.015  36.435  0.00  0.00    +0.000 A 
ATOM      2  N   UNL     1      34.026   6.995  35.890  0.00  0.00    +0.000 NA
ATOM      3  N   UNL     1      34.762   5.909  35.803  0.00  0.00    +0.000 N 
ATOM      4  C   UNL     1      35.964   6.229  36.309  0.00  0.00    +0.000 A 
ATOM      5  C   UNL     1      35.986   7.550  36.725  0.00  0.00    +0.000 A 
ATOM      6  C   UNL     1      37.024   8.396  37.338  0.00  0.00    +0.000 C 
ATOM      7  C   UNL     1      38.246   7.636  37.732  0.00  0.00    +0.000 C 
ATOM      8  C   UNL     1      37.963   6.296  38.373  0.00  0.00    +0.000 C 
ATOM      9  C   UNL     1      38.130   5.206  37.328  0.00  0.00    +0.000 C 
ATOM     10  N   UNL     1      37.036   5.301  36.384  0.00  0.00    +0.000 NA
ENDROOT
BRANCH   3  11
ATOM     11  C   UNL     1      34.360   4.648  35.275  0.00  0.00    +0.000 A 
ATOM     12  C   UNL     1      34.015   4.513  33.947  0.00  0.00    +0.000 A 
ATOM     13  C   UNL     1      33.620   3.290  33.414  0.00  0.00    +0.000 A 
ATOM     14  C   UNL     1      33.557   2.159  34.197  0.00  0.00    +0.000 A 
ATOM     15  C   UNL     1      33.901   2.292  35.526  0.00  0.00    +0.000 A 
ATOM     16  C   UNL     1      34.295   3.512  36.050  0.00  0.00    +0.000 A 
BRANCH  14  17
ATOM     17  N   UNL     1      33.156   0.895  33.674  0.00  0.00    +0.000 N 
ATOM     18  O   UNL     1      32.150   0.286  34.076  0.00  0.00    +0.000 OA
ATOM     19  O   UNL     1      33.896   0.305  32.682  0.00  0.00    +0.000 OA
ENDBRANCH  14  17
ENDBRANCH   3  11
BRANCH   1  21
ATOM     20  C   UNL     1      34.448  10.318  35.540  0.00  0.00    +0.000 C 
ATOM     21  C   UNL     1      34.253   9.400  36.712  0.00  0.00    +0.000 C 
ENDBRANCH   1  21
TORSDOF 3
ENDMDL
MODEL 8
REMARK VINA RESULT:      -6.2      2.262      2.873
REMARK  Name = 
REMARK  3 active torsions:
REMARK  status: ('A' for Active; 'I' for Inactive)
REMARK    1  A    between atoms: C_2  and  C_3
REMARK    2  A    between atoms: N_5  and  C_6
REMARK    3  A    between atoms: C_9  and  N_10
REMARK                            x       y       z     vdW  Elec       q    Type
REMARK                         _______ _______ _______ _____ _____    ______ ____
ROOT
ATOM      1  C   UNL     1      14.618  12.299  36.307  0.00  0.00    +0.000 A 
ATOM      2  N   UNL     1      15.420  12.105  37.363  0.00  0.00    +0.000 NA
ATOM      3  N   UNL     1      16.449  11.344  37.064  0.00  0.00    +0.000 N 
ATOM      4  C   UNL     1      16.315  11.028  35.765  0.00  0.00    +0.000 A 
ATOM      5  C   UNL     1      15.174  11.605  35.234  0.00  0.00    +0.000 A 
ATOM      6  C   UNL     1      14.566  11.584  33.892  0.00  0.00    +0.000 C 
ATOM      7  C   UNL     1      15.433  10.943  32.862  0.00  0.00    +0.000 C 
ATOM      8  C   UNL     1      16.895  11.314  32.964  0.00  0.00    +0.000 C 
ATOM      9  C   UNL     1      17.637  10.198  33.681  0.00  0.00    +0.000 C 
ATOM     10  N   UNL     1      17.248  10.208  35.075  0.00  0.00    +0.000 NA
ENDROOT
BRANCH   3  11
ATOM     11  C   UNL     1      17.493  10.937  37.944  0.00  0.00    +0.000 A 
ATOM     12  C   UNL     1      17.300   9.911  38.845  0.00  0.00    +0.000 A 
ATOM     13  C   UNL     1      18.307   9.500  39.713  0.00  0.00    +0.000 A 
ATOM     14  C   UNL     1      19.545  10.106  39.705  0.00  0.00    +0.000 A 
ATOM     15  C   UNL     1      19.740  11.131  38.804  0.00  0.00    +0.000 A 
ATOM     16  C   UNL     1      18.733  11.535  37.943  0.00  0.00    +0.000 A 
BRANCH  14  17
ATOM     17  N   UNL     1      20.592   9.701  40.583  0.00  0.00    +0.000 N 
ATOM     18  O   UNL     1      20.434   9.575  41.810  0.00  0.00    +0.000 OA
ATOM     19  O   UNL     1      21.837   9.435  40.077  0.00  0.00    +0.000 OA
ENDBRANCH  14  17
ENDBRANCH   3  11
BRANCH   1  21
ATOM     20  C   UNL     1      12.189  12.376  36.822  0.00  0.00    +0.000 C 
ATOM     21  C   UNL     1      13.365  13.085  36.213  0.00  0.00    +0.000 C 
ENDBRANCH   1  21
TORSDOF 3
ENDMDL
MODEL 9
REMARK VINA RESULT:      -6.2      3.779      8.037
REMARK  Name = 
REMARK  3 active torsions:
REMARK  status: ('A' for Active; 'I' for Inactive)
REMARK    1  A    between atoms: C_2  and  C_3
REMARK    2  A    between atoms: N_5  and  C_6
REMARK    3  A    between atoms: C_9  and  N_10
REMARK                            x       y       z     vdW  Elec       q    Type
REMARK                         _______ _______ _______ _____ _____    ______ ____
ROOT
ATOM      1  C   UNL     1      21.214   9.592  38.212  0.00  0.00    +0.000 A 
ATOM      2  N   UNL     1      20.560  10.035  37.130  0.00  0.00    +0.000 NA
ATOM      3  N   UNL     1      19.256   9.940  37.272  0.00  0.00    +0.000 N 
ATOM      4  C   UNL     1      19.050   9.416  38.491  0.00  0.00    +0.000 A 
ATOM      5  C   UNL     1      20.254   9.176  39.133  0.00  0.00    +0.000 A 
ATOM      6  C   UNL     1      20.598   8.623  40.454  0.00  0.00    +0.000 C 
ATOM      7  C   UNL     1      19.413   8.429  41.339  0.00  0.00    +0.000 C 
ATOM      8  C   UNL     1      18.411   9.561  41.290  0.00  0.00    +0.000 C 
ATOM      9  C   UNL     1      17.267   9.165  40.372  0.00  0.00    +0.000 C 
ATOM     10  N   UNL     1      17.751   9.162  39.008  0.00  0.00    +0.000 NA
ENDROOT
BRANCH   3  11
ATOM     11  C   UNL     1      18.265  10.317  36.320  0.00  0.00    +0.000 A 
ATOM     12  C   UNL     1      18.037   9.552  35.195  0.00  0.00    +0.000 A 
ATOM     13  C   UNL     1      17.074   9.904  34.254  0.00  0.00    +0.000 A 
ATOM     14  C   UNL     1      16.306  11.037  34.410  0.00  0.00    +0.000 A 
ATOM     15  C   UNL     1      16.533  11.803  35.535  0.00  0.00    +0.000 A 
ATOM     16  C   UNL     1      17.493  11.446  36.468  0.00  0.00    +0.000 A 
BRANCH  14  17
ATOM     17  N   UNL     1      15.314  11.418  33.461  0.00  0.00    +0.000 N 
ATOM     18  O   UNL     1      14.797  12.548  33.441  0.00  0.00    +0.000 OA
ATOM     19  O   UNL     1      14.893  10.516  32.520  0.00  0.00    +0.000 OA
ENDBRANCH  14  17
ENDBRANCH   3  11
BRANCH   1  21
ATOM     20  C   UNL     1      23.459   9.183  37.231  0.00  0.00    +0.000 C 
ATOM     21  C   UNL     1      22.673   9.525  38.464  0.00  0.00    +0.000 C 
ENDBRANCH   1  21
TORSDOF 3
ENDMDL
MODEL 10
REMARK VINA RESULT:      -6.1     18.122     19.344
REMARK  Name = 
REMARK  3 active torsions:
REMARK  status: ('A' for Active; 'I' for Inactive)
REMARK    1  A    between atoms: C_2  and  C_3
REMARK    2  A    between atoms: N_5  and  C_6
REMARK    3  A    between atoms: C_9  and  N_10
REMARK                            x       y       z     vdW  Elec       q    Type
REMARK                         _______ _______ _______ _____ _____    ______ ____
ROOT
ATOM      1  C   UNL     1      29.521  22.994  25.396  0.00  0.00    +0.000 A 
ATOM      2  N   UNL     1      29.273  23.220  26.694  0.00  0.00    +0.000 NA
ATOM      3  N   UNL     1      28.108  23.802  26.876  0.00  0.00    +0.000 N 
ATOM      4  C   UNL     1      27.575  23.962  25.654  0.00  0.00    +0.000 A 
ATOM      5  C   UNL     1      28.425  23.469  24.678  0.00  0.00    +0.000 A 
ATOM      6  C   UNL     1      28.336  23.393  23.210  0.00  0.00    +0.000 C 
ATOM      7  C   UNL     1      26.998  23.783  22.679  0.00  0.00    +0.000 C 
ATOM      8  C   UNL     1      25.833  23.248  23.481  0.00  0.00    +0.000 C 
ATOM      9  C   UNL     1      25.324  24.345  24.402  0.00  0.00    +0.000 C 
ATOM     10  N   UNL     1      26.305  24.564  25.444  0.00  0.00    +0.000 NA
ENDROOT
BRANCH   3  11
ATOM     11  C   UNL     1      27.532  24.185  28.122  0.00  0.00    +0.000 A 
ATOM     12  C   UNL     1      26.594  23.388  28.743  0.00  0.00    +0.000 A 
ATOM     13  C   UNL     1      26.020  23.745  29.960  0.00  0.00    +0.000 A 
ATOM     14  C   UNL     1      26.370  24.917  30.595  0.00  0.00    +0.000 A 
ATOM     15  C   UNL     1      27.308  25.715  29.974  0.00  0.00    +0.000 A 
ATOM     16  C   UNL     1      27.876  25.353  28.764  0.00  0.00    +0.000 A 
BRANCH  14  17
ATOM     17  N   UNL     1      25.797  25.304  31.841  0.00  0.00    +0.000 N 
ATOM     18  O   UNL     1      26.422  25.256  32.915  0.00  0.00    +0.000 OA
ATOM     19  O   UNL     1      24.503  25.753  31.885  0.00  0.00    +0.000 OA
ENDBRANCH  14  17
ENDBRANCH   3  11
BRANCH   1  21
ATOM     20  C   UNL     1      31.820  23.341  24.523  0.00  0.00    +0.000 C 
ATOM     21  C   UNL     1      30.704  22.365  24.763  0.00  0.00    +0.000 C 
ENDBRANCH   1  21
TORSDOF 3
ENDMDL
