MODEL 1
REMARK VINA RESULT:      -7.0      0.000      0.000
REMARK  Name = 
REMARK  9 active torsions:
REMARK  status: ('A' for Active; 'I' for Inactive)
REMARK    1  A    between atoms: C_2  and  C_3
REMARK    2  A    between atoms: C_3  and  C_5
REMARK    3  A    between atoms: C_5  and  O_6
REMARK    4  A    between atoms: O_6  and  C_7
REMARK    5  A    between atoms: C_7  and  C_9
REMARK    6  A    between atoms: N_12  and  C_13
REMARK    7  A    between atoms: C_13  and  C_14
REMARK    8  A    between atoms: C_14  and  C_15
REMARK    9  A    between atoms: C_18  and  O_19
REMARK                            x       y       z     vdW  Elec       q    Type
REMARK                         _______ _______ _______ _____ _____    ______ ____
ROOT
ATOM      1  C   UNL     1      36.717   2.653  15.884  0.00  0.00    +0.000 A 
ATOM      2  C   UNL     1      36.847   2.488  14.516  0.00  0.00    +0.000 A 
ATOM      3  N   UNL     1      36.076   1.645  13.679  0.00  0.00    +0.000 NA
ATOM      4  N   UNL     1      37.860   3.281  14.068  0.00  0.00    +0.000 N 
ATOM      5  C   UNL     1      38.396   3.959  15.099  0.00  0.00    +0.000 A 
ATOM      6  N   UNL     1      39.389   4.855  15.248  0.00  0.00    +0.000 NA
ATOM      7  C   UNL     1      39.703   5.379  16.467  0.00  0.00    +0.000 A 
ATOM      8  C   UNL     1      40.708   6.291  16.642  0.00  0.00    +0.000 A 
ATOM      9  C   UNL     1      41.010   6.808  17.888  0.00  0.00    +0.000 A 
ATOM     10  C   UNL     1      40.286   6.400  18.985  0.00  0.00    +0.000 A 
ATOM     11  C   UNL     1      39.275   5.486  18.826  0.00  0.00    +0.000 A 
ATOM     12  C   UNL     1      38.989   4.981  17.578  0.00  0.00    +0.000 A 
ATOM     13  N   UNL     1      37.995   4.082  17.425  0.00  0.00    +0.000 NA
ATOM     14  C   UNL     1      37.680   3.565  16.234  0.00  0.00    +0.000 A 
ENDROOT
BRANCH   1  15
ATOM     15  C   UNL     1      35.751   1.987  16.748  0.00  0.00    +0.000 C 
ATOM     16  O   UNL     1      34.515   2.137  16.631  0.00  0.00    +0.000 OA
BRANCH  15  17
ATOM     17  O   UNL     1      36.236   1.148  17.742  0.00  0.00    +0.000 OA
BRANCH  17  18
ATOM     18  C   UNL     1      35.992  -0.217  17.706  0.00  0.00    +0.000 C 
BRANCH  18  19
ATOM     19  C   UNL     1      36.967  -0.780  16.523  0.00  0.00    +0.000 C 
ATOM     20  C   UNL     1      37.579  -1.963  17.534  0.00  0.00    +0.000 C 
BRANCH  19  22
ATOM     21  C   UNL     1      34.733  -1.900  16.890  0.00  0.00    +0.000 C 
ATOM     22  C   UNL     1      35.850  -1.791  15.890  0.00  0.00    +0.000 C 
ENDBRANCH  19  22
ENDBRANCH  18  19
ENDBRANCH  17  18
ENDBRANCH  15  17
ENDBRANCH   1  15
BRANCH   4  23
ATOM     23  C   UNL     1      38.324   3.406  12.700  0.00  0.00    +0.000 C 
BRANCH  23  24
ATOM     24  C   UNL     1      39.697   2.740  12.641  0.00  0.00    +0.000 C 
BRANCH  24  25
ATOM     25  C   UNL     1      39.656   1.343  13.090  0.00  0.00    +0.000 A 
ATOM     26  C   UNL     1      39.034   0.371  12.317  0.00  0.00    +0.000 A 
ATOM     27  C   UNL     1      38.995  -0.942  12.738  0.00  0.00    +0.000 A 
ATOM     28  C   UNL     1      39.563  -1.343  13.927  0.00  0.00    +0.000 A 
ATOM     29  C   UNL     1      40.180  -0.374  14.693  0.00  0.00    +0.000 A 
ATOM     30  C   UNL     1      40.224   0.942  14.278  0.00  0.00    +0.000 A 
BRANCH  28  31
ATOM     31  O   UNL     1      39.517  -2.667  14.340  0.00  0.00    +0.000 OA
ATOM     32  C   UNL     1      40.342  -3.141  15.359  0.00  0.00    +0.000 C 
ENDBRANCH  28  31
ENDBRANCH  24  25
ENDBRANCH  23  24
ENDBRANCH   4  23
TORSDOF 9
ENDMDL
MODEL 2
REMARK VINA RESULT:      -7.0      2.688      7.490
REMARK  Name = 
REMARK  9 active torsions:
REMARK  status: ('A' for Active; 'I' for Inactive)
REMARK    1  A    between atoms: C_2  and  C_3
REMARK    2  A    between atoms: C_3  and  C_5
REMARK    3  A    between atoms: C_5  and  O_6
REMARK    4  A    between atoms: O_6  and  C_7
REMARK    5  A    between atoms: C_7  and  C_9
REMARK    6  A    between atoms: N_12  and  C_13
REMARK    7  A    between atoms: C_13  and  C_14
REMARK    8  A    between atoms: C_14  and  C_15
REMARK    9  A    between atoms: C_18  and  O_19
REMARK                            x       y       z     vdW  Elec       q    Type
REMARK                         _______ _______ _______ _____ _____    ______ ____
ROOT
ATOM      1  C   UNL     1      39.197   2.455  14.249  0.00  0.00    +0.000 A 
ATOM      2  C   UNL     1      39.269   3.729  14.785  0.00  0.00    +0.000 A 
ATOM      3  N   UNL     1      40.154   4.768  14.405  0.00  0.00    +0.000 NA
ATOM      4  N   UNL     1      38.334   3.850  15.767  0.00  0.00    +0.000 N 
ATOM      5  C   UNL     1      37.652   2.697  15.891  0.00  0.00    +0.000 A 
ATOM      6  N   UNL     1      36.650   2.251  16.670  0.00  0.00    +0.000 NA
ATOM      7  C   UNL     1      36.159   0.985  16.551  0.00  0.00    +0.000 A 
ATOM      8  C   UNL     1      35.140   0.511  17.332  0.00  0.00    +0.000 A 
ATOM      9  C   UNL     1      34.660  -0.778  17.194  0.00  0.00    +0.000 A 
ATOM     10  C   UNL     1      35.213  -1.611  16.249  0.00  0.00    +0.000 A 
ATOM     11  C   UNL     1      36.235  -1.150  15.457  0.00  0.00    +0.000 A 
ATOM     12  C   UNL     1      36.702   0.136  15.610  0.00  0.00    +0.000 A 
ATOM     13  N   UNL     1      37.708   0.585  14.830  0.00  0.00    +0.000 NA
ATOM     14  C   UNL     1      38.193   1.826  14.940  0.00  0.00    +0.000 A 
ENDROOT
BRANCH   1  15
ATOM     15  C   UNL     1      40.023   1.920  13.176  0.00  0.00    +0.000 C 
ATOM     16  O   UNL     1      39.885   2.254  11.978  0.00  0.00    +0.000 OA
BRANCH  15  17
ATOM     17  O   UNL     1      41.009   1.000  13.508  0.00  0.00    +0.000 OA
BRANCH  17  18
ATOM     18  C   UNL     1      40.892  -0.333  13.144  0.00  0.00    +0.000 C 
BRANCH  18  19
ATOM     19  C   UNL     1      40.858  -1.146  14.560  0.00  0.00    +0.000 C 
ATOM     20  C   UNL     1      39.763  -2.251  13.947  0.00  0.00    +0.000 C 
BRANCH  19  22
ATOM     21  C   UNL     1      41.684  -3.077  13.157  0.00  0.00    +0.000 C 
ATOM     22  C   UNL     1      42.137  -2.099  14.205  0.00  0.00    +0.000 C 
ENDBRANCH  19  22
ENDBRANCH  18  19
ENDBRANCH  17  18
ENDBRANCH  15  17
ENDBRANCH   1  15
BRANCH   4  23
ATOM     23  C   UNL     1      38.077   5.023  16.581  0.00  0.00    +0.000 C 
BRANCH  23  24
ATOM     24  C   UNL     1      38.761   4.781  17.925  0.00  0.00    +0.000 C 
BRANCH  24  25
ATOM     25  C   UNL     1      39.007   6.029  18.656  0.00  0.00    +0.000 A 
ATOM     26  C   UNL     1      38.179   7.128  18.474  0.00  0.00    +0.000 A 
ATOM     27  C   UNL     1      38.409   8.302  19.161  0.00  0.00    +0.000 A 
ATOM     28  C   UNL     1      39.457   8.436  20.045  0.00  0.00    +0.000 A 
ATOM     29  C   UNL     1      40.278   7.341  20.223  0.00  0.00    +0.000 A 
ATOM     30  C   UNL     1      40.054   6.162  19.540  0.00  0.00    +0.000 A 
BRANCH  28  31
ATOM     31  O   UNL     1      39.679   9.623  20.730  0.00  0.00    +0.000 OA
ATOM     32  C   UNL     1      38.624  10.382  21.233  0.00  0.00    +0.000 C 
ENDBRANCH  28  31
ENDBRANCH  24  25
ENDBRANCH  23  24
ENDBRANCH   4  23
TORSDOF 9
ENDMDL
MODEL 3
REMARK VINA RESULT:      -6.8      3.626      5.285
REMARK  Name = 
REMARK  9 active torsions:
REMARK  status: ('A' for Active; 'I' for Inactive)
REMARK    1  A    between atoms: C_2  and  C_3
REMARK    2  A    between atoms: C_3  and  C_5
REMARK    3  A    between atoms: C_5  and  O_6
REMARK    4  A    between atoms: O_6  and  C_7
REMARK    5  A    between atoms: C_7  and  C_9
REMARK    6  A    between atoms: N_12  and  C_13
REMARK    7  A    between atoms: C_13  and  C_14
REMARK    8  A    between atoms: C_14  and  C_15
REMARK    9  A    between atoms: C_18  and  O_19
REMARK                            x       y       z     vdW  Elec       q    Type
REMARK                         _______ _______ _______ _____ _____    ______ ____
ROOT
ATOM      1  C   UNL     1      38.469  -1.877  16.489  0.00  0.00    +0.000 A 
ATOM      2  C   UNL     1      39.529  -2.079  15.622  0.00  0.00    +0.000 A 
ATOM      3  N   UNL     1      40.478  -3.130  15.662  0.00  0.00    +0.000 NA
ATOM      4  N   UNL     1      39.531  -1.090  14.686  0.00  0.00    +0.000 N 
ATOM      5  C   UNL     1      38.508  -0.246  14.913  0.00  0.00    +0.000 A 
ATOM      6  N   UNL     1      38.036   0.872  14.333  0.00  0.00    +0.000 NA
ATOM      7  C   UNL     1      36.939   1.522  14.815  0.00  0.00    +0.000 A 
ATOM      8  C   UNL     1      36.442   2.660  14.240  0.00  0.00    +0.000 A 
ATOM      9  C   UNL     1      35.329   3.302  14.748  0.00  0.00    +0.000 A 
ATOM     10  C   UNL     1      34.698   2.791  15.859  0.00  0.00    +0.000 A 
ATOM     11  C   UNL     1      35.184   1.650  16.447  0.00  0.00    +0.000 A 
ATOM     12  C   UNL     1      36.295   1.025  15.928  0.00  0.00    +0.000 A 
ATOM     13  N   UNL     1      36.771  -0.097  16.510  0.00  0.00    +0.000 NA
ATOM     14  C   UNL     1      37.844  -0.740  16.042  0.00  0.00    +0.000 A 
ENDROOT
BRANCH   1  15
ATOM     15  C   UNL     1      38.112  -2.710  17.629  0.00  0.00    +0.000 C 
ATOM     16  O   UNL     1      38.821  -2.800  18.656  0.00  0.00    +0.000 OA
BRANCH  15  17
ATOM     17  O   UNL     1      36.927  -3.431  17.565  0.00  0.00    +0.000 OA
BRANCH  17  18
ATOM     18  C   UNL     1      36.672  -4.292  16.508  0.00  0.00    +0.000 C 
BRANCH  18  19
ATOM     19  C   UNL     1      35.513  -3.544  15.635  0.00  0.00    +0.000 C 
ATOM     20  C   UNL     1      36.416  -3.684  14.235  0.00  0.00    +0.000 C 
BRANCH  19  22
ATOM     21  C   UNL     1      33.303  -4.491  14.859  0.00  0.00    +0.000 C 
ATOM     22  C   UNL     1      34.671  -4.909  15.321  0.00  0.00    +0.000 C 
ENDBRANCH  19  22
ENDBRANCH  18  19
ENDBRANCH  17  18
ENDBRANCH  15  17
ENDBRANCH   1  15
BRANCH   4  23
ATOM     23  C   UNL     1      40.473  -0.929  13.595  0.00  0.00    +0.000 C 
BRANCH  23  24
ATOM     24  C   UNL     1      41.601  -0.042  14.118  0.00  0.00    +0.000 C 
BRANCH  24  25
ATOM     25  C   UNL     1      42.887  -0.747  14.160  0.00  0.00    +0.000 A 
ATOM     26  C   UNL     1      43.951  -0.233  14.890  0.00  0.00    +0.000 A 
ATOM     27  C   UNL     1      45.160  -0.895  14.930  0.00  0.00    +0.000 A 
ATOM     28  C   UNL     1      45.365  -2.079  14.258  0.00  0.00    +0.000 A 
ATOM     29  C   UNL     1      44.306  -2.587  13.533  0.00  0.00    +0.000 A 
ATOM     30  C   UNL     1      43.092  -1.931  13.488  0.00  0.00    +0.000 A 
BRANCH  28  31
ATOM     31  O   UNL     1      46.587  -2.736  14.305  0.00  0.00    +0.000 OA
ATOM     32  C   UNL     1      46.839  -3.863  13.526  0.00  0.00    +0.000 C 
ENDBRANCH  28  31
ENDBRANCH  24  25
ENDBRANCH  23  24
ENDBRANCH   4  23
TORSDOF 9
ENDMDL
MODEL 4
REMARK VINA RESULT:      -6.8      2.199      6.405
REMARK  Name = 
REMARK  9 active torsions:
REMARK  status: ('A' for Active; 'I' for Inactive)
REMARK    1  A    between atoms: C_2  and  C_3
REMARK    2  A    between atoms: C_3  and  C_5
REMARK    3  A    between atoms: C_5  and  O_6
REMARK    4  A    between atoms: O_6  and  C_7
REMARK    5  A    between atoms: C_7  and  C_9
REMARK    6  A    between atoms: N_12  and  C_13
REMARK    7  A    between atoms: C_13  and  C_14
REMARK    8  A    between atoms: C_14  and  C_15
REMARK    9  A    between atoms: C_18  and  O_19
REMARK                            x       y       z     vdW  Elec       q    Type
REMARK                         _______ _______ _______ _____ _____    ______ ____
ROOT
ATOM      1  C   UNL     1      37.297   1.326  12.956  0.00  0.00    +0.000 A 
ATOM      2  C   UNL     1      37.686   2.654  13.001  0.00  0.00    +0.000 A 
ATOM      3  N   UNL     1      38.159   3.443  11.924  0.00  0.00    +0.000 NA
ATOM      4  N   UNL     1      37.543   3.115  14.274  0.00  0.00    +0.000 N 
ATOM      5  C   UNL     1      37.074   2.133  15.065  0.00  0.00    +0.000 A 
ATOM      6  N   UNL     1      36.753   2.016  16.366  0.00  0.00    +0.000 NA
ATOM      7  C   UNL     1      36.287   0.845  16.886  0.00  0.00    +0.000 A 
ATOM      8  C   UNL     1      35.954   0.704  18.206  0.00  0.00    +0.000 A 
ATOM      9  C   UNL     1      35.485  -0.493  18.711  0.00  0.00    +0.000 A 
ATOM     10  C   UNL     1      35.344  -1.576  17.873  0.00  0.00    +0.000 A 
ATOM     11  C   UNL     1      35.673  -1.450  16.546  0.00  0.00    +0.000 A 
ATOM     12  C   UNL     1      36.141  -0.250  16.061  0.00  0.00    +0.000 A 
ATOM     13  N   UNL     1      36.464  -0.130  14.756  0.00  0.00    +0.000 NA
ATOM     14  C   UNL     1      36.921   1.014  14.238  0.00  0.00    +0.000 A 
ENDROOT
BRANCH   1  15
ATOM     15  C   UNL     1      37.296   0.463  11.783  0.00  0.00    +0.000 C 
ATOM     16  O   UNL     1      36.531   0.639  10.809  0.00  0.00    +0.000 OA
BRANCH  15  17
ATOM     17  O   UNL     1      38.190  -0.599  11.754  0.00  0.00    +0.000 OA
BRANCH  17  18
ATOM     18  C   UNL     1      39.470  -0.468  12.271  0.00  0.00    +0.000 C 
BRANCH  18  19
ATOM     19  C   UNL     1      39.981  -2.002  12.500  0.00  0.00    +0.000 C 
ATOM     20  C   UNL     1      40.696  -1.591  13.955  0.00  0.00    +0.000 C 
BRANCH  19  22
ATOM     21  C   UNL     1      38.930  -2.736  14.677  0.00  0.00    +0.000 C 
ATOM     22  C   UNL     1      38.606  -2.501  13.228  0.00  0.00    +0.000 C 
ENDBRANCH  19  22
ENDBRANCH  18  19
ENDBRANCH  17  18
ENDBRANCH  15  17
ENDBRANCH   1  15
BRANCH   4  23
ATOM     23  C   UNL     1      37.840   4.453  14.751  0.00  0.00    +0.000 C 
BRANCH  23  24
ATOM     24  C   UNL     1      39.312   4.455  15.159  0.00  0.00    +0.000 C 
BRANCH  24  25
ATOM     25  C   UNL     1      39.523   5.081  16.469  0.00  0.00    +0.000 A 
ATOM     26  C   UNL     1      40.554   5.992  16.658  0.00  0.00    +0.000 A 
ATOM     27  C   UNL     1      40.753   6.581  17.890  0.00  0.00    +0.000 A 
ATOM     28  C   UNL     1      39.951   6.296  18.972  0.00  0.00    +0.000 A 
ATOM     29  C   UNL     1      38.927   5.391  18.780  0.00  0.00    +0.000 A 
ATOM     30  C   UNL     1      38.720   4.797  17.551  0.00  0.00    +0.000 A 
BRANCH  28  31
ATOM     31  O   UNL     1      40.161   6.896  20.206  0.00  0.00    +0.000 OA
ATOM     32  C   UNL     1      39.330   7.911  20.674  0.00  0.00    +0.000 C 
ENDBRANCH  28  31
ENDBRANCH  24  25
ENDBRANCH  23  24
ENDBRANCH   4  23
TORSDOF 9
ENDMDL
MODEL 5
REMARK VINA RESULT:      -6.8      2.284      5.572
REMARK  Name = 
REMARK  9 active torsions:
REMARK  status: ('A' for Active; 'I' for Inactive)
REMARK    1  A    between atoms: C_2  and  C_3
REMARK    2  A    between atoms: C_3  and  C_5
REMARK    3  A    between atoms: C_5  and  O_6
REMARK    4  A    between atoms: O_6  and  C_7
REMARK    5  A    between atoms: C_7  and  C_9
REMARK    6  A    between atoms: N_12  and  C_13
REMARK    7  A    between atoms: C_13  and  C_14
REMARK    8  A    between atoms: C_14  and  C_15
REMARK    9  A    between atoms: C_18  and  O_19
REMARK                            x       y       z     vdW  Elec       q    Type
REMARK                         _______ _______ _______ _____ _____    ______ ____
ROOT
ATOM      1  C   UNL     1      36.344   0.793  15.851  0.00  0.00    +0.000 A 
ATOM      2  C   UNL     1      36.585   0.569  14.506  0.00  0.00    +0.000 A 
ATOM      3  N   UNL     1      36.205   1.395  13.421  0.00  0.00    +0.000 NA
ATOM      4  N   UNL     1      37.265  -0.603  14.366  0.00  0.00    +0.000 N 
ATOM      5  C   UNL     1      37.477  -1.153  15.576  0.00  0.00    +0.000 A 
ATOM      6  N   UNL     1      38.074  -2.268  16.034  0.00  0.00    +0.000 NA
ATOM      7  C   UNL     1      38.128  -2.557  17.365  0.00  0.00    +0.000 A 
ATOM      8  C   UNL     1      38.730  -3.685  17.853  0.00  0.00    +0.000 A 
ATOM      9  C   UNL     1      38.771  -3.957  19.207  0.00  0.00    +0.000 A 
ATOM     10  C   UNL     1      38.195  -3.077  20.094  0.00  0.00    +0.000 A 
ATOM     11  C   UNL     1      37.587  -1.941  19.620  0.00  0.00    +0.000 A 
ATOM     12  C   UNL     1      37.555  -1.687  18.268  0.00  0.00    +0.000 A 
ATOM     13  N   UNL     1      36.956  -0.569  17.807  0.00  0.00    +0.000 NA
ATOM     14  C   UNL     1      36.901  -0.278  16.503  0.00  0.00    +0.000 A 
ENDROOT
BRANCH   1  15
ATOM     15  C   UNL     1      35.646   1.933  16.427  0.00  0.00    +0.000 C 
ATOM     16  O   UNL     1      34.404   1.968  16.576  0.00  0.00    +0.000 OA
BRANCH  15  17
ATOM     17  O   UNL     1      36.402   3.026  16.829  0.00  0.00    +0.000 OA
BRANCH  17  18
ATOM     18  C   UNL     1      36.916   3.919  15.901  0.00  0.00    +0.000 C 
BRANCH  18  19
ATOM     19  C   UNL     1      38.480   4.109  16.332  0.00  0.00    +0.000 C 
ATOM     20  C   UNL     1      38.996   3.237  15.002  0.00  0.00    +0.000 C 
BRANCH  19  22
ATOM     21  C   UNL     1      40.131   5.706  15.283  0.00  0.00    +0.000 C 
ATOM     22  C   UNL     1      38.664   5.538  15.563  0.00  0.00    +0.000 C 
ENDBRANCH  19  22
ENDBRANCH  18  19
ENDBRANCH  17  18
ENDBRANCH  15  17
ENDBRANCH   1  15
BRANCH   4  23
ATOM     23  C   UNL     1      37.712  -1.204  13.125  0.00  0.00    +0.000 C 
BRANCH  23  24
ATOM     24  C   UNL     1      38.863  -0.341  12.611  0.00  0.00    +0.000 C 
BRANCH  24  25
ATOM     25  C   UNL     1      40.149  -0.722  13.205  0.00  0.00    +0.000 A 
ATOM     26  C   UNL     1      40.473  -2.059  13.392  0.00  0.00    +0.000 A 
ATOM     27  C   UNL     1      41.682  -2.418  13.950  0.00  0.00    +0.000 A 
ATOM     28  C   UNL     1      42.611  -1.480  14.342  0.00  0.00    +0.000 A 
ATOM     29  C   UNL     1      42.286  -0.151  14.154  0.00  0.00    +0.000 A 
ATOM     30  C   UNL     1      41.078   0.217  13.596  0.00  0.00    +0.000 A 
BRANCH  28  31
ATOM     31  O   UNL     1      43.825  -1.853  14.902  0.00  0.00    +0.000 OA
ATOM     32  C   UNL     1      45.028  -1.299  14.469  0.00  0.00    +0.000 C 
ENDBRANCH  28  31
ENDBRANCH  24  25
ENDBRANCH  23  24
ENDBRANCH   4  23
TORSDOF 9
ENDMDL
MODEL 6
REMARK VINA RESULT:      -6.8      2.389      5.725
REMARK  Name = 
REMARK  9 active torsions:
REMARK  status: ('A' for Active; 'I' for Inactive)
REMARK    1  A    between atoms: C_2  and  C_3
REMARK    2  A    between atoms: C_3  and  C_5
REMARK    3  A    between atoms: C_5  and  O_6
REMARK    4  A    between atoms: O_6  and  C_7
REMARK    5  A    between atoms: C_7  and  C_9
REMARK    6  A    between atoms: N_12  and  C_13
REMARK    7  A    between atoms: C_13  and  C_14
REMARK    8  A    between atoms: C_14  and  C_15
REMARK    9  A    between atoms: C_18  and  O_19
REMARK                            x       y       z     vdW  Elec       q    Type
REMARK                         _______ _______ _______ _____ _____    ______ ____
ROOT
ATOM      1  C   UNL     1      36.064   0.154  16.592  0.00  0.00    +0.000 A 
ATOM      2  C   UNL     1      35.727   1.437  16.196  0.00  0.00    +0.000 A 
ATOM      3  N   UNL     1      34.551   2.153  16.528  0.00  0.00    +0.000 NA
ATOM      4  N   UNL     1      36.724   1.936  15.414  0.00  0.00    +0.000 N 
ATOM      5  C   UNL     1      37.702   1.021  15.285  0.00  0.00    +0.000 A 
ATOM      6  N   UNL     1      38.887   0.963  14.650  0.00  0.00    +0.000 NA
ATOM      7  C   UNL     1      39.679  -0.144  14.712  0.00  0.00    +0.000 A 
ATOM      8  C   UNL     1      40.888  -0.225  14.075  0.00  0.00    +0.000 A 
ATOM      9  C   UNL     1      41.673  -1.359  14.152  0.00  0.00    +0.000 A 
ATOM     10  C   UNL     1      41.238  -2.439  14.885  0.00  0.00    +0.000 A 
ATOM     11  C   UNL     1      40.028  -2.373  15.531  0.00  0.00    +0.000 A 
ATOM     12  C   UNL     1      39.258  -1.236  15.442  0.00  0.00    +0.000 A 
ATOM     13  N   UNL     1      38.069  -1.175  16.077  0.00  0.00    +0.000 NA
ATOM     14  C   UNL     1      37.287  -0.093  16.022  0.00  0.00    +0.000 A 
ENDROOT
BRANCH   1  15
ATOM     15  C   UNL     1      35.270  -0.728  17.436  0.00  0.00    +0.000 C 
ATOM     16  O   UNL     1      35.176  -0.584  18.675  0.00  0.00    +0.000 OA
BRANCH  15  17
ATOM     17  O   UNL     1      34.586  -1.772  16.827  0.00  0.00    +0.000 OA
BRANCH  17  18
ATOM     18  C   UNL     1      35.181  -3.015  16.663  0.00  0.00    +0.000 C 
BRANCH  18  19
ATOM     19  C   UNL     1      35.105  -3.300  15.057  0.00  0.00    +0.000 C 
ATOM     20  C   UNL     1      36.333  -4.431  15.157  0.00  0.00    +0.000 C 
BRANCH  19  22
ATOM     21  C   UNL     1      33.673  -4.944  13.782  0.00  0.00    +0.000 C 
ATOM     22  C   UNL     1      33.941  -4.441  15.173  0.00  0.00    +0.000 C 
ENDBRANCH  19  22
ENDBRANCH  18  19
ENDBRANCH  17  18
ENDBRANCH  15  17
ENDBRANCH   1  15
BRANCH   4  23
ATOM     23  C   UNL     1      36.767   3.247  14.795  0.00  0.00    +0.000 C 
BRANCH  23  24
ATOM     24  C   UNL     1      36.708   4.269  15.928  0.00  0.00    +0.000 C 
BRANCH  24  25
ATOM     25  C   UNL     1      38.031   4.808  16.259  0.00  0.00    +0.000 A 
ATOM     26  C   UNL     1      38.916   5.175  15.254  0.00  0.00    +0.000 A 
ATOM     27  C   UNL     1      40.161   5.682  15.565  0.00  0.00    +0.000 A 
ATOM     28  C   UNL     1      40.577   5.846  16.866  0.00  0.00    +0.000 A 
ATOM     29  C   UNL     1      39.694   5.481  17.864  0.00  0.00    +0.000 A 
ATOM     30  C   UNL     1      38.447   4.973  17.562  0.00  0.00    +0.000 A 
BRANCH  28  31
ATOM     31  O   UNL     1      41.832   6.357  17.167  0.00  0.00    +0.000 OA
ATOM     32  C   UNL     1      42.205   6.650  18.477  0.00  0.00    +0.000 C 
ENDBRANCH  28  31
ENDBRANCH  24  25
ENDBRANCH  23  24
ENDBRANCH   4  23
TORSDOF 9
ENDMDL
MODEL 7
REMARK VINA RESULT:      -6.8      3.181      5.954
REMARK  Name = 
REMARK  9 active torsions:
REMARK  status: ('A' for Active; 'I' for Inactive)
REMARK    1  A    between atoms: C_2  and  C_3
REMARK    2  A    between atoms: C_3  and  C_5
REMARK    3  A    between atoms: C_5  and  O_6
REMARK    4  A    between atoms: O_6  and  C_7
REMARK    5  A    between atoms: C_7  and  C_9
REMARK    6  A    between atoms: N_12  and  C_13
REMARK    7  A    between atoms: C_13  and  C_14
REMARK    8  A    between atoms: C_14  and  C_15
REMARK    9  A    between atoms: C_18  and  O_19
REMARK                            x       y       z     vdW  Elec       q    Type
REMARK                         _______ _______ _______ _____ _____    ______ ____
ROOT
ATOM      1  C   UNL     1      38.516   4.696  15.271  0.00  0.00    +0.000 A 
ATOM      2  C   UNL     1      38.251   3.384  14.916  0.00  0.00    +0.000 A 
ATOM      3  N   UNL     1      39.101   2.264  15.088  0.00  0.00    +0.000 NA
ATOM      4  N   UNL     1      37.011   3.318  14.357  0.00  0.00    +0.000 N 
ATOM      5  C   UNL     1      36.456   4.543  14.335  0.00  0.00    +0.000 A 
ATOM      6  N   UNL     1      35.288   5.062  13.914  0.00  0.00    +0.000 NA
ATOM      7  C   UNL     1      35.011   6.391  14.033  0.00  0.00    +0.000 A 
ATOM      8  C   UNL     1      33.830   6.940  13.612  0.00  0.00    +0.000 A 
ATOM      9  C   UNL     1      33.572   8.292  13.743  0.00  0.00    +0.000 A 
ATOM     10  C   UNL     1      34.520   9.113  14.310  0.00  0.00    +0.000 A 
ATOM     11  C   UNL     1      35.709   8.577  14.738  0.00  0.00    +0.000 A 
ATOM     12  C   UNL     1      35.949   7.229  14.599  0.00  0.00    +0.000 A 
ATOM     13  N   UNL     1      37.120   6.706  15.020  0.00  0.00    +0.000 NA
ATOM     14  C   UNL     1      37.399   5.404  14.907  0.00  0.00    +0.000 A 
ENDROOT
BRANCH   1  15
ATOM     15  C   UNL     1      39.732   5.194  15.898  0.00  0.00    +0.000 C 
ATOM     16  O   UNL     1      40.696   5.653  15.246  0.00  0.00    +0.000 OA
BRANCH  15  17
ATOM     17  O   UNL     1      39.814   5.156  17.284  0.00  0.00    +0.000 OA
BRANCH  17  18
ATOM     18  C   UNL     1      40.402   6.193  17.992  0.00  0.00    +0.000 C 
BRANCH  18  19
ATOM     19  C   UNL     1      39.681   6.155  19.457  0.00  0.00    +0.000 C 
ATOM     20  C   UNL     1      41.122   6.515  20.223  0.00  0.00    +0.000 C 
BRANCH  19  22
ATOM     21  C   UNL     1      37.901   7.780  18.702  0.00  0.00    +0.000 C 
ATOM     22  C   UNL     1      39.217   7.721  19.426  0.00  0.00    +0.000 C 
ENDBRANCH  19  22
ENDBRANCH  18  19
ENDBRANCH  17  18
ENDBRANCH  15  17
ENDBRANCH   1  15
BRANCH   4  23
ATOM     23  C   UNL     1      36.351   2.130  13.850  0.00  0.00    +0.000 C 
BRANCH  23  24
ATOM     24  C   UNL     1      35.196   1.831  14.804  0.00  0.00    +0.000 C 
BRANCH  24  25
ATOM     25  C   UNL     1      35.586   0.909  15.876  0.00  0.00    +0.000 A 
ATOM     26  C   UNL     1      36.263  -0.268  15.584  0.00  0.00    +0.000 A 
ATOM     27  C   UNL     1      36.630  -1.136  16.592  0.00  0.00    +0.000 A 
ATOM     28  C   UNL     1      36.346  -0.879  17.914  0.00  0.00    +0.000 A 
ATOM     29  C   UNL     1      35.674   0.293  18.201  0.00  0.00    +0.000 A 
ATOM     30  C   UNL     1      35.303   1.167  17.199  0.00  0.00    +0.000 A 
BRANCH  28  31
ATOM     31  O   UNL     1      36.721  -1.759  18.920  0.00  0.00    +0.000 OA
ATOM     32  C   UNL     1      38.034  -2.208  19.043  0.00  0.00    +0.000 C 
ENDBRANCH  28  31
ENDBRANCH  24  25
ENDBRANCH  23  24
ENDBRANCH   4  23
TORSDOF 9
ENDMDL
MODEL 8
REMARK VINA RESULT:      -6.7      1.919      4.275
REMARK  Name = 
REMARK  9 active torsions:
REMARK  status: ('A' for Active; 'I' for Inactive)
REMARK    1  A    between atoms: C_2  and  C_3
REMARK    2  A    between atoms: C_3  and  C_5
REMARK    3  A    between atoms: C_5  and  O_6
REMARK    4  A    between atoms: O_6  and  C_7
REMARK    5  A    between atoms: C_7  and  C_9
REMARK    6  A    between atoms: N_12  and  C_13
REMARK    7  A    between atoms: C_13  and  C_14
REMARK    8  A    between atoms: C_14  and  C_15
REMARK    9  A    between atoms: C_18  and  O_19
REMARK                            x       y       z     vdW  Elec       q    Type
REMARK                         _______ _______ _______ _____ _____    ______ ____
ROOT
ATOM      1  C   UNL     1      37.845   2.648  14.154  0.00  0.00    +0.000 A 
ATOM      2  C   UNL     1      36.740   1.950  14.610  0.00  0.00    +0.000 A 
ATOM      3  N   UNL     1      35.962   1.013  13.886  0.00  0.00    +0.000 NA
ATOM      4  N   UNL     1      36.494   2.304  15.902  0.00  0.00    +0.000 N 
ATOM      5  C   UNL     1      37.403   3.210  16.306  0.00  0.00    +0.000 A 
ATOM      6  N   UNL     1      37.644   3.890  17.442  0.00  0.00    +0.000 NA
ATOM      7  C   UNL     1      38.680   4.769  17.544  0.00  0.00    +0.000 A 
ATOM      8  C   UNL     1      38.943   5.471  18.690  0.00  0.00    +0.000 A 
ATOM      9  C   UNL     1      39.999   6.358  18.769  0.00  0.00    +0.000 A 
ATOM     10  C   UNL     1      40.812   6.547  17.675  0.00  0.00    +0.000 A 
ATOM     11  C   UNL     1      40.562   5.850  16.519  0.00  0.00    +0.000 A 
ATOM     12  C   UNL     1      39.504   4.971  16.458  0.00  0.00    +0.000 A 
ATOM     13  N   UNL     1      39.261   4.288  15.319  0.00  0.00    +0.000 NA
ATOM     14  C   UNL     1      38.247   3.424  15.212  0.00  0.00    +0.000 A 
ENDROOT
BRANCH   1  15
ATOM     15  C   UNL     1      38.438   2.559  12.827  0.00  0.00    +0.000 C 
ATOM     16  O   UNL     1      38.137   3.334  11.893  0.00  0.00    +0.000 OA
BRANCH  15  17
ATOM     17  O   UNL     1      39.381   1.566  12.599  0.00  0.00    +0.000 OA
BRANCH  17  18
ATOM     18  C   UNL     1      39.042   0.397  11.934  0.00  0.00    +0.000 C 
BRANCH  18  19
ATOM     19  C   UNL     1      39.952  -0.760  12.639  0.00  0.00    +0.000 C 
ATOM     20  C   UNL     1      40.700   0.368  13.621  0.00  0.00    +0.000 C 
BRANCH  19  22
ATOM     21  C   UNL     1      39.477  -0.864  15.118  0.00  0.00    +0.000 C 
ATOM     22  C   UNL     1      38.845  -1.133  13.781  0.00  0.00    +0.000 C 
ENDBRANCH  19  22
ENDBRANCH  18  19
ENDBRANCH  17  18
ENDBRANCH  15  17
ENDBRANCH   1  15
BRANCH   4  23
ATOM     23  C   UNL     1      35.428   1.806  16.750  0.00  0.00    +0.000 C 
BRANCH  23  24
ATOM     24  C   UNL     1      36.089   0.936  17.817  0.00  0.00    +0.000 C 
BRANCH  24  25
ATOM     25  C   UNL     1      36.095  -0.485  17.449  0.00  0.00    +0.000 A 
ATOM     26  C   UNL     1      35.097  -1.008  16.638  0.00  0.00    +0.000 A 
ATOM     27  C   UNL     1      35.102  -2.344  16.291  0.00  0.00    +0.000 A 
ATOM     28  C   UNL     1      36.083  -3.206  16.728  0.00  0.00    +0.000 A 
ATOM     29  C   UNL     1      37.074  -2.682  17.534  0.00  0.00    +0.000 A 
ATOM     30  C   UNL     1      37.077  -1.347  17.885  0.00  0.00    +0.000 A 
BRANCH  28  31
ATOM     31  O   UNL     1      36.078  -4.548  16.372  0.00  0.00    +0.000 OA
ATOM     32  C   UNL     1      35.092  -5.078  15.542  0.00  0.00    +0.000 C 
ENDBRANCH  28  31
ENDBRANCH  24  25
ENDBRANCH  23  24
ENDBRANCH   4  23
TORSDOF 9
ENDMDL
MODEL 9
REMARK VINA RESULT:      -6.6      3.713      5.428
REMARK  Name = 
REMARK  9 active torsions:
REMARK  status: ('A' for Active; 'I' for Inactive)
REMARK    1  A    between atoms: C_2  and  C_3
REMARK    2  A    between atoms: C_3  and  C_5
REMARK    3  A    between atoms: C_5  and  O_6
REMARK    4  A    between atoms: O_6  and  C_7
REMARK    5  A    between atoms: C_7  and  C_9
REMARK    6  A    between atoms: N_12  and  C_13
REMARK    7  A    between atoms: C_13  and  C_14
REMARK    8  A    between atoms: C_14  and  C_15
REMARK    9  A    between atoms: C_18  and  O_19
REMARK                            x       y       z     vdW  Elec       q    Type
REMARK                         _______ _______ _______ _____ _____    ______ ____
ROOT
ATOM      1  C   UNL     1      38.578  -2.001  16.547  0.00  0.00    +0.000 A 
ATOM      2  C   UNL     1      39.596  -2.183  15.626  0.00  0.00    +0.000 A 
ATOM      3  N   UNL     1      40.571  -3.210  15.623  0.00  0.00    +0.000 NA
ATOM      4  N   UNL     1      39.527  -1.199  14.688  0.00  0.00    +0.000 N 
ATOM      5  C   UNL     1      38.497  -0.378  14.964  0.00  0.00    +0.000 A 
ATOM      6  N   UNL     1      37.969   0.725  14.403  0.00  0.00    +0.000 NA
ATOM      7  C   UNL     1      36.884   1.351  14.939  0.00  0.00    +0.000 A 
ATOM      8  C   UNL     1      36.330   2.474  14.385  0.00  0.00    +0.000 A 
ATOM      9  C   UNL     1      35.230   3.092  14.947  0.00  0.00    +0.000 A 
ATOM     10  C   UNL     1      34.669   2.573  16.091  0.00  0.00    +0.000 A 
ATOM     11  C   UNL     1      35.212   1.447  16.658  0.00  0.00    +0.000 A 
ATOM     12  C   UNL     1      36.309   0.845  16.086  0.00  0.00    +0.000 A 
ATOM     13  N   UNL     1      36.841  -0.262  16.647  0.00  0.00    +0.000 NA
ATOM     14  C   UNL     1      37.904  -0.882  16.127  0.00  0.00    +0.000 A 
ENDROOT
BRANCH   1  15
ATOM     15  C   UNL     1      38.300  -2.836  17.707  0.00  0.00    +0.000 C 
ATOM     16  O   UNL     1      38.809  -2.631  18.831  0.00  0.00    +0.000 OA
BRANCH  15  17
ATOM     17  O   UNL     1      37.427  -3.904  17.548  0.00  0.00    +0.000 OA
BRANCH  17  18
ATOM     18  C   UNL     1      37.166  -4.432  16.292  0.00  0.00    +0.000 C 
BRANCH  18  19
ATOM     19  C   UNL     1      35.641  -3.958  15.953  0.00  0.00    +0.000 C 
ATOM     20  C   UNL     1      36.066  -3.572  14.382  0.00  0.00    +0.000 C 
BRANCH  19  22
ATOM     21  C   UNL     1      33.996  -5.264  14.550  0.00  0.00    +0.000 C 
ATOM     22  C   UNL     1      35.122  -5.448  15.529  0.00  0.00    +0.000 C 
ENDBRANCH  19  22
ENDBRANCH  18  19
ENDBRANCH  17  18
ENDBRANCH  15  17
ENDBRANCH   1  15
BRANCH   4  23
ATOM     23  C   UNL     1      40.408  -1.022  13.550  0.00  0.00    +0.000 C 
BRANCH  23  24
ATOM     24  C   UNL     1      39.702  -1.651  12.350  0.00  0.00    +0.000 C 
BRANCH  24  25
ATOM     25  C   UNL     1      40.601  -2.500  11.560  0.00  0.00    +0.000 A 
ATOM     26  C   UNL     1      41.792  -2.966  12.103  0.00  0.00    +0.000 A 
ATOM     27  C   UNL     1      42.637  -3.764  11.360  0.00  0.00    +0.000 A 
ATOM     28  C   UNL     1      42.344  -4.131  10.066  0.00  0.00    +0.000 A 
ATOM     29  C   UNL     1      41.159  -3.667   9.530  0.00  0.00    +0.000 A 
ATOM     30  C   UNL     1      40.307  -2.868  10.266  0.00  0.00    +0.000 A 
BRANCH  28  31
ATOM     31  O   UNL     1      43.202  -4.935   9.329  0.00  0.00    +0.000 OA
ATOM     32  C   UNL     1      43.182  -4.937   7.936  0.00  0.00    +0.000 C 
ENDBRANCH  28  31
ENDBRANCH  24  25
ENDBRANCH  23  24
ENDBRANCH   4  23
TORSDOF 9
ENDMDL
MODEL 10
REMARK VINA RESULT:      -6.5      2.310      6.340
REMARK  Name = 
REMARK  9 active torsions:
REMARK  status: ('A' for Active; 'I' for Inactive)
REMARK    1  A    between atoms: C_2  and  C_3
REMARK    2  A    between atoms: C_3  and  C_5
REMARK    3  A    between atoms: C_5  and  O_6
REMARK    4  A    between atoms: O_6  and  C_7
REMARK    5  A    between atoms: C_7  and  C_9
REMARK    6  A    between atoms: N_12  and  C_13
REMARK    7  A    between atoms: C_13  and  C_14
REMARK    8  A    between atoms: C_14  and  C_15
REMARK    9  A    between atoms: C_18  and  O_19
REMARK                            x       y       z     vdW  Elec       q    Type
REMARK                         _______ _______ _______ _____ _____    ______ ____
ROOT
ATOM      1  C   UNL     1      36.652   1.262  15.190  0.00  0.00    +0.000 A 
ATOM      2  C   UNL     1      36.879   2.350  16.015  0.00  0.00    +0.000 A 
ATOM      3  N   UNL     1      36.771   2.389  17.426  0.00  0.00    +0.000 NA
ATOM      4  N   UNL     1      37.235   3.419  15.250  0.00  0.00    +0.000 N 
ATOM      5  C   UNL     1      37.248   3.066  13.952  0.00  0.00    +0.000 A 
ATOM      6  N   UNL     1      37.515   3.688  12.789  0.00  0.00    +0.000 NA
ATOM      7  C   UNL     1      37.439   3.036  11.594  0.00  0.00    +0.000 A 
ATOM      8  C   UNL     1      37.706   3.649  10.400  0.00  0.00    +0.000 A 
ATOM      9  C   UNL     1      37.621   2.967   9.201  0.00  0.00    +0.000 A 
ATOM     10  C   UNL     1      37.260   1.639   9.198  0.00  0.00    +0.000 A 
ATOM     11  C   UNL     1      36.989   1.011  10.388  0.00  0.00    +0.000 A 
ATOM     12  C   UNL     1      37.078   1.706  11.573  0.00  0.00    +0.000 A 
ATOM     13  N   UNL     1      36.810   1.084  12.741  0.00  0.00    +0.000 NA
ATOM     14  C   UNL     1      36.884   1.716  13.916  0.00  0.00    +0.000 A 
ENDROOT
BRANCH   1  15
ATOM     15  C   UNL     1      36.254  -0.075  15.609  0.00  0.00    +0.000 C 
ATOM     16  O   UNL     1      35.161  -0.316  16.170  0.00  0.00    +0.000 OA
BRANCH  15  17
ATOM     17  O   UNL     1      37.132  -1.123  15.369  0.00  0.00    +0.000 OA
BRANCH  17  18
ATOM     18  C   UNL     1      37.176  -2.224  16.211  0.00  0.00    +0.000 C 
BRANCH  18  19
ATOM     19  C   UNL     1      38.633  -2.128  16.941  0.00  0.00    +0.000 C 
ATOM     20  C   UNL     1      38.903  -3.762  16.713  0.00  0.00    +0.000 C 
BRANCH  19  22
ATOM     21  C   UNL     1      40.311  -2.899  15.217  0.00  0.00    +0.000 C 
ATOM     22  C   UNL     1      39.445  -1.725  15.581  0.00  0.00    +0.000 C 
ENDBRANCH  19  22
ENDBRANCH  18  19
ENDBRANCH  17  18
ENDBRANCH  15  17
ENDBRANCH   1  15
BRANCH   4  23
ATOM     23  C   UNL     1      37.557   4.753  15.720  0.00  0.00    +0.000 C 
BRANCH  23  24
ATOM     24  C   UNL     1      39.076   4.891  15.633  0.00  0.00    +0.000 C 
BRANCH  24  25
ATOM     25  C   UNL     1      39.654   5.443  16.864  0.00  0.00    +0.000 A 
ATOM     26  C   UNL     1      38.945   5.405  18.057  0.00  0.00    +0.000 A 
ATOM     27  C   UNL     1      39.489   5.924  19.213  0.00  0.00    +0.000 A 
ATOM     28  C   UNL     1      40.741   6.496  19.237  0.00  0.00    +0.000 A 
ATOM     29  C   UNL     1      41.444   6.532  18.049  0.00  0.00    +0.000 A 
ATOM     30  C   UNL     1      40.907   6.015  16.887  0.00  0.00    +0.000 A 
BRANCH  28  31
ATOM     31  O   UNL     1      41.277   7.015  20.408  0.00  0.00    +0.000 OA
ATOM     32  C   UNL     1      42.530   6.620  20.873  0.00  0.00    +0.000 C 
ENDBRANCH  28  31
ENDBRANCH  24  25
ENDBRANCH  23  24
ENDBRANCH   4  23
TORSDOF 9
ENDMDL
