MODEL 1
REMARK VINA RESULT:      -6.3      0.000      0.000
REMARK  Name = 
REMARK  5 active torsions:
REMARK  status: ('A' for Active; 'I' for Inactive)
REMARK    1  A    between atoms: C_2  and  O_3
REMARK    2  A    between atoms: O_3  and  C_4
REMARK    3  A    between atoms: C_7  and  C_8
REMARK    4  A    between atoms: C_8  and  C_11
REMARK    5  A    between atoms: C_14  and  C_15
REMARK                            x       y       z     vdW  Elec       q    Type
REMARK                         _______ _______ _______ _____ _____    ______ ____
ROOT
ATOM      1  C   UNL     1      26.752  23.433  26.162  0.00  0.00    +0.000 A 
ATOM      2  C   UNL     1      26.141  23.726  27.381  0.00  0.00    +0.000 A 
ATOM      3  C   UNL     1      25.192  24.719  27.473  0.00  0.00    +0.000 A 
ATOM      4  C   UNL     1      24.807  25.470  26.361  0.00  0.00    +0.000 A 
ATOM      5  C   UNL     1      25.428  25.166  25.161  0.00  0.00    +0.000 A 
ATOM      6  C   UNL     1      26.378  24.174  25.052  0.00  0.00    +0.000 A 
ENDROOT
BRANCH   6   7
ATOM      7  C   UNL     1      26.994  23.921  23.747  0.00  0.00    +0.000 A 
ATOM      8  C   UNL     1      28.174  24.497  23.341  0.00  0.00    +0.000 A 
ATOM      9  C   UNL     1      28.440  24.034  22.053  0.00  0.00    +0.000 A 
ATOM     10  N   UNL     1      29.556  24.377  21.203  0.00  0.00    +0.000 NA
ATOM     11  O   UNL     1      27.440  23.218  21.751  0.00  0.00    +0.000 OA
ATOM     12  N   UNL     1      26.573  23.146  22.758  0.00  0.00    +0.000 NA
ENDBRANCH   6   7
BRANCH   4  13
ATOM     13  C   UNL     1      23.795  26.570  26.430  0.00  0.00    +0.000 C 
ATOM     14  C   UNL     1      23.026  26.622  25.124  0.00  0.00    +0.000 C 
ATOM     15  C   UNL     1      24.548  27.900  26.611  0.00  0.00    +0.000 C 
BRANCH  13  16
ATOM     16  C   UNL     1      22.821  26.356  27.553  0.00  0.00    +0.000 C 
ATOM     17  C   UNL     1      21.401  26.204  27.100  0.00  0.00    +0.000 C 
ENDBRANCH  13  16
ENDBRANCH   4  13
BRANCH   1  18
ATOM     18  O   UNL     1      27.705  22.471  25.971  0.00  0.00    +0.000 OA
BRANCH  18  20
ATOM     19  C   UNL     1      30.079  22.298  25.684  0.00  0.00    +0.000 C 
ATOM     20  C   UNL     1      28.902  22.276  26.645  0.00  0.00    +0.000 C 
ENDBRANCH  18  20
ENDBRANCH   1  18
TORSDOF 5
ENDMDL
MODEL 2
REMARK VINA RESULT:      -6.0     23.724     26.720
REMARK  Name = 
REMARK  5 active torsions:
REMARK  status: ('A' for Active; 'I' for Inactive)
REMARK    1  A    between atoms: C_2  and  O_3
REMARK    2  A    between atoms: O_3  and  C_4
REMARK    3  A    between atoms: C_7  and  C_8
REMARK    4  A    between atoms: C_8  and  C_11
REMARK    5  A    between atoms: C_14  and  C_15
REMARK                            x       y       z     vdW  Elec       q    Type
REMARK                         _______ _______ _______ _____ _____    ______ ____
ROOT
ATOM      1  C   UNL     1      33.436   1.230  34.212  0.00  0.00    +0.000 A 
ATOM      2  C   UNL     1      33.406   2.367  33.405  0.00  0.00    +0.000 A 
ATOM      3  C   UNL     1      33.724   3.604  33.918  0.00  0.00    +0.000 A 
ATOM      4  C   UNL     1      34.084   3.772  35.257  0.00  0.00    +0.000 A 
ATOM      5  C   UNL     1      34.104   2.632  36.041  0.00  0.00    +0.000 A 
ATOM      6  C   UNL     1      33.790   1.386  35.543  0.00  0.00    +0.000 A 
ENDROOT
BRANCH   6   7
ATOM      7  C   UNL     1      33.827   0.230  36.442  0.00  0.00    +0.000 A 
ATOM      8  C   UNL     1      34.984  -0.432  36.777  0.00  0.00    +0.000 A 
ATOM      9  C   UNL     1      34.632  -1.474  37.635  0.00  0.00    +0.000 A 
ATOM     10  N   UNL     1      35.502  -2.459  38.235  0.00  0.00    +0.000 NA
ATOM     11  O   UNL     1      33.317  -1.391  37.779  0.00  0.00    +0.000 OA
ATOM     12  N   UNL     1      32.830  -0.376  37.070  0.00  0.00    +0.000 NA
ENDBRANCH   6   7
BRANCH   4  13
ATOM     13  C   UNL     1      34.415   5.105  35.851  0.00  0.00    +0.000 C 
ATOM     14  C   UNL     1      33.962   5.129  37.298  0.00  0.00    +0.000 C 
ATOM     15  C   UNL     1      33.636   6.180  35.074  0.00  0.00    +0.000 C 
BRANCH  13  16
ATOM     16  C   UNL     1      35.890   5.380  35.805  0.00  0.00    +0.000 C 
ATOM     17  C   UNL     1      36.266   6.508  34.893  0.00  0.00    +0.000 C 
ENDBRANCH  13  16
ENDBRANCH   4  13
BRANCH   1  18
ATOM     18  O   UNL     1      33.133  -0.037  33.797  0.00  0.00    +0.000 OA
BRANCH  18  20
ATOM     19  C   UNL     1      33.575  -2.391  33.702  0.00  0.00    +0.000 C 
ATOM     20  C   UNL     1      33.961  -0.998  33.234  0.00  0.00    +0.000 C 
ENDBRANCH  18  20
ENDBRANCH   1  18
TORSDOF 5
ENDMDL
MODEL 3
REMARK VINA RESULT:      -5.9     20.007     21.632
REMARK  Name = 
REMARK  5 active torsions:
REMARK  status: ('A' for Active; 'I' for Inactive)
REMARK    1  A    between atoms: C_2  and  O_3
REMARK    2  A    between atoms: O_3  and  C_4
REMARK    3  A    between atoms: C_7  and  C_8
REMARK    4  A    between atoms: C_8  and  C_11
REMARK    5  A    between atoms: C_14  and  C_15
REMARK                            x       y       z     vdW  Elec       q    Type
REMARK                         _______ _______ _______ _____ _____    ______ ____
ROOT
ATOM      1  C   UNL     1      19.530  10.610  38.787  0.00  0.00    +0.000 A 
ATOM      2  C   UNL     1      19.913  10.180  40.057  0.00  0.00    +0.000 A 
ATOM      3  C   UNL     1      19.012   9.563  40.895  0.00  0.00    +0.000 A 
ATOM      4  C   UNL     1      17.687   9.345  40.512  0.00  0.00    +0.000 A 
ATOM      5  C   UNL     1      17.325   9.781  39.249  0.00  0.00    +0.000 A 
ATOM      6  C   UNL     1      18.216  10.400  38.398  0.00  0.00    +0.000 A 
ENDROOT
BRANCH   6   7
ATOM      7  C   UNL     1      17.751  10.840  37.080  0.00  0.00    +0.000 A 
ATOM      8  C   UNL     1      17.718  10.022  35.976  0.00  0.00    +0.000 A 
ATOM      9  C   UNL     1      17.233  10.782  34.912  0.00  0.00    +0.000 A 
ATOM     10  N   UNL     1      17.041  10.365  33.542  0.00  0.00    +0.000 NA
ATOM     11  O   UNL     1      16.997  11.987  35.410  0.00  0.00    +0.000 OA
ATOM     12  N   UNL     1      17.303  12.029  36.704  0.00  0.00    +0.000 NA
ENDBRANCH   6   7
BRANCH   4  13
ATOM     13  C   UNL     1      16.676   8.696  41.405  0.00  0.00    +0.000 C 
ATOM     14  C   UNL     1      16.664   7.203  41.139  0.00  0.00    +0.000 C 
ATOM     15  C   UNL     1      15.292   9.269  41.055  0.00  0.00    +0.000 C 
BRANCH  13  16
ATOM     16  C   UNL     1      16.993   8.923  42.855  0.00  0.00    +0.000 C 
ATOM     17  C   UNL     1      16.362  10.156  43.426  0.00  0.00    +0.000 C 
ENDBRANCH  13  16
ENDBRANCH   4  13
BRANCH   1  18
ATOM     18  O   UNL     1      20.348  11.235  37.887  0.00  0.00    +0.000 OA
BRANCH  18  20
ATOM     19  C   UNL     1      21.796   9.851  36.572  0.00  0.00    +0.000 C 
ATOM     20  C   UNL     1      21.677  10.978  37.584  0.00  0.00    +0.000 C 
ENDBRANCH  18  20
ENDBRANCH   1  18
TORSDOF 5
ENDMDL
MODEL 4
REMARK VINA RESULT:      -5.9      4.296      6.149
REMARK  Name = 
REMARK  5 active torsions:
REMARK  status: ('A' for Active; 'I' for Inactive)
REMARK    1  A    between atoms: C_2  and  O_3
REMARK    2  A    between atoms: O_3  and  C_4
REMARK    3  A    between atoms: C_7  and  C_8
REMARK    4  A    between atoms: C_8  and  C_11
REMARK    5  A    between atoms: C_14  and  C_15
REMARK                            x       y       z     vdW  Elec       q    Type
REMARK                         _______ _______ _______ _____ _____    ______ ____
ROOT
ATOM      1  C   UNL     1      29.943  22.368  26.632  0.00  0.00    +0.000 A 
ATOM      2  C   UNL     1      30.480  22.329  25.345  0.00  0.00    +0.000 A 
ATOM      3  C   UNL     1      29.791  22.857  24.277  0.00  0.00    +0.000 A 
ATOM      4  C   UNL     1      28.535  23.448  24.435  0.00  0.00    +0.000 A 
ATOM      5  C   UNL     1      28.018  23.473  25.719  0.00  0.00    +0.000 A 
ATOM      6  C   UNL     1      28.695  22.950  26.799  0.00  0.00    +0.000 A 
ENDROOT
BRANCH   6   7
ATOM      7  C   UNL     1      28.074  23.009  28.124  0.00  0.00    +0.000 A 
ATOM      8  C   UNL     1      27.286  22.006  28.637  0.00  0.00    +0.000 A 
ATOM      9  C   UNL     1      26.867  22.415  29.903  0.00  0.00    +0.000 A 
ATOM     10  N   UNL     1      26.005  21.708  30.821  0.00  0.00    +0.000 NA
ATOM     11  O   UNL     1      27.412  23.609  30.093  0.00  0.00    +0.000 OA
ATOM     12  N   UNL     1      28.134  23.969  29.035  0.00  0.00    +0.000 NA
ENDBRANCH   6   7
BRANCH   4  13
ATOM     13  C   UNL     1      27.750  24.013  23.292  0.00  0.00    +0.000 C 
ATOM     14  C   UNL     1      27.634  25.515  23.464  0.00  0.00    +0.000 C 
ATOM     15  C   UNL     1      26.339  23.402  23.336  0.00  0.00    +0.000 C 
BRANCH  13  16
ATOM     16  C   UNL     1      28.411  23.730  21.974  0.00  0.00    +0.000 C 
ATOM     17  C   UNL     1      29.104  24.916  21.378  0.00  0.00    +0.000 C 
ENDBRANCH  13  16
ENDBRANCH   4  13
BRANCH   1  18
ATOM     18  O   UNL     1      30.546  21.867  27.752  0.00  0.00    +0.000 OA
BRANCH  18  20
ATOM     19  C   UNL     1      31.403  22.635  29.853  0.00  0.00    +0.000 C 
ATOM     20  C   UNL     1      31.693  22.302  28.400  0.00  0.00    +0.000 C 
ENDBRANCH  18  20
ENDBRANCH   1  18
TORSDOF 5
ENDMDL
MODEL 5
REMARK VINA RESULT:      -5.7     27.529     30.588
REMARK  Name = 
REMARK  5 active torsions:
REMARK  status: ('A' for Active; 'I' for Inactive)
REMARK    1  A    between atoms: C_2  and  O_3
REMARK    2  A    between atoms: O_3  and  C_4
REMARK    3  A    between atoms: C_7  and  C_8
REMARK    4  A    between atoms: C_8  and  C_11
REMARK    5  A    between atoms: C_14  and  C_15
REMARK                            x       y       z     vdW  Elec       q    Type
REMARK                         _______ _______ _______ _____ _____    ______ ____
ROOT
ATOM      1  C   UNL     1      34.674  -3.918  34.805  0.00  0.00    +0.000 A 
ATOM      2  C   UNL     1      35.161  -5.202  34.562  0.00  0.00    +0.000 A 
ATOM      3  C   UNL     1      34.846  -5.869  33.401  0.00  0.00    +0.000 A 
ATOM      4  C   UNL     1      34.029  -5.294  32.425  0.00  0.00    +0.000 A 
ATOM      5  C   UNL     1      33.553  -4.021  32.685  0.00  0.00    +0.000 A 
ATOM      6  C   UNL     1      33.860  -3.339  33.843  0.00  0.00    +0.000 A 
ENDROOT
BRANCH   6   7
ATOM      7  C   UNL     1      33.308  -1.998  34.046  0.00  0.00    +0.000 A 
ATOM      8  C   UNL     1      33.833  -0.866  33.468  0.00  0.00    +0.000 A 
ATOM      9  C   UNL     1      33.061   0.214  33.894  0.00  0.00    +0.000 A 
ATOM     10  N   UNL     1      33.237   1.610  33.570  0.00  0.00    +0.000 NA
ATOM     11  O   UNL     1      32.128  -0.301  34.683  0.00  0.00    +0.000 OA
ATOM     12  N   UNL     1      32.270  -1.621  34.778  0.00  0.00    +0.000 NA
ENDBRANCH   6   7
BRANCH   4  13
ATOM     13  C   UNL     1      33.649  -5.999  31.160  0.00  0.00    +0.000 C 
ATOM     14  C   UNL     1      32.182  -6.378  31.224  0.00  0.00    +0.000 C 
ATOM     15  C   UNL     1      34.486  -7.286  31.063  0.00  0.00    +0.000 C 
BRANCH  13  16
ATOM     16  C   UNL     1      33.869  -5.131  29.955  0.00  0.00    +0.000 C 
ATOM     17  C   UNL     1      33.665  -5.842  28.653  0.00  0.00    +0.000 C 
ENDBRANCH  13  16
ENDBRANCH   4  13
BRANCH   1  18
ATOM     18  O   UNL     1      34.926  -3.179  35.927  0.00  0.00    +0.000 OA
BRANCH  18  20
ATOM     19  C   UNL     1      35.880  -1.090  36.613  0.00  0.00    +0.000 C 
ATOM     20  C   UNL     1      36.105  -2.565  36.326  0.00  0.00    +0.000 C 
ENDBRANCH  18  20
ENDBRANCH   1  18
TORSDOF 5
ENDMDL
MODEL 6
REMARK VINA RESULT:      -5.6     28.218     30.951
REMARK  Name = 
REMARK  5 active torsions:
REMARK  status: ('A' for Active; 'I' for Inactive)
REMARK    1  A    between atoms: C_2  and  O_3
REMARK    2  A    between atoms: O_3  and  C_4
REMARK    3  A    between atoms: C_7  and  C_8
REMARK    4  A    between atoms: C_8  and  C_11
REMARK    5  A    between atoms: C_14  and  C_15
REMARK                            x       y       z     vdW  Elec       q    Type
REMARK                         _______ _______ _______ _____ _____    ______ ____
ROOT
ATOM      1  C   UNL     1      34.337  -5.649  33.737  0.00  0.00    +0.000 A 
ATOM      2  C   UNL     1      34.815  -5.043  34.898  0.00  0.00    +0.000 A 
ATOM      3  C   UNL     1      34.633  -3.697  35.118  0.00  0.00    +0.000 A 
ATOM      4  C   UNL     1      33.969  -2.887  34.194  0.00  0.00    +0.000 A 
ATOM      5  C   UNL     1      33.504  -3.507  33.046  0.00  0.00    +0.000 A 
ATOM      6  C   UNL     1      33.678  -4.854  32.812  0.00  0.00    +0.000 A 
ENDROOT
BRANCH   6   7
ATOM      7  C   UNL     1      33.163  -5.431  31.568  0.00  0.00    +0.000 A 
ATOM      8  C   UNL     1      33.805  -5.317  30.358  0.00  0.00    +0.000 A 
ATOM      9  C   UNL     1      33.022  -5.975  29.410  0.00  0.00    +0.000 A 
ATOM     10  N   UNL     1      33.271  -6.107  27.993  0.00  0.00    +0.000 NA
ATOM     11  O   UNL     1      31.976  -6.448  30.074  0.00  0.00    +0.000 OA
ATOM     12  N   UNL     1      32.055  -6.127  31.363  0.00  0.00    +0.000 NA
ENDBRANCH   6   7
BRANCH   4  13
ATOM     13  C   UNL     1      33.772  -1.417  34.391  0.00  0.00    +0.000 C 
ATOM     14  C   UNL     1      34.715  -0.930  35.474  0.00  0.00    +0.000 C 
ATOM     15  C   UNL     1      32.325  -1.189  34.861  0.00  0.00    +0.000 C 
BRANCH  13  16
ATOM     16  C   UNL     1      34.049  -0.647  33.132  0.00  0.00    +0.000 C 
ATOM     17  C   UNL     1      33.620   0.787  33.193  0.00  0.00    +0.000 C 
ENDBRANCH  13  16
ENDBRANCH   4  13
BRANCH   1  18
ATOM     18  O   UNL     1      34.473  -6.974  33.427  0.00  0.00    +0.000 OA
BRANCH  18  20
ATOM     19  C   UNL     1      35.337  -8.445  31.744  0.00  0.00    +0.000 C 
ATOM     20  C   UNL     1      35.603  -7.669  33.023  0.00  0.00    +0.000 C 
ENDBRANCH  18  20
ENDBRANCH   1  18
TORSDOF 5
ENDMDL
MODEL 7
REMARK VINA RESULT:      -5.5     32.122     34.058
REMARK  Name = 
REMARK  5 active torsions:
REMARK  status: ('A' for Active; 'I' for Inactive)
REMARK    1  A    between atoms: C_2  and  O_3
REMARK    2  A    between atoms: O_3  and  C_4
REMARK    3  A    between atoms: C_7  and  C_8
REMARK    4  A    between atoms: C_8  and  C_11
REMARK    5  A    between atoms: C_14  and  C_15
REMARK                            x       y       z     vdW  Elec       q    Type
REMARK                         _______ _______ _______ _____ _____    ______ ____
ROOT
ATOM      1  C   UNL     1      19.401  -7.341  26.631  0.00  0.00    +0.000 A 
ATOM      2  C   UNL     1      19.862  -6.274  25.860  0.00  0.00    +0.000 A 
ATOM      3  C   UNL     1      20.997  -6.397  25.091  0.00  0.00    +0.000 A 
ATOM      4  C   UNL     1      21.730  -7.586  25.052  0.00  0.00    +0.000 A 
ATOM      5  C   UNL     1      21.258  -8.632  25.827  0.00  0.00    +0.000 A 
ATOM      6  C   UNL     1      20.123  -8.524  26.601  0.00  0.00    +0.000 A 
ENDROOT
BRANCH   6   7
ATOM      7  C   UNL     1      19.695  -9.676  27.399  0.00  0.00    +0.000 A 
ATOM      8  C   UNL     1      20.194  -9.960  28.648  0.00  0.00    +0.000 A 
ATOM      9  C   UNL     1      19.567 -11.124  29.090  0.00  0.00    +0.000 A 
ATOM     10  N   UNL     1      19.778 -11.825  30.335  0.00  0.00    +0.000 NA
ATOM     11  O   UNL     1      18.737 -11.476  28.118  0.00  0.00    +0.000 OA
ATOM     12  N   UNL     1      18.808 -10.616  27.105  0.00  0.00    +0.000 NA
ENDBRANCH   6   7
BRANCH   4  13
ATOM     13  C   UNL     1      22.979  -7.748  24.244  0.00  0.00    +0.000 C 
ATOM     14  C   UNL     1      22.606  -7.931  22.786  0.00  0.00    +0.000 C 
ATOM     15  C   UNL     1      23.700  -9.017  24.730  0.00  0.00    +0.000 C 
BRANCH  13  16
ATOM     16  C   UNL     1      23.875  -6.549  24.364  0.00  0.00    +0.000 C 
ATOM     17  C   UNL     1      25.172  -6.688  23.628  0.00  0.00    +0.000 C 
ENDBRANCH  13  16
ENDBRANCH   4  13
BRANCH   1  18
ATOM     18  O   UNL     1      18.291  -7.313  27.429  0.00  0.00    +0.000 OA
BRANCH  18  20
ATOM     19  C   UNL     1      16.397  -7.870  26.070  0.00  0.00    +0.000 C 
ATOM     20  C   UNL     1      16.993  -6.939  27.113  0.00  0.00    +0.000 C 
ENDBRANCH  18  20
ENDBRANCH   1  18
TORSDOF 5
ENDMDL
MODEL 8
REMARK VINA RESULT:      -5.5      2.514      5.678
REMARK  Name = 
REMARK  5 active torsions:
REMARK  status: ('A' for Active; 'I' for Inactive)
REMARK    1  A    between atoms: C_2  and  O_3
REMARK    2  A    between atoms: O_3  and  C_4
REMARK    3  A    between atoms: C_7  and  C_8
REMARK    4  A    between atoms: C_8  and  C_11
REMARK    5  A    between atoms: C_14  and  C_15
REMARK                            x       y       z     vdW  Elec       q    Type
REMARK                         _______ _______ _______ _____ _____    ______ ____
ROOT
ATOM      1  C   UNL     1      27.857  23.094  24.792  0.00  0.00    +0.000 A 
ATOM      2  C   UNL     1      27.742  22.537  26.066  0.00  0.00    +0.000 A 
ATOM      3  C   UNL     1      28.786  22.599  26.960  0.00  0.00    +0.000 A 
ATOM      4  C   UNL     1      29.995  23.217  26.633  0.00  0.00    +0.000 A 
ATOM      5  C   UNL     1      30.091  23.761  25.363  0.00  0.00    +0.000 A 
ATOM      6  C   UNL     1      29.054  23.707  24.457  0.00  0.00    +0.000 A 
ENDROOT
BRANCH   6   7
ATOM      7  C   UNL     1      29.239  24.300  23.130  0.00  0.00    +0.000 A 
ATOM      8  C   UNL     1      29.180  25.652  22.889  0.00  0.00    +0.000 A 
ATOM      9  C   UNL     1      29.390  25.839  21.523  0.00  0.00    +0.000 A 
ATOM     10  N   UNL     1      29.397  27.084  20.791  0.00  0.00    +0.000 NA
ATOM     11  O   UNL     1      29.569  24.626  21.018  0.00  0.00    +0.000 OA
ATOM     12  N   UNL     1      29.480  23.703  21.971  0.00  0.00    +0.000 NA
ENDBRANCH   6   7
BRANCH   4  13
ATOM     13  C   UNL     1      31.157  23.285  27.574  0.00  0.00    +0.000 C 
ATOM     14  C   UNL     1      30.787  24.154  28.759  0.00  0.00    +0.000 C 
ATOM     15  C   UNL     1      32.334  23.941  26.831  0.00  0.00    +0.000 C 
BRANCH  13  16
ATOM     16  C   UNL     1      31.541  21.923  28.078  0.00  0.00    +0.000 C 
ATOM     17  C   UNL     1      32.468  21.954  29.254  0.00  0.00    +0.000 C 
ENDBRANCH  13  16
ENDBRANCH   4  13
BRANCH   1  18
ATOM     18  O   UNL     1      26.881  23.078  23.835  0.00  0.00    +0.000 OA
BRANCH  18  20
ATOM     19  C   UNL     1      25.466  24.881  24.535  0.00  0.00    +0.000 C 
ATOM     20  C   UNL     1      25.561  23.494  23.921  0.00  0.00    +0.000 C 
ENDBRANCH  18  20
ENDBRANCH   1  18
TORSDOF 5
ENDMDL
MODEL 9
REMARK VINA RESULT:      -5.5     18.758     20.276
REMARK  Name = 
REMARK  5 active torsions:
REMARK  status: ('A' for Active; 'I' for Inactive)
REMARK    1  A    between atoms: C_2  and  O_3
REMARK    2  A    between atoms: O_3  and  C_4
REMARK    3  A    between atoms: C_7  and  C_8
REMARK    4  A    between atoms: C_8  and  C_11
REMARK    5  A    between atoms: C_14  and  C_15
REMARK                            x       y       z     vdW  Elec       q    Type
REMARK                         _______ _______ _______ _____ _____    ______ ____
ROOT
ATOM      1  C   UNL     1      19.621   9.757  39.401  0.00  0.00    +0.000 A 
ATOM      2  C   UNL     1      18.303   9.582  39.824  0.00  0.00    +0.000 A 
ATOM      3  C   UNL     1      17.253  10.077  39.085  0.00  0.00    +0.000 A 
ATOM      4  C   UNL     1      17.461  10.771  37.891  0.00  0.00    +0.000 A 
ATOM      5  C   UNL     1      18.775  10.937  37.489  0.00  0.00    +0.000 A 
ATOM      6  C   UNL     1      19.838  10.446  38.218  0.00  0.00    +0.000 A 
ENDROOT
BRANCH   6   7
ATOM      7  C   UNL     1      21.200  10.672  37.728  0.00  0.00    +0.000 A 
ATOM      8  C   UNL     1      21.823   9.853  36.817  0.00  0.00    +0.000 A 
ATOM      9  C   UNL     1      23.100  10.370  36.600  0.00  0.00    +0.000 A 
ATOM     10  N   UNL     1      24.134   9.842  35.742  0.00  0.00    +0.000 NA
ATOM     11  O   UNL     1      23.184  11.451  37.364  0.00  0.00    +0.000 OA
ATOM     12  N   UNL     1      22.053  11.637  38.040  0.00  0.00    +0.000 NA
ENDBRANCH   6   7
BRANCH   4  13
ATOM     13  C   UNL     1      16.343  11.340  37.074  0.00  0.00    +0.000 C 
ATOM     14  C   UNL     1      16.583  12.823  36.868  0.00  0.00    +0.000 C 
ATOM     15  C   UNL     1      15.035  11.158  37.863  0.00  0.00    +0.000 C 
BRANCH  13  16
ATOM     16  C   UNL     1      16.248  10.677  35.730  0.00  0.00    +0.000 C 
ATOM     17  C   UNL     1      16.579  11.584  34.584  0.00  0.00    +0.000 C 
ENDBRANCH  13  16
ENDBRANCH   4  13
BRANCH   1  18
ATOM     18  O   UNL     1      20.728   9.308  40.066  0.00  0.00    +0.000 OA
BRANCH  18  20
ATOM     19  C   UNL     1      22.586   7.801  40.204  0.00  0.00    +0.000 C 
ATOM     20  C   UNL     1      21.092   8.009  40.386  0.00  0.00    +0.000 C 
ENDBRANCH  18  20
ENDBRANCH   1  18
TORSDOF 5
ENDMDL
MODEL 10
REMARK VINA RESULT:      -5.4     31.756     33.695
REMARK  Name = 
REMARK  5 active torsions:
REMARK  status: ('A' for Active; 'I' for Inactive)
REMARK    1  A    between atoms: C_2  and  O_3
REMARK    2  A    between atoms: O_3  and  C_4
REMARK    3  A    between atoms: C_7  and  C_8
REMARK    4  A    between atoms: C_8  and  C_11
REMARK    5  A    between atoms: C_14  and  C_15
REMARK                            x       y       z     vdW  Elec       q    Type
REMARK                         _______ _______ _______ _____ _____    ______ ____
ROOT
ATOM      1  C   UNL     1      20.821  -9.427  26.656  0.00  0.00    +0.000 A 
ATOM      2  C   UNL     1      22.113  -9.912  26.454  0.00  0.00    +0.000 A 
ATOM      3  C   UNL     1      22.954  -9.321  25.540  0.00  0.00    +0.000 A 
ATOM      4  C   UNL     1      22.552  -8.219  24.780  0.00  0.00    +0.000 A 
ATOM      5  C   UNL     1      21.266  -7.754  24.993  0.00  0.00    +0.000 A 
ATOM      6  C   UNL     1      20.412  -8.335  25.906  0.00  0.00    +0.000 A 
ENDROOT
BRANCH   6   7
ATOM      7  C   UNL     1      19.062  -7.788  26.065  0.00  0.00    +0.000 A 
ATOM      8  C   UNL     1      17.927  -8.436  25.639  0.00  0.00    +0.000 A 
ATOM      9  C   UNL     1      16.841  -7.616  25.947  0.00  0.00    +0.000 A 
ATOM     10  N   UNL     1      15.444  -7.858  25.674  0.00  0.00    +0.000 NA
ATOM     11  O   UNL     1      17.357  -6.543  26.532  0.00  0.00    +0.000 OA
ATOM     12  N   UNL     1      18.682  -6.640  26.606  0.00  0.00    +0.000 NA
ENDBRANCH   6   7
BRANCH   4  13
ATOM     13  C   UNL     1      23.434  -7.565  23.763  0.00  0.00    +0.000 C 
ATOM     14  C   UNL     1      23.681  -6.126  24.172  0.00  0.00    +0.000 C 
ATOM     15  C   UNL     1      22.693  -7.573  22.415  0.00  0.00    +0.000 C 
BRANCH  13  16
ATOM     16  C   UNL     1      24.757  -8.265  23.646  0.00  0.00    +0.000 C 
ATOM     17  C   UNL     1      25.883  -7.364  23.239  0.00  0.00    +0.000 C 
ENDBRANCH  13  16
ENDBRANCH   4  13
BRANCH   1  18
ATOM     18  O   UNL     1      19.912  -9.948  27.535  0.00  0.00    +0.000 OA
BRANCH  18  20
ATOM     19  C   UNL     1      18.567  -9.334  29.420  0.00  0.00    +0.000 C 
ATOM     20  C   UNL     1      19.893  -9.880  28.920  0.00  0.00    +0.000 C 
ENDBRANCH  18  20
ENDBRANCH   1  18
TORSDOF 5
ENDMDL
