MODEL 1
REMARK VINA RESULT:      -6.1      0.000      0.000
REMARK  Name = 
REMARK  4 active torsions:
REMARK  status: ('A' for Active; 'I' for Inactive)
REMARK    1  A    between atoms: C_5  and  C_6
REMARK    2  A    between atoms: C_6  and  C_7
REMARK    3  A    between atoms: C_6  and  C_11
REMARK    4  A    between atoms: C_7  and  N_8
REMARK                            x       y       z     vdW  Elec       q    Type
REMARK                         _______ _______ _______ _____ _____    ______ ____
ROOT
ATOM      1  C   UNL     1      18.353   9.151  37.763  0.00  0.00    +0.000 C 
ENDROOT
BRANCH   1   2
ATOM      2  C   UNL     1      17.266  10.134  37.106  0.00  0.00    +0.000 A 
ATOM      3  C   UNL     1      16.379  10.839  37.873  0.00  0.00    +0.000 A 
ATOM      4  N   UNL     1      15.636  11.536  36.995  0.00  0.00    +0.000 NA
ATOM      5  C   UNL     1      16.028  11.286  35.729  0.00  0.00    +0.000 A 
ATOM      6  C   UNL     1      15.652  11.695  34.470  0.00  0.00    +0.000 A 
ATOM      7  C   UNL     1      16.285  11.232  33.340  0.00  0.00    +0.000 A 
ATOM      8  C   UNL     1      17.340  10.322  33.446  0.00  0.00    +0.000 A 
ATOM      9  C   UNL     1      17.732   9.901  34.696  0.00  0.00    +0.000 A 
ATOM     10  C   UNL     1      17.074  10.387  35.808  0.00  0.00    +0.000 A 
ENDBRANCH   1   2
BRANCH   1  15
ATOM     11  C   UNL     1      23.010  10.476  36.538  0.00  0.00    +0.000 C 
ATOM     12  C   UNL     1      21.656  10.554  37.175  0.00  0.00    +0.000 A 
ATOM     13  C   UNL     1      21.243  11.591  37.987  0.00  0.00    +0.000 A 
ATOM     14  C   UNL     1      19.935  11.222  38.332  0.00  0.00    +0.000 A 
ATOM     15  C   UNL     1      19.637  10.072  37.763  0.00  0.00    +0.000 A 
ATOM     16  O   UNL     1      20.664   9.671  37.071  0.00  0.00    +0.000 OA
ENDBRANCH   1  15
BRANCH   1  17
ATOM     17  C   UNL     1      17.891   9.435  39.307  0.00  0.00    +0.000 C 
BRANCH  17  18
ATOM     18  N   UNL     1      18.444   8.424  40.128  0.00  0.00    +0.000 N 
ATOM     19  O   UNL     1      18.631   7.291  39.686  0.00  0.00    +0.000 OA
ATOM     20  O   UNL     1      18.780   8.714  41.414  0.00  0.00    +0.000 OA
ENDBRANCH  17  18
ENDBRANCH   1  17
TORSDOF 4
ENDMDL
MODEL 2
REMARK VINA RESULT:      -6.1      1.995      3.774
REMARK  Name = 
REMARK  4 active torsions:
REMARK  status: ('A' for Active; 'I' for Inactive)
REMARK    1  A    between atoms: C_5  and  C_6
REMARK    2  A    between atoms: C_6  and  C_7
REMARK    3  A    between atoms: C_6  and  C_11
REMARK    4  A    between atoms: C_7  and  N_8
REMARK                            x       y       z     vdW  Elec       q    Type
REMARK                         _______ _______ _______ _____ _____    ______ ____
ROOT
ATOM      1  C   UNL     1      19.133  10.753  37.843  0.00  0.00    +0.000 C 
ENDROOT
BRANCH   1   2
ATOM      2  C   UNL     1      18.217  10.518  36.546  0.00  0.00    +0.000 A 
ATOM      3  C   UNL     1      18.465   9.498  35.668  0.00  0.00    +0.000 A 
ATOM      4  N   UNL     1      17.515   9.614  34.722  0.00  0.00    +0.000 NA
ATOM      5  C   UNL     1      16.701  10.658  34.984  0.00  0.00    +0.000 A 
ATOM      6  C   UNL     1      15.602  11.236  34.394  0.00  0.00    +0.000 A 
ATOM      7  C   UNL     1      14.981  12.336  34.941  0.00  0.00    +0.000 A 
ATOM      8  C   UNL     1      15.462  12.899  36.126  0.00  0.00    +0.000 A 
ATOM      9  C   UNL     1      16.561  12.335  36.732  0.00  0.00    +0.000 A 
ATOM     10  C   UNL     1      17.157  11.232  36.155  0.00  0.00    +0.000 A 
ENDBRANCH   1   2
BRANCH   1  15
ATOM     11  C   UNL     1      18.824   6.386  40.246  0.00  0.00    +0.000 C 
ATOM     12  C   UNL     1      18.471   7.782  39.833  0.00  0.00    +0.000 A 
ATOM     13  C   UNL     1      17.393   8.486  40.330  0.00  0.00    +0.000 A 
ATOM     14  C   UNL     1      17.477   9.714  39.657  0.00  0.00    +0.000 A 
ATOM     15  C   UNL     1      18.516   9.702  38.848  0.00  0.00    +0.000 A 
ATOM     16  O   UNL     1      19.112   8.548  38.951  0.00  0.00    +0.000 OA
ENDBRANCH   1  15
BRANCH   1  17
ATOM     17  C   UNL     1      20.377   9.832  37.312  0.00  0.00    +0.000 C 
BRANCH  17  18
ATOM     18  N   UNL     1      21.521  10.655  37.197  0.00  0.00    +0.000 N 
ATOM     19  O   UNL     1      22.450  10.337  36.455  0.00  0.00    +0.000 OA
ATOM     20  O   UNL     1      21.588  11.813  37.908  0.00  0.00    +0.000 OA
ENDBRANCH  17  18
ENDBRANCH   1  17
TORSDOF 4
ENDMDL
MODEL 3
REMARK VINA RESULT:      -6.0     19.230     21.402
REMARK  Name = 
REMARK  4 active torsions:
REMARK  status: ('A' for Active; 'I' for Inactive)
REMARK    1  A    between atoms: C_5  and  C_6
REMARK    2  A    between atoms: C_6  and  C_7
REMARK    3  A    between atoms: C_6  and  C_11
REMARK    4  A    between atoms: C_7  and  N_8
REMARK                            x       y       z     vdW  Elec       q    Type
REMARK                         _______ _______ _______ _____ _____    ______ ____
ROOT
ATOM      1  C   UNL     1      27.260  23.379  24.868  0.00  0.00    +0.000 C 
ENDROOT
BRANCH   1   2
ATOM      2  C   UNL     1      28.480  24.423  24.900  0.00  0.00    +0.000 A 
ATOM      3  C   UNL     1      28.269  25.769  25.028  0.00  0.00    +0.000 A 
ATOM      4  N   UNL     1      29.498  26.317  25.011  0.00  0.00    +0.000 NA
ATOM      5  C   UNL     1      30.446  25.367  24.877  0.00  0.00    +0.000 A 
ATOM      6  C   UNL     1      31.819  25.333  24.802  0.00  0.00    +0.000 A 
ATOM      7  C   UNL     1      32.507  24.150  24.663  0.00  0.00    +0.000 A 
ATOM      8  C   UNL     1      31.816  22.937  24.594  0.00  0.00    +0.000 A 
ATOM      9  C   UNL     1      30.442  22.950  24.668  0.00  0.00    +0.000 A 
ATOM     10  C   UNL     1      29.786  24.155  24.807  0.00  0.00    +0.000 A 
ENDBRANCH   1   2
BRANCH   1  15
ATOM     11  C   UNL     1      26.132  23.597  29.729  0.00  0.00    +0.000 C 
ATOM     12  C   UNL     1      26.033  23.862  28.258  0.00  0.00    +0.000 A 
ATOM     13  C   UNL     1      25.067  24.660  27.679  0.00  0.00    +0.000 A 
ATOM     14  C   UNL     1      25.381  24.602  26.314  0.00  0.00    +0.000 A 
ATOM     15  C   UNL     1      26.437  23.833  26.138  0.00  0.00    +0.000 A 
ATOM     16  O   UNL     1      26.827  23.390  27.298  0.00  0.00    +0.000 OA
ENDBRANCH   1  15
BRANCH   1  17
ATOM     17  C   UNL     1      26.393  24.202  23.751  0.00  0.00    +0.000 C 
BRANCH  17  18
ATOM     18  N   UNL     1      26.353  23.431  22.565  0.00  0.00    +0.000 N 
ATOM     19  O   UNL     1      27.326  23.388  21.813  0.00  0.00    +0.000 OA
ATOM     20  O   UNL     1      25.231  22.724  22.262  0.00  0.00    +0.000 OA
ENDBRANCH  17  18
ENDBRANCH   1  17
TORSDOF 4
ENDMDL
MODEL 4
REMARK VINA RESULT:      -6.0      2.511      5.591
REMARK  Name = 
REMARK  4 active torsions:
REMARK  status: ('A' for Active; 'I' for Inactive)
REMARK    1  A    between atoms: C_5  and  C_6
REMARK    2  A    between atoms: C_6  and  C_7
REMARK    3  A    between atoms: C_6  and  C_11
REMARK    4  A    between atoms: C_7  and  N_8
REMARK                            x       y       z     vdW  Elec       q    Type
REMARK                         _______ _______ _______ _____ _____    ______ ____
ROOT
ATOM      1  C   UNL     1      19.112   9.578  37.100  0.00  0.00    +0.000 C 
ENDROOT
BRANCH   1   2
ATOM      2  C   UNL     1      20.337  10.537  37.500  0.00  0.00    +0.000 A 
ATOM      3  C   UNL     1      20.145  11.681  38.225  0.00  0.00    +0.000 A 
ATOM      4  N   UNL     1      21.371  12.217  38.362  0.00  0.00    +0.000 NA
ATOM      5  C   UNL     1      22.300  11.452  37.752  0.00  0.00    +0.000 A 
ATOM      6  C   UNL     1      23.663  11.496  37.568  0.00  0.00    +0.000 A 
ATOM      7  C   UNL     1      24.330  10.517  36.869  0.00  0.00    +0.000 A 
ATOM      8  C   UNL     1      23.629   9.439  36.322  0.00  0.00    +0.000 A 
ATOM      9  C   UNL     1      22.265   9.377  36.495  0.00  0.00    +0.000 A 
ATOM     10  C   UNL     1      21.629  10.377  37.202  0.00  0.00    +0.000 A 
ENDBRANCH   1   2
BRANCH   1  15
ATOM     11  C   UNL     1      15.929   9.415  40.946  0.00  0.00    +0.000 C 
ATOM     12  C   UNL     1      17.154   9.129  40.132  0.00  0.00    +0.000 A 
ATOM     13  C   UNL     1      18.186   8.313  40.549  0.00  0.00    +0.000 A 
ATOM     14  C   UNL     1      19.082   8.356  39.471  0.00  0.00    +0.000 A 
ATOM     15  C   UNL     1      18.595   9.133  38.525  0.00  0.00    +0.000 A 
ATOM     16  O   UNL     1      17.443   9.596  38.918  0.00  0.00    +0.000 OA
ENDBRANCH   1  15
BRANCH   1  17
ATOM     17  C   UNL     1      18.046  10.796  36.861  0.00  0.00    +0.000 C 
BRANCH  17  18
ATOM     18  N   UNL     1      17.397  10.581  35.622  0.00  0.00    +0.000 N 
ATOM     19  O   UNL     1      17.021  11.533  34.939  0.00  0.00    +0.000 OA
ATOM     20  O   UNL     1      17.198   9.310  35.181  0.00  0.00    +0.000 OA
ENDBRANCH  17  18
ENDBRANCH   1  17
TORSDOF 4
ENDMDL
MODEL 5
REMARK VINA RESULT:      -5.9     19.131     20.968
REMARK  Name = 
REMARK  4 active torsions:
REMARK  status: ('A' for Active; 'I' for Inactive)
REMARK    1  A    between atoms: C_5  and  C_6
REMARK    2  A    between atoms: C_6  and  C_7
REMARK    3  A    between atoms: C_6  and  C_11
REMARK    4  A    between atoms: C_7  and  N_8
REMARK                            x       y       z     vdW  Elec       q    Type
REMARK                         _______ _______ _______ _____ _____    ______ ____
ROOT
ATOM      1  C   UNL     1      26.912  23.174  25.078  0.00  0.00    +0.000 C 
ENDROOT
BRANCH   1   2
ATOM      2  C   UNL     1      28.352  23.866  25.241  0.00  0.00    +0.000 A 
ATOM      3  C   UNL     1      28.660  25.039  24.609  0.00  0.00    +0.000 A 
ATOM      4  N   UNL     1      29.928  25.307  24.969  0.00  0.00    +0.000 NA
ATOM      5  C   UNL     1      30.406  24.349  25.790  0.00  0.00    +0.000 A 
ATOM      6  C   UNL     1      31.588  24.100  26.448  0.00  0.00    +0.000 A 
ATOM      7  C   UNL     1      31.755  22.987  27.240  0.00  0.00    +0.000 A 
ATOM      8  C   UNL     1      30.712  22.071  27.396  0.00  0.00    +0.000 A 
ATOM      9  C   UNL     1      29.521  22.302  26.746  0.00  0.00    +0.000 A 
ATOM     10  C   UNL     1      29.390  23.429  25.960  0.00  0.00    +0.000 A 
ENDBRANCH   1   2
BRANCH   1  15
ATOM     11  C   UNL     1      23.448  26.150  27.100  0.00  0.00    +0.000 C 
ATOM     12  C   UNL     1      24.581  25.173  27.027  0.00  0.00    +0.000 A 
ATOM     13  C   UNL     1      25.205  24.629  28.131  0.00  0.00    +0.000 A 
ATOM     14  C   UNL     1      26.179  23.793  27.567  0.00  0.00    +0.000 A 
ATOM     15  C   UNL     1      26.109  23.860  26.253  0.00  0.00    +0.000 A 
ATOM     16  O   UNL     1      25.154  24.684  25.929  0.00  0.00    +0.000 OA
ENDBRANCH   1  15
BRANCH   1  17
ATOM     17  C   UNL     1      26.410  24.164  23.876  0.00  0.00    +0.000 C 
BRANCH  17  18
ATOM     18  N   UNL     1      26.295  23.399  22.691  0.00  0.00    +0.000 N 
ATOM     19  O   UNL     1      27.214  23.368  21.874  0.00  0.00    +0.000 OA
ATOM     20  O   UNL     1      25.159  22.686  22.461  0.00  0.00    +0.000 OA
ENDBRANCH  17  18
ENDBRANCH   1  17
TORSDOF 4
ENDMDL
MODEL 6
REMARK VINA RESULT:      -5.9     19.900     21.988
REMARK  Name = 
REMARK  4 active torsions:
REMARK  status: ('A' for Active; 'I' for Inactive)
REMARK    1  A    between atoms: C_5  and  C_6
REMARK    2  A    between atoms: C_6  and  C_7
REMARK    3  A    between atoms: C_6  and  C_11
REMARK    4  A    between atoms: C_7  and  N_8
REMARK                            x       y       z     vdW  Elec       q    Type
REMARK                         _______ _______ _______ _____ _____    ______ ____
ROOT
ATOM      1  C   UNL     1      29.312  23.128  24.248  0.00  0.00    +0.000 C 
ENDROOT
BRANCH   1   2
ATOM      2  C   UNL     1      30.536  23.734  25.092  0.00  0.00    +0.000 A 
ATOM      3  C   UNL     1      31.227  24.834  24.664  0.00  0.00    +0.000 A 
ATOM      4  N   UNL     1      32.165  25.045  25.605  0.00  0.00    +0.000 NA
ATOM      5  C   UNL     1      32.077  24.123  26.586  0.00  0.00    +0.000 A 
ATOM      6  C   UNL     1      32.742  23.848  27.758  0.00  0.00    +0.000 A 
ATOM      7  C   UNL     1      32.386  22.789  28.561  0.00  0.00    +0.000 A 
ATOM      8  C   UNL     1      31.323  21.957  28.199  0.00  0.00    +0.000 A 
ATOM      9  C   UNL     1      30.644  22.216  27.031  0.00  0.00    +0.000 A 
ATOM     10  C   UNL     1      31.030  23.286  26.250  0.00  0.00    +0.000 A 
ENDBRANCH   1   2
BRANCH   1  15
ATOM     11  C   UNL     1      26.224  26.095  26.818  0.00  0.00    +0.000 C 
ATOM     12  C   UNL     1      26.814  24.832  26.268  0.00  0.00    +0.000 A 
ATOM     13  C   UNL     1      26.322  23.570  26.532  0.00  0.00    +0.000 A 
ATOM     14  C   UNL     1      27.187  22.734  25.811  0.00  0.00    +0.000 A 
ATOM     15  C   UNL     1      28.092  23.465  25.193  0.00  0.00    +0.000 A 
ATOM     16  O   UNL     1      27.871  24.719  25.464  0.00  0.00    +0.000 OA
ENDBRANCH   1  15
BRANCH   1  17
ATOM     17  C   UNL     1      29.169  24.418  23.251  0.00  0.00    +0.000 C 
BRANCH  17  18
ATOM     18  N   UNL     1      28.876  23.943  21.951  0.00  0.00    +0.000 N 
ATOM     19  O   UNL     1      27.897  23.224  21.753  0.00  0.00    +0.000 OA
ATOM     20  O   UNL     1      29.681  24.293  20.912  0.00  0.00    +0.000 OA
ENDBRANCH  17  18
ENDBRANCH   1  17
TORSDOF 4
ENDMDL
MODEL 7
REMARK VINA RESULT:      -5.8     20.378     21.675
REMARK  Name = 
REMARK  4 active torsions:
REMARK  status: ('A' for Active; 'I' for Inactive)
REMARK    1  A    between atoms: C_5  and  C_6
REMARK    2  A    between atoms: C_6  and  C_7
REMARK    3  A    between atoms: C_6  and  C_11
REMARK    4  A    between atoms: C_7  and  N_8
REMARK                            x       y       z     vdW  Elec       q    Type
REMARK                         _______ _______ _______ _____ _____    ______ ____
ROOT
ATOM      1  C   UNL     1      17.868  -9.823  27.301  0.00  0.00    +0.000 C 
ENDROOT
BRANCH   1   2
ATOM      2  C   UNL     1      18.072  -8.266  26.964  0.00  0.00    +0.000 A 
ATOM      3  C   UNL     1      17.098  -7.342  27.224  0.00  0.00    +0.000 A 
ATOM      4  N   UNL     1      17.612  -6.168  26.813  0.00  0.00    +0.000 NA
ATOM      5  C   UNL     1      18.854  -6.337  26.315  0.00  0.00    +0.000 A 
ATOM      6  C   UNL     1      19.827  -5.530  25.772  0.00  0.00    +0.000 A 
ATOM      7  C   UNL     1      21.033  -6.038  25.346  0.00  0.00    +0.000 A 
ATOM      8  C   UNL     1      21.300  -7.405  25.458  0.00  0.00    +0.000 A 
ATOM      9  C   UNL     1      20.340  -8.228  25.999  0.00  0.00    +0.000 A 
ATOM     10  C   UNL     1      19.143  -7.684  26.416  0.00  0.00    +0.000 A 
ENDBRANCH   1   2
BRANCH   1  15
ATOM     11  C   UNL     1      16.289 -10.400  32.004  0.00  0.00    +0.000 C 
ATOM     12  C   UNL     1      17.218 -10.092  30.870  0.00  0.00    +0.000 A 
ATOM     13  C   UNL     1      18.528  -9.691  31.029  0.00  0.00    +0.000 A 
ATOM     14  C   UNL     1      18.975  -9.528  29.710  0.00  0.00    +0.000 A 
ATOM     15  C   UNL     1      17.996  -9.814  28.876  0.00  0.00    +0.000 A 
ATOM     16  O   UNL     1      16.945 -10.151  29.567  0.00  0.00    +0.000 OA
ENDBRANCH   1  15
BRANCH   1  17
ATOM     17  C   UNL     1      16.234  -9.775  27.224  0.00  0.00    +0.000 C 
BRANCH  17  18
ATOM     18  N   UNL     1      15.818 -10.583  26.139  0.00  0.00    +0.000 N 
ATOM     19  O   UNL     1      15.127 -10.112  25.236  0.00  0.00    +0.000 OA
ATOM     20  O   UNL     1      16.194 -11.889  26.093  0.00  0.00    +0.000 OA
ENDBRANCH  17  18
ENDBRANCH   1  17
TORSDOF 4
ENDMDL
MODEL 8
REMARK VINA RESULT:      -5.7     20.480     22.129
REMARK  Name = 
REMARK  4 active torsions:
REMARK  status: ('A' for Active; 'I' for Inactive)
REMARK    1  A    between atoms: C_5  and  C_6
REMARK    2  A    between atoms: C_6  and  C_7
REMARK    3  A    between atoms: C_6  and  C_11
REMARK    4  A    between atoms: C_7  and  N_8
REMARK                            x       y       z     vdW  Elec       q    Type
REMARK                         _______ _______ _______ _____ _____    ______ ____
ROOT
ATOM      1  C   UNL     1      18.398  -7.818  25.867  0.00  0.00    +0.000 C 
ENDROOT
BRANCH   1   2
ATOM      2  C   UNL     1      18.953  -8.621  27.142  0.00  0.00    +0.000 A 
ATOM      3  C   UNL     1      18.241  -8.697  28.308  0.00  0.00    +0.000 A 
ATOM      4  N   UNL     1      19.006  -9.431  29.137  0.00  0.00    +0.000 NA
ATOM      5  C   UNL     1      20.151  -9.804  28.529  0.00  0.00    +0.000 A 
ATOM      6  C   UNL     1      21.266 -10.535  28.867  0.00  0.00    +0.000 A 
ATOM      7  C   UNL     1      22.296 -10.737  27.978  0.00  0.00    +0.000 A 
ATOM      8  C   UNL     1      22.231 -10.197  26.691  0.00  0.00    +0.000 A 
ATOM      9  C   UNL     1      21.124  -9.464  26.332  0.00  0.00    +0.000 A 
ATOM     10  C   UNL     1      20.110  -9.282  27.250  0.00  0.00    +0.000 A 
ENDBRANCH   1   2
BRANCH   1  15
ATOM     11  C   UNL     1      13.430  -8.301  26.033  0.00  0.00    +0.000 C 
ATOM     12  C   UNL     1      14.860  -8.649  25.751  0.00  0.00    +0.000 A 
ATOM     13  C   UNL     1      15.266  -9.826  25.156  0.00  0.00    +0.000 A 
ATOM     14  C   UNL     1      16.661  -9.694  25.108  0.00  0.00    +0.000 A 
ATOM     15  C   UNL     1      17.012  -8.538  25.633  0.00  0.00    +0.000 A 
ATOM     16  O   UNL     1      15.937  -7.912  26.018  0.00  0.00    +0.000 OA
ENDBRANCH   1  15
BRANCH   1  17
ATOM     17  C   UNL     1      17.832  -6.548  26.730  0.00  0.00    +0.000 C 
BRANCH  17  18
ATOM     18  N   UNL     1      18.561  -5.396  26.352  0.00  0.00    +0.000 N 
ATOM     19  O   UNL     1      18.149  -4.272  26.639  0.00  0.00    +0.000 OA
ATOM     20  O   UNL     1      19.731  -5.535  25.672  0.00  0.00    +0.000 OA
ENDBRANCH  17  18
ENDBRANCH   1  17
TORSDOF 4
ENDMDL
MODEL 9
REMARK VINA RESULT:      -5.7     30.683     32.722
REMARK  Name = 
REMARK  4 active torsions:
REMARK  status: ('A' for Active; 'I' for Inactive)
REMARK    1  A    between atoms: C_5  and  C_6
REMARK    2  A    between atoms: C_6  and  C_7
REMARK    3  A    between atoms: C_6  and  C_11
REMARK    4  A    between atoms: C_7  and  N_8
REMARK                            x       y       z     vdW  Elec       q    Type
REMARK                         _______ _______ _______ _____ _____    ______ ____
ROOT
ATOM      1  C   UNL     1      30.687  20.820  10.214  0.00  0.00    +0.000 C 
ENDROOT
BRANCH   1   2
ATOM      2  C   UNL     1      31.077  21.365   8.755  0.00  0.00    +0.000 A 
ATOM      3  C   UNL     1      31.799  22.516   8.588  0.00  0.00    +0.000 A 
ATOM      4  N   UNL     1      31.927  22.657   7.256  0.00  0.00    +0.000 NA
ATOM      5  C   UNL     1      31.315  21.646   6.605  0.00  0.00    +0.000 A 
ATOM      6  C   UNL     1      31.124  21.277   5.294  0.00  0.00    +0.000 A 
ATOM      7  C   UNL     1      30.425  20.141   4.957  0.00  0.00    +0.000 A 
ATOM      8  C   UNL     1      29.885  19.324   5.954  0.00  0.00    +0.000 A 
ATOM      9  C   UNL     1      30.066  19.676   7.272  0.00  0.00    +0.000 A 
ATOM     10  C   UNL     1      30.772  20.822   7.572  0.00  0.00    +0.000 A 
ENDBRANCH   1   2
BRANCH   1  15
ATOM     11  C   UNL     1      35.511  19.531  10.280  0.00  0.00    +0.000 C 
ATOM     12  C   UNL     1      34.192  20.033  10.781  0.00  0.00    +0.000 A 
ATOM     13  C   UNL     1      33.969  20.465  12.072  0.00  0.00    +0.000 A 
ATOM     14  C   UNL     1      32.615  20.829  12.058  0.00  0.00    +0.000 A 
ATOM     15  C   UNL     1      32.116  20.618  10.856  0.00  0.00    +0.000 A 
ATOM     16  O   UNL     1      33.057  20.143  10.092  0.00  0.00    +0.000 OA
ENDBRANCH   1  15
BRANCH   1  17
ATOM     17  C   UNL     1      30.381  22.299  10.845  0.00  0.00    +0.000 C 
BRANCH  17  18
ATOM     18  N   UNL     1      29.228  22.203  11.659  0.00  0.00    +0.000 N 
ATOM     19  O   UNL     1      29.321  22.251  12.885  0.00  0.00    +0.000 OA
ATOM     20  O   UNL     1      28.006  22.065  11.078  0.00  0.00    +0.000 OA
ENDBRANCH  17  18
ENDBRANCH   1  17
TORSDOF 4
ENDMDL
MODEL 10
REMARK VINA RESULT:      -5.5     19.028     20.810
REMARK  Name = 
REMARK  4 active torsions:
REMARK  status: ('A' for Active; 'I' for Inactive)
REMARK    1  A    between atoms: C_5  and  C_6
REMARK    2  A    between atoms: C_6  and  C_7
REMARK    3  A    between atoms: C_6  and  C_11
REMARK    4  A    between atoms: C_7  and  N_8
REMARK                            x       y       z     vdW  Elec       q    Type
REMARK                         _______ _______ _______ _____ _____    ______ ____
ROOT
ATOM      1  C   UNL     1      25.613  24.369  24.811  0.00  0.00    +0.000 C 
ENDROOT
BRANCH   1   2
ATOM      2  C   UNL     1      26.074  24.024  26.310  0.00  0.00    +0.000 A 
ATOM      3  C   UNL     1      26.997  23.049  26.570  0.00  0.00    +0.000 A 
ATOM      4  N   UNL     1      27.127  23.039  27.909  0.00  0.00    +0.000 NA
ATOM      5  C   UNL     1      26.324  23.962  28.476  0.00  0.00    +0.000 A 
ATOM      6  C   UNL     1      26.044  24.390  29.753  0.00  0.00    +0.000 A 
ATOM      7  C   UNL     1      25.137  25.396  29.996  0.00  0.00    +0.000 A 
ATOM      8  C   UNL     1      24.470  26.014  28.936  0.00  0.00    +0.000 A 
ATOM      9  C   UNL     1      24.736  25.601  27.651  0.00  0.00    +0.000 A 
ATOM     10  C   UNL     1      25.652  24.590  27.445  0.00  0.00    +0.000 A 
ENDBRANCH   1   2
BRANCH   1  15
ATOM     11  C   UNL     1      29.749  27.082  24.124  0.00  0.00    +0.000 C 
ATOM     12  C   UNL     1      28.291  26.765  24.248  0.00  0.00    +0.000 A 
ATOM     13  C   UNL     1      27.283  27.699  24.121  0.00  0.00    +0.000 A 
ATOM     14  C   UNL     1      26.119  26.941  24.313  0.00  0.00    +0.000 A 
ATOM     15  C   UNL     1      26.445  25.683  24.531  0.00  0.00    +0.000 A 
ATOM     16  O   UNL     1      27.742  25.576  24.492  0.00  0.00    +0.000 OA
ENDBRANCH   1  15
BRANCH   1  17
ATOM     17  C   UNL     1      26.639  23.314  24.096  0.00  0.00    +0.000 C 
BRANCH  17  18
ATOM     18  N   UNL     1      26.273  23.194  22.735  0.00  0.00    +0.000 N 
ATOM     19  O   UNL     1      27.032  23.579  21.846  0.00  0.00    +0.000 OA
ATOM     20  O   UNL     1      25.075  22.638  22.409  0.00  0.00    +0.000 OA
ENDBRANCH  17  18
ENDBRANCH   1  17
TORSDOF 4
ENDMDL
