MODEL 1
REMARK VINA RESULT:      -8.1      0.000      0.000
REMARK  Name = 
REMARK  7 active torsions:
REMARK  status: ('A' for Active; 'I' for Inactive)
REMARK    1  A    between atoms: C_5  and  S_6
REMARK    2  A    between atoms: S_6  and  C_7
REMARK    3  A    between atoms: C_7  and  C_8
REMARK    4  A    between atoms: N_10  and  C_11
REMARK    5  A    between atoms: C_16  and  C_17
REMARK    6  A    between atoms: N_19  and  C_20
REMARK    7  A    between atoms: C_20  and  C_22
REMARK                            x       y       z     vdW  Elec       q    Type
REMARK                         _______ _______ _______ _____ _____    ______ ____
ROOT
ATOM      1  C   UNL     1      39.835  -0.280  14.901  0.00  0.00    +0.000 A 
ATOM      2  C   UNL     1      40.898  -0.004  14.036  0.00  0.00    +0.000 A 
ATOM      3  C   UNL     1      41.781  -1.010  13.692  0.00  0.00    +0.000 A 
ATOM      4  C   UNL     1      41.598  -2.279  14.210  0.00  0.00    +0.000 A 
ATOM      5  C   UNL     1      40.533  -2.504  15.061  0.00  0.00    +0.000 A 
ATOM      6  C   UNL     1      39.630  -1.532  15.431  0.00  0.00    +0.000 A 
ENDROOT
BRANCH   1   9
ATOM      7  C   UNL     1      37.834   1.102  14.395  0.00  0.00    +0.000 C 
ATOM      8  O   UNL     1      37.775   0.513  13.289  0.00  0.00    +0.000 OA
ATOM      9  N   UNL     1      38.895   0.728  15.286  0.00  0.00    +0.000 NA
BRANCH   7  10
ATOM     10  C   UNL     1      36.826   2.137  14.726  0.00  0.00    +0.000 C 
BRANCH  10  11
ATOM     11  S   UNL     1      37.589   3.767  14.497  0.00  0.00    +0.000 S 
BRANCH  11  16
ATOM     12  C   UNL     1      40.227   6.146  19.400  0.00  0.00    +0.000 C 
ATOM     13  C   UNL     1      39.531   5.523  18.239  0.00  0.00    +0.000 A 
ATOM     14  C   UNL     1      38.484   4.653  18.369  0.00  0.00    +0.000 A 
ATOM     15  C   UNL     1      37.870   4.101  17.261  0.00  0.00    +0.000 A 
ATOM     16  C   UNL     1      38.302   4.415  15.978  0.00  0.00    +0.000 A 
ATOM     17  C   UNL     1      39.361   5.296  15.892  0.00  0.00    +0.000 A 
ATOM     18  C   UNL     1      39.977   5.851  16.983  0.00  0.00    +0.000 A 
ENDBRANCH  11  16
ENDBRANCH  10  11
ENDBRANCH   7  10
ENDBRANCH   1   9
BRANCH   6  19
ATOM     19  C   UNL     1      38.503  -1.771  16.331  0.00  0.00    +0.000 C 
ATOM     20  O   UNL     1      38.596  -1.539  17.566  0.00  0.00    +0.000 OA
ATOM     21  N   UNL     1      37.247  -2.267  15.927  0.00  0.00    +0.000 NA
BRANCH  21  22
ATOM     22  C   UNL     1      36.145  -2.466  17.013  0.00  0.00    +0.000 C 
ATOM     23  C   UNL     1      35.210  -1.270  16.418  0.00  0.00    +0.000 C 
BRANCH  22  24
ATOM     24  C   UNL     1      35.388  -3.639  16.252  0.00  0.00    +0.000 A 
ATOM     25  C   UNL     1      34.159  -3.358  15.692  0.00  0.00    +0.000 A 
ATOM     26  C   UNL     1      33.457  -4.332  15.011  0.00  0.00    +0.000 A 
ATOM     27  C   UNL     1      33.989  -5.590  14.893  0.00  0.00    +0.000 A 
ATOM     28  C   UNL     1      35.209  -5.831  15.461  0.00  0.00    +0.000 A 
ATOM     29  C   UNL     1      35.929  -4.858  16.149  0.00  0.00    +0.000 A 
ENDBRANCH  22  24
ENDBRANCH  21  22
ENDBRANCH   6  19
TORSDOF 7
ENDMDL
MODEL 2
REMARK VINA RESULT:      -8.0      1.966      2.773
REMARK  Name = 
REMARK  7 active torsions:
REMARK  status: ('A' for Active; 'I' for Inactive)
REMARK    1  A    between atoms: C_5  and  S_6
REMARK    2  A    between atoms: S_6  and  C_7
REMARK    3  A    between atoms: C_7  and  C_8
REMARK    4  A    between atoms: N_10  and  C_11
REMARK    5  A    between atoms: C_16  and  C_17
REMARK    6  A    between atoms: N_19  and  C_20
REMARK    7  A    between atoms: C_20  and  C_22
REMARK                            x       y       z     vdW  Elec       q    Type
REMARK                         _______ _______ _______ _____ _____    ______ ____
ROOT
ATOM      1  C   UNL     1      40.049  -0.420  14.626  0.00  0.00    +0.000 A 
ATOM      2  C   UNL     1      41.011   0.319  13.930  0.00  0.00    +0.000 A 
ATOM      3  C   UNL     1      42.224  -0.262  13.612  0.00  0.00    +0.000 A 
ATOM      4  C   UNL     1      42.468  -1.570  13.986  0.00  0.00    +0.000 A 
ATOM      5  C   UNL     1      41.487  -2.261  14.673  0.00  0.00    +0.000 A 
ATOM      6  C   UNL     1      40.266  -1.722  15.011  0.00  0.00    +0.000 A 
ENDROOT
BRANCH   1   9
ATOM      7  C   UNL     1      37.705   0.139  14.026  0.00  0.00    +0.000 C 
ATOM      8  O   UNL     1      37.931  -0.361  12.898  0.00  0.00    +0.000 OA
ATOM      9  N   UNL     1      38.779   0.137  14.978  0.00  0.00    +0.000 NA
BRANCH   7  10
ATOM     10  C   UNL     1      36.365   0.699  14.321  0.00  0.00    +0.000 C 
BRANCH  10  11
ATOM     11  S   UNL     1      36.449   2.502  14.138  0.00  0.00    +0.000 S 
BRANCH  11  16
ATOM     12  C   UNL     1      39.338   5.381  18.613  0.00  0.00    +0.000 C 
ATOM     13  C   UNL     1      38.582   4.640  17.563  0.00  0.00    +0.000 A 
ATOM     14  C   UNL     1      37.540   3.800  17.841  0.00  0.00    +0.000 A 
ATOM     15  C   UNL     1      36.869   3.135  16.832  0.00  0.00    +0.000 A 
ATOM     16  C   UNL     1      37.238   3.303  15.502  0.00  0.00    +0.000 A 
ATOM     17  C   UNL     1      38.294   4.158  15.267  0.00  0.00    +0.000 A 
ATOM     18  C   UNL     1      38.966   4.824  16.259  0.00  0.00    +0.000 A 
ENDBRANCH  11  16
ENDBRANCH  10  11
ENDBRANCH   7  10
ENDBRANCH   1   9
BRANCH   6  19
ATOM     19  C   UNL     1      39.230  -2.454  15.736  0.00  0.00    +0.000 C 
ATOM     20  O   UNL     1      38.411  -3.195  15.130  0.00  0.00    +0.000 OA
ATOM     21  N   UNL     1      39.045  -2.408  17.133  0.00  0.00    +0.000 NA
BRANCH  21  22
ATOM     22  C   UNL     1      37.890  -3.251  17.756  0.00  0.00    +0.000 C 
ATOM     23  C   UNL     1      38.560  -3.242  19.243  0.00  0.00    +0.000 C 
BRANCH  22  24
ATOM     24  C   UNL     1      36.924  -2.017  18.021  0.00  0.00    +0.000 A 
ATOM     25  C   UNL     1      35.810  -1.883  17.217  0.00  0.00    +0.000 A 
ATOM     26  C   UNL     1      34.929  -0.838  17.403  0.00  0.00    +0.000 A 
ATOM     27  C   UNL     1      35.166   0.076  18.396  0.00  0.00    +0.000 A 
ATOM     28  C   UNL     1      36.279  -0.087  19.173  0.00  0.00    +0.000 A 
ATOM     29  C   UNL     1      37.176  -1.138  18.998  0.00  0.00    +0.000 A 
ENDBRANCH  22  24
ENDBRANCH  21  22
ENDBRANCH   6  19
TORSDOF 7
ENDMDL
MODEL 3
REMARK VINA RESULT:      -7.9      2.271      8.495
REMARK  Name = 
REMARK  7 active torsions:
REMARK  status: ('A' for Active; 'I' for Inactive)
REMARK    1  A    between atoms: C_5  and  S_6
REMARK    2  A    between atoms: S_6  and  C_7
REMARK    3  A    between atoms: C_7  and  C_8
REMARK    4  A    between atoms: N_10  and  C_11
REMARK    5  A    between atoms: C_16  and  C_17
REMARK    6  A    between atoms: N_19  and  C_20
REMARK    7  A    between atoms: C_20  and  C_22
REMARK                            x       y       z     vdW  Elec       q    Type
REMARK                         _______ _______ _______ _____ _____    ______ ____
ROOT
ATOM      1  C   UNL     1      37.236   1.009  15.639  0.00  0.00    +0.000 A 
ATOM      2  C   UNL     1      36.434  -0.075  16.010  0.00  0.00    +0.000 A 
ATOM      3  C   UNL     1      35.203   0.152  16.596  0.00  0.00    +0.000 A 
ATOM      4  C   UNL     1      34.782   1.451  16.808  0.00  0.00    +0.000 A 
ATOM      5  C   UNL     1      35.609   2.491  16.426  0.00  0.00    +0.000 A 
ATOM      6  C   UNL     1      36.842   2.311  15.839  0.00  0.00    +0.000 A 
ENDROOT
BRANCH   1   9
ATOM      7  C   UNL     1      38.611   0.519  13.630  0.00  0.00    +0.000 C 
ATOM      8  O   UNL     1      37.538   0.423  12.987  0.00  0.00    +0.000 OA
ATOM      9  N   UNL     1      38.517   0.825  15.030  0.00  0.00    +0.000 NA
BRANCH   7  10
ATOM     10  C   UNL     1      39.902   0.315  12.932  0.00  0.00    +0.000 C 
BRANCH  10  11
ATOM     11  S   UNL     1      40.282  -1.459  12.947  0.00  0.00    +0.000 S 
BRANCH  11  16
ATOM     12  C   UNL     1      36.463  -4.694  16.354  0.00  0.00    +0.000 C 
ATOM     13  C   UNL     1      37.447  -3.888  15.577  0.00  0.00    +0.000 A 
ATOM     14  C   UNL     1      38.576  -3.348  16.125  0.00  0.00    +0.000 A 
ATOM     15  C   UNL     1      39.459  -2.608  15.362  0.00  0.00    +0.000 A 
ATOM     16  C   UNL     1      39.222  -2.389  14.010  0.00  0.00    +0.000 A 
ATOM     17  C   UNL     1      38.070  -2.950  13.497  0.00  0.00    +0.000 A 
ATOM     18  C   UNL     1      37.188  -3.688  14.244  0.00  0.00    +0.000 A 
ENDBRANCH  11  16
ENDBRANCH  10  11
ENDBRANCH   7  10
ENDBRANCH   1   9
BRANCH   6  19
ATOM     19  C   UNL     1      37.716   3.411  15.434  0.00  0.00    +0.000 C 
ATOM     20  O   UNL     1      37.824   3.745  14.224  0.00  0.00    +0.000 OA
ATOM     21  N   UNL     1      38.496   4.181  16.320  0.00  0.00    +0.000 NA
BRANCH  21  22
ATOM     22  C   UNL     1      39.378   5.324  15.729  0.00  0.00    +0.000 C 
ATOM     23  C   UNL     1      38.164   6.412  15.773  0.00  0.00    +0.000 C 
BRANCH  22  24
ATOM     24  C   UNL     1      40.019   5.759  17.117  0.00  0.00    +0.000 A 
ATOM     25  C   UNL     1      39.226   5.690  18.245  0.00  0.00    +0.000 A 
ATOM     26  C   UNL     1      39.728   6.046  19.480  0.00  0.00    +0.000 A 
ATOM     27  C   UNL     1      41.026   6.474  19.584  0.00  0.00    +0.000 A 
ATOM     28  C   UNL     1      41.781   6.530  18.445  0.00  0.00    +0.000 A 
ATOM     29  C   UNL     1      41.289   6.172  17.193  0.00  0.00    +0.000 A 
ENDBRANCH  22  24
ENDBRANCH  21  22
ENDBRANCH   6  19
TORSDOF 7
ENDMDL
MODEL 4
REMARK VINA RESULT:      -7.8      2.628      5.039
REMARK  Name = 
REMARK  7 active torsions:
REMARK  status: ('A' for Active; 'I' for Inactive)
REMARK    1  A    between atoms: C_5  and  S_6
REMARK    2  A    between atoms: S_6  and  C_7
REMARK    3  A    between atoms: C_7  and  C_8
REMARK    4  A    between atoms: N_10  and  C_11
REMARK    5  A    between atoms: C_16  and  C_17
REMARK    6  A    between atoms: N_19  and  C_20
REMARK    7  A    between atoms: C_20  and  C_22
REMARK                            x       y       z     vdW  Elec       q    Type
REMARK                         _______ _______ _______ _____ _____    ______ ____
ROOT
ATOM      1  C   UNL     1      37.495  -1.290  18.263  0.00  0.00    +0.000 A 
ATOM      2  C   UNL     1      37.353  -1.695  19.594  0.00  0.00    +0.000 A 
ATOM      3  C   UNL     1      37.934  -2.875  20.017  0.00  0.00    +0.000 A 
ATOM      4  C   UNL     1      38.651  -3.639  19.115  0.00  0.00    +0.000 A 
ATOM      5  C   UNL     1      38.763  -3.199  17.809  0.00  0.00    +0.000 A 
ATOM      6  C   UNL     1      38.201  -2.031  17.345  0.00  0.00    +0.000 A 
ENDROOT
BRANCH   1   9
ATOM      7  C   UNL     1      35.521  -0.040  17.421  0.00  0.00    +0.000 C 
ATOM      8  O   UNL     1      34.862  -1.100  17.552  0.00  0.00    +0.000 OA
ATOM      9  N   UNL     1      36.911  -0.077  17.778  0.00  0.00    +0.000 NA
BRANCH   7  10
ATOM     10  C   UNL     1      34.849   1.179  16.912  0.00  0.00    +0.000 C 
BRANCH  10  11
ATOM     11  S   UNL     1      35.710   1.717  15.408  0.00  0.00    +0.000 S 
BRANCH  11  16
ATOM     12  C   UNL     1      39.952   5.819  16.766  0.00  0.00    +0.000 C 
ATOM     13  C   UNL     1      38.934   4.807  16.361  0.00  0.00    +0.000 A 
ATOM     14  C   UNL     1      38.844   4.297  15.096  0.00  0.00    +0.000 A 
ATOM     15  C   UNL     1      37.883   3.360  14.769  0.00  0.00    +0.000 A 
ATOM     16  C   UNL     1      36.976   2.909  15.721  0.00  0.00    +0.000 A 
ATOM     17  C   UNL     1      37.101   3.450  16.984  0.00  0.00    +0.000 A 
ATOM     18  C   UNL     1      38.051   4.379  17.321  0.00  0.00    +0.000 A 
ENDBRANCH  11  16
ENDBRANCH  10  11
ENDBRANCH   7  10
ENDBRANCH   1   9
BRANCH   6  19
ATOM     19  C   UNL     1      38.321  -1.565  15.965  0.00  0.00    +0.000 C 
ATOM     20  O   UNL     1      37.474  -1.892  15.091  0.00  0.00    +0.000 OA
ATOM     21  N   UNL     1      39.355  -0.734  15.487  0.00  0.00    +0.000 NA
BRANCH  21  22
ATOM     22  C   UNL     1      39.341  -0.324  13.983  0.00  0.00    +0.000 C 
ATOM     23  C   UNL     1      40.389   0.905  14.211  0.00  0.00    +0.000 C 
BRANCH  22  24
ATOM     24  C   UNL     1      40.441  -1.375  13.525  0.00  0.00    +0.000 A 
ATOM     25  C   UNL     1      41.687  -1.306  14.114  0.00  0.00    +0.000 A 
ATOM     26  C   UNL     1      42.681  -2.196  13.764  0.00  0.00    +0.000 A 
ATOM     27  C   UNL     1      42.426  -3.158  12.822  0.00  0.00    +0.000 A 
ATOM     28  C   UNL     1      41.180  -3.196  12.259  0.00  0.00    +0.000 A 
ATOM     29  C   UNL     1      40.167  -2.305  12.603  0.00  0.00    +0.000 A 
ENDBRANCH  22  24
ENDBRANCH  21  22
ENDBRANCH   6  19
TORSDOF 7
ENDMDL
MODEL 5
REMARK VINA RESULT:      -7.7      2.196      5.476
REMARK  Name = 
REMARK  7 active torsions:
REMARK  status: ('A' for Active; 'I' for Inactive)
REMARK    1  A    between atoms: C_5  and  S_6
REMARK    2  A    between atoms: S_6  and  C_7
REMARK    3  A    between atoms: C_7  and  C_8
REMARK    4  A    between atoms: N_10  and  C_11
REMARK    5  A    between atoms: C_16  and  C_17
REMARK    6  A    between atoms: N_19  and  C_20
REMARK    7  A    between atoms: C_20  and  C_22
REMARK                            x       y       z     vdW  Elec       q    Type
REMARK                         _______ _______ _______ _____ _____    ______ ____
ROOT
ATOM      1  C   UNL     1      35.702   0.902  15.843  0.00  0.00    +0.000 A 
ATOM      2  C   UNL     1      34.779   0.693  16.873  0.00  0.00    +0.000 A 
ATOM      3  C   UNL     1      34.495  -0.594  17.288  0.00  0.00    +0.000 A 
ATOM      4  C   UNL     1      35.128  -1.659  16.676  0.00  0.00    +0.000 A 
ATOM      5  C   UNL     1      36.032  -1.404  15.662  0.00  0.00    +0.000 A 
ATOM      6  C   UNL     1      36.346  -0.139  15.217  0.00  0.00    +0.000 A 
ENDROOT
BRANCH   1   9
ATOM      7  C   UNL     1      36.757   3.117  16.226  0.00  0.00    +0.000 C 
ATOM      8  O   UNL     1      37.084   2.704  17.365  0.00  0.00    +0.000 OA
ATOM      9  N   UNL     1      36.029   2.215  15.379  0.00  0.00    +0.000 NA
BRANCH   7  10
ATOM     10  C   UNL     1      37.131   4.490  15.813  0.00  0.00    +0.000 C 
BRANCH  10  11
ATOM     11  S   UNL     1      38.940   4.584  15.722  0.00  0.00    +0.000 S 
BRANCH  11  16
ATOM     12  C   UNL     1      41.659   7.436  20.320  0.00  0.00    +0.000 C 
ATOM     13  C   UNL     1      40.933   6.715  19.235  0.00  0.00    +0.000 A 
ATOM     14  C   UNL     1      39.736   6.083  19.424  0.00  0.00    +0.000 A 
ATOM     15  C   UNL     1      39.101   5.428  18.385  0.00  0.00    +0.000 A 
ATOM     16  C   UNL     1      39.666   5.392  17.115  0.00  0.00    +0.000 A 
ATOM     17  C   UNL     1      40.874   6.042  16.969  0.00  0.00    +0.000 A 
ATOM     18  C   UNL     1      41.512   6.696  17.991  0.00  0.00    +0.000 A 
ENDBRANCH  11  16
ENDBRANCH  10  11
ENDBRANCH   7  10
ENDBRANCH   1   9
BRANCH   6  19
ATOM     19  C   UNL     1      37.302   0.130  14.145  0.00  0.00    +0.000 C 
ATOM     20  O   UNL     1      36.929   0.204  12.944  0.00  0.00    +0.000 OA
ATOM     21  N   UNL     1      38.685   0.326  14.336  0.00  0.00    +0.000 NA
BRANCH  21  22
ATOM     22  C   UNL     1      39.574   0.605  13.085  0.00  0.00    +0.000 C 
ATOM     23  C   UNL     1      40.036   2.073  13.624  0.00  0.00    +0.000 C 
BRANCH  22  24
ATOM     24  C   UNL     1      40.854  -0.163  13.630  0.00  0.00    +0.000 A 
ATOM     25  C   UNL     1      42.067   0.492  13.590  0.00  0.00    +0.000 A 
ATOM     26  C   UNL     1      43.213  -0.119  14.056  0.00  0.00    +0.000 A 
ATOM     27  C   UNL     1      43.142  -1.390  14.563  0.00  0.00    +0.000 A 
ATOM     28  C   UNL     1      41.923  -2.010  14.586  0.00  0.00    +0.000 A 
ATOM     29  C   UNL     1      40.759  -1.405  14.120  0.00  0.00    +0.000 A 
ENDBRANCH  22  24
ENDBRANCH  21  22
ENDBRANCH   6  19
TORSDOF 7
ENDMDL
MODEL 6
REMARK VINA RESULT:      -7.7      2.526      6.362
REMARK  Name = 
REMARK  7 active torsions:
REMARK  status: ('A' for Active; 'I' for Inactive)
REMARK    1  A    between atoms: C_5  and  S_6
REMARK    2  A    between atoms: S_6  and  C_7
REMARK    3  A    between atoms: C_7  and  C_8
REMARK    4  A    between atoms: N_10  and  C_11
REMARK    5  A    between atoms: C_16  and  C_17
REMARK    6  A    between atoms: N_19  and  C_20
REMARK    7  A    between atoms: C_20  and  C_22
REMARK                            x       y       z     vdW  Elec       q    Type
REMARK                         _______ _______ _______ _____ _____    ______ ____
ROOT
ATOM      1  C   UNL     1      38.642   3.999  15.187  0.00  0.00    +0.000 A 
ATOM      2  C   UNL     1      39.732   4.854  14.991  0.00  0.00    +0.000 A 
ATOM      3  C   UNL     1      40.118   5.716  15.999  0.00  0.00    +0.000 A 
ATOM      4  C   UNL     1      39.419   5.721  17.192  0.00  0.00    +0.000 A 
ATOM      5  C   UNL     1      38.348   4.859  17.340  0.00  0.00    +0.000 A 
ATOM      6  C   UNL     1      37.929   3.984  16.363  0.00  0.00    +0.000 A 
ENDROOT
BRANCH   1   9
ATOM      7  C   UNL     1      38.818   1.797  14.054  0.00  0.00    +0.000 C 
ATOM      8  O   UNL     1      39.732   1.514  14.865  0.00  0.00    +0.000 OA
ATOM      9  N   UNL     1      38.205   3.090  14.173  0.00  0.00    +0.000 NA
BRANCH   7  10
ATOM     10  C   UNL     1      38.418   0.804  13.029  0.00  0.00    +0.000 C 
BRANCH  10  11
ATOM     11  S   UNL     1      39.589  -0.580  13.090  0.00  0.00    +0.000 S 
BRANCH  11  16
ATOM     12  C   UNL     1      37.583  -5.015  16.690  0.00  0.00    +0.000 C 
ATOM     13  C   UNL     1      38.142  -3.925  15.841  0.00  0.00    +0.000 A 
ATOM     14  C   UNL     1      39.407  -3.429  15.993  0.00  0.00    +0.000 A 
ATOM     15  C   UNL     1      39.882  -2.418  15.180  0.00  0.00    +0.000 A 
ATOM     16  C   UNL     1      39.082  -1.873  14.181  0.00  0.00    +0.000 A 
ATOM     17  C   UNL     1      37.813  -2.402  14.063  0.00  0.00    +0.000 A 
ATOM     18  C   UNL     1      37.332  -3.406  14.862  0.00  0.00    +0.000 A 
ENDBRANCH  11  16
ENDBRANCH  10  11
ENDBRANCH   7  10
ENDBRANCH   1   9
BRANCH   6  19
ATOM     19  C   UNL     1      36.797   3.073  16.520  0.00  0.00    +0.000 C 
ATOM     20  O   UNL     1      35.634   3.414  16.178  0.00  0.00    +0.000 OA
ATOM     21  N   UNL     1      36.886   1.770  17.051  0.00  0.00    +0.000 NA
BRANCH  21  22
ATOM     22  C   UNL     1      35.582   0.920  17.153  0.00  0.00    +0.000 C 
ATOM     23  C   UNL     1      35.891   0.109  15.772  0.00  0.00    +0.000 C 
BRANCH  22  24
ATOM     24  C   UNL     1      36.193  -0.187  18.116  0.00  0.00    +0.000 A 
ATOM     25  C   UNL     1      37.355  -0.817  17.721  0.00  0.00    +0.000 A 
ATOM     26  C   UNL     1      37.939  -1.781  18.518  0.00  0.00    +0.000 A 
ATOM     27  C   UNL     1      37.355  -2.113  19.713  0.00  0.00    +0.000 A 
ATOM     28  C   UNL     1      36.204  -1.468  20.071  0.00  0.00    +0.000 A 
ATOM     29  C   UNL     1      35.605  -0.493  19.278  0.00  0.00    +0.000 A 
ENDBRANCH  22  24
ENDBRANCH  21  22
ENDBRANCH   6  19
TORSDOF 7
ENDMDL
MODEL 7
REMARK VINA RESULT:      -7.6      3.322      6.518
REMARK  Name = 
REMARK  7 active torsions:
REMARK  status: ('A' for Active; 'I' for Inactive)
REMARK    1  A    between atoms: C_5  and  S_6
REMARK    2  A    between atoms: S_6  and  C_7
REMARK    3  A    between atoms: C_7  and  C_8
REMARK    4  A    between atoms: N_10  and  C_11
REMARK    5  A    between atoms: C_16  and  C_17
REMARK    6  A    between atoms: N_19  and  C_20
REMARK    7  A    between atoms: C_20  and  C_22
REMARK                            x       y       z     vdW  Elec       q    Type
REMARK                         _______ _______ _______ _____ _____    ______ ____
ROOT
ATOM      1  C   UNL     1      37.834  -2.773  17.249  0.00  0.00    +0.000 A 
ATOM      2  C   UNL     1      38.600  -3.594  18.083  0.00  0.00    +0.000 A 
ATOM      3  C   UNL     1      38.584  -3.388  19.449  0.00  0.00    +0.000 A 
ATOM      4  C   UNL     1      37.808  -2.371  19.973  0.00  0.00    +0.000 A 
ATOM      5  C   UNL     1      37.068  -1.585  19.109  0.00  0.00    +0.000 A 
ATOM      6  C   UNL     1      37.055  -1.753  17.742  0.00  0.00    +0.000 A 
ENDROOT
BRANCH   1   9
ATOM      7  C   UNL     1      38.870  -2.389  15.024  0.00  0.00    +0.000 C 
ATOM      8  O   UNL     1      39.778  -1.759  15.616  0.00  0.00    +0.000 OA
ATOM      9  N   UNL     1      37.819  -2.946  15.829  0.00  0.00    +0.000 NA
BRANCH   7  10
ATOM     10  C   UNL     1      38.919  -2.529  13.550  0.00  0.00    +0.000 C 
BRANCH  10  11
ATOM     11  S   UNL     1      40.050  -1.270  12.897  0.00  0.00    +0.000 S 
BRANCH  11  16
ATOM     12  C   UNL     1      36.976   2.885   9.742  0.00  0.00    +0.000 C 
ATOM     13  C   UNL     1      37.797   1.897  10.498  0.00  0.00    +0.000 A 
ATOM     14  C   UNL     1      39.162   1.946  10.562  0.00  0.00    +0.000 A 
ATOM     15  C   UNL     1      39.879   1.007  11.278  0.00  0.00    +0.000 A 
ATOM     16  C   UNL     1      39.230  -0.019  11.955  0.00  0.00    +0.000 A 
ATOM     17  C   UNL     1      37.854  -0.032  11.864  0.00  0.00    +0.000 A 
ATOM     18  C   UNL     1      37.131   0.895  11.159  0.00  0.00    +0.000 A 
ENDBRANCH  11  16
ENDBRANCH  10  11
ENDBRANCH   7  10
ENDBRANCH   1   9
BRANCH   6  19
ATOM     19  C   UNL     1      36.272  -0.922  16.830  0.00  0.00    +0.000 C 
ATOM     20  O   UNL     1      35.124  -1.276  16.450  0.00  0.00    +0.000 OA
ATOM     21  N   UNL     1      36.703   0.312  16.301  0.00  0.00    +0.000 NA
BRANCH  21  22
ATOM     22  C   UNL     1      35.746   1.080  15.338  0.00  0.00    +0.000 C 
ATOM     23  C   UNL     1      35.242   2.104  16.503  0.00  0.00    +0.000 C 
BRANCH  22  24
ATOM     24  C   UNL     1      36.860   2.052  14.756  0.00  0.00    +0.000 A 
ATOM     25  C   UNL     1      36.447   3.131  14.002  0.00  0.00    +0.000 A 
ATOM     26  C   UNL     1      37.366   4.016  13.476  0.00  0.00    +0.000 A 
ATOM     27  C   UNL     1      38.702   3.818  13.707  0.00  0.00    +0.000 A 
ATOM     28  C   UNL     1      39.075   2.738  14.459  0.00  0.00    +0.000 A 
ATOM     29  C   UNL     1      38.159   1.838  14.996  0.00  0.00    +0.000 A 
ENDBRANCH  22  24
ENDBRANCH  21  22
ENDBRANCH   6  19
TORSDOF 7
ENDMDL
MODEL 8
REMARK VINA RESULT:      -7.5      2.330      6.819
REMARK  Name = 
REMARK  7 active torsions:
REMARK  status: ('A' for Active; 'I' for Inactive)
REMARK    1  A    between atoms: C_5  and  S_6
REMARK    2  A    between atoms: S_6  and  C_7
REMARK    3  A    between atoms: C_7  and  C_8
REMARK    4  A    between atoms: N_10  and  C_11
REMARK    5  A    between atoms: C_16  and  C_17
REMARK    6  A    between atoms: N_19  and  C_20
REMARK    7  A    between atoms: C_20  and  C_22
REMARK                            x       y       z     vdW  Elec       q    Type
REMARK                         _______ _______ _______ _____ _____    ______ ____
ROOT
ATOM      1  C   UNL     1      38.275   3.929  16.348  0.00  0.00    +0.000 A 
ATOM      2  C   UNL     1      38.156   4.835  17.407  0.00  0.00    +0.000 A 
ATOM      3  C   UNL     1      38.984   5.940  17.458  0.00  0.00    +0.000 A 
ATOM      4  C   UNL     1      39.919   6.135  16.459  0.00  0.00    +0.000 A 
ATOM      5  C   UNL     1      39.999   5.211  15.433  0.00  0.00    +0.000 A 
ATOM      6  C   UNL     1      39.196   4.096  15.342  0.00  0.00    +0.000 A 
ENDROOT
BRANCH   1   9
ATOM      7  C   UNL     1      36.165   2.853  15.600  0.00  0.00    +0.000 C 
ATOM      8  O   UNL     1      35.827   3.967  15.132  0.00  0.00    +0.000 OA
ATOM      9  N   UNL     1      37.441   2.769  16.252  0.00  0.00    +0.000 NA
BRANCH   7  10
ATOM     10  C   UNL     1      35.249   1.696  15.464  0.00  0.00    +0.000 C 
BRANCH  10  11
ATOM     11  S   UNL     1      35.172   0.841  17.062  0.00  0.00    +0.000 S 
BRANCH  11  16
ATOM     12  C   UNL     1      37.106  -4.874  16.540  0.00  0.00    +0.000 C 
ATOM     13  C   UNL     1      36.660  -3.465  16.738  0.00  0.00    +0.000 A 
ATOM     14  C   UNL     1      36.897  -2.756  17.882  0.00  0.00    +0.000 A 
ATOM     15  C   UNL     1      36.463  -1.451  18.018  0.00  0.00    +0.000 A 
ATOM     16  C   UNL     1      35.770  -0.820  16.991  0.00  0.00    +0.000 A 
ATOM     17  C   UNL     1      35.552  -1.572  15.855  0.00  0.00    +0.000 A 
ATOM     18  C   UNL     1      35.978  -2.867  15.708  0.00  0.00    +0.000 A 
ENDBRANCH  11  16
ENDBRANCH  10  11
ENDBRANCH   7  10
ENDBRANCH   1   9
BRANCH   6  19
ATOM     19  C   UNL     1      39.281   3.121  14.257  0.00  0.00    +0.000 C 
ATOM     20  O   UNL     1      38.692   3.314  13.160  0.00  0.00    +0.000 OA
ATOM     21  N   UNL     1      40.004   1.912  14.321  0.00  0.00    +0.000 NA
BRANCH  21  22
ATOM     22  C   UNL     1      39.996   0.976  13.073  0.00  0.00    +0.000 C 
ATOM     23  C   UNL     1      41.600   1.134  12.829  0.00  0.00    +0.000 C 
BRANCH  22  24
ATOM     24  C   UNL     1      40.103  -0.380  13.896  0.00  0.00    +0.000 A 
ATOM     25  C   UNL     1      40.973  -1.347  13.437  0.00  0.00    +0.000 A 
ATOM     26  C   UNL     1      41.116  -2.542  14.112  0.00  0.00    +0.000 A 
ATOM     27  C   UNL     1      40.385  -2.767  15.249  0.00  0.00    +0.000 A 
ATOM     28  C   UNL     1      39.532  -1.786  15.674  0.00  0.00    +0.000 A 
ATOM     29  C   UNL     1      39.378  -0.575  15.003  0.00  0.00    +0.000 A 
ENDBRANCH  22  24
ENDBRANCH  21  22
ENDBRANCH   6  19
TORSDOF 7
ENDMDL
MODEL 9
REMARK VINA RESULT:      -7.3      3.300      5.816
REMARK  Name = 
REMARK  7 active torsions:
REMARK  status: ('A' for Active; 'I' for Inactive)
REMARK    1  A    between atoms: C_5  and  S_6
REMARK    2  A    between atoms: S_6  and  C_7
REMARK    3  A    between atoms: C_7  and  C_8
REMARK    4  A    between atoms: N_10  and  C_11
REMARK    5  A    between atoms: C_16  and  C_17
REMARK    6  A    between atoms: N_19  and  C_20
REMARK    7  A    between atoms: C_20  and  C_22
REMARK                            x       y       z     vdW  Elec       q    Type
REMARK                         _______ _______ _______ _____ _____    ______ ____
ROOT
ATOM      1  C   UNL     1      36.198  -0.579  17.113  0.00  0.00    +0.000 A 
ATOM      2  C   UNL     1      35.904  -0.002  18.352  0.00  0.00    +0.000 A 
ATOM      3  C   UNL     1      36.326  -0.620  19.514  0.00  0.00    +0.000 A 
ATOM      4  C   UNL     1      37.037  -1.803  19.433  0.00  0.00    +0.000 A 
ATOM      5  C   UNL     1      37.303  -2.336  18.185  0.00  0.00    +0.000 A 
ATOM      6  C   UNL     1      36.902  -1.755  17.003  0.00  0.00    +0.000 A 
ENDROOT
BRANCH   1   9
ATOM      7  C   UNL     1      36.453   1.193  15.392  0.00  0.00    +0.000 C 
ATOM      8  O   UNL     1      37.399   1.648  16.078  0.00  0.00    +0.000 OA
ATOM      9  N   UNL     1      35.782   0.023  15.883  0.00  0.00    +0.000 NA
BRANCH   7  10
ATOM     10  C   UNL     1      36.077   1.869  14.128  0.00  0.00    +0.000 C 
BRANCH  10  11
ATOM     11  S   UNL     1      37.383   3.057  13.708  0.00  0.00    +0.000 S 
BRANCH  11  16
ATOM     12  C   UNL     1      42.117   0.483  10.945  0.00  0.00    +0.000 C 
ATOM     13  C   UNL     1      40.988   1.110  11.691  0.00  0.00    +0.000 A 
ATOM     14  C   UNL     1      40.998   1.304  13.044  0.00  0.00    +0.000 A 
ATOM     15  C   UNL     1      39.927   1.891  13.691  0.00  0.00    +0.000 A 
ATOM     16  C   UNL     1      38.804   2.299  12.981  0.00  0.00    +0.000 A 
ATOM     17  C   UNL     1      38.835   2.083  11.618  0.00  0.00    +0.000 A 
ATOM     18  C   UNL     1      39.892   1.504  10.966  0.00  0.00    +0.000 A 
ENDBRANCH  11  16
ENDBRANCH  10  11
ENDBRANCH   7  10
ENDBRANCH   1   9
BRANCH   6  19
ATOM     19  C   UNL     1      37.185  -2.319  15.685  0.00  0.00    +0.000 C 
ATOM     20  O   UNL     1      36.375  -3.106  15.126  0.00  0.00    +0.000 OA
ATOM     21  N   UNL     1      38.347  -2.052  14.932  0.00  0.00    +0.000 NA
BRANCH  21  22
ATOM     22  C   UNL     1      38.500  -2.733  13.538  0.00  0.00    +0.000 C 
ATOM     23  C   UNL     1      38.175  -1.357  12.725  0.00  0.00    +0.000 C 
BRANCH  22  24
ATOM     24  C   UNL     1      40.080  -2.581  13.463  0.00  0.00    +0.000 A 
ATOM     25  C   UNL     1      40.728  -2.022  14.546  0.00  0.00    +0.000 A 
ATOM     26  C   UNL     1      42.099  -1.871  14.544  0.00  0.00    +0.000 A 
ATOM     27  C   UNL     1      42.823  -2.281  13.454  0.00  0.00    +0.000 A 
ATOM     28  C   UNL     1      42.147  -2.829  12.399  0.00  0.00    +0.000 A 
ATOM     29  C   UNL     1      40.764  -2.989  12.388  0.00  0.00    +0.000 A 
ENDBRANCH  22  24
ENDBRANCH  21  22
ENDBRANCH   6  19
TORSDOF 7
ENDMDL
MODEL 10
REMARK VINA RESULT:      -7.3      2.855      5.684
REMARK  Name = 
REMARK  7 active torsions:
REMARK  status: ('A' for Active; 'I' for Inactive)
REMARK    1  A    between atoms: C_5  and  S_6
REMARK    2  A    between atoms: S_6  and  C_7
REMARK    3  A    between atoms: C_7  and  C_8
REMARK    4  A    between atoms: N_10  and  C_11
REMARK    5  A    between atoms: C_16  and  C_17
REMARK    6  A    between atoms: N_19  and  C_20
REMARK    7  A    between atoms: C_20  and  C_22
REMARK                            x       y       z     vdW  Elec       q    Type
REMARK                         _______ _______ _______ _____ _____    ______ ____
ROOT
ATOM      1  C   UNL     1      36.053   1.261  15.783  0.00  0.00    +0.000 A 
ATOM      2  C   UNL     1      34.954   1.031  16.616  0.00  0.00    +0.000 A 
ATOM      3  C   UNL     1      34.665  -0.255  17.030  0.00  0.00    +0.000 A 
ATOM      4  C   UNL     1      35.469  -1.299  16.613  0.00  0.00    +0.000 A 
ATOM      5  C   UNL     1      36.544  -1.023  15.788  0.00  0.00    +0.000 A 
ATOM      6  C   UNL     1      36.869   0.241  15.351  0.00  0.00    +0.000 A 
ENDROOT
BRANCH   1   9
ATOM      7  C   UNL     1      37.024   3.504  16.221  0.00  0.00    +0.000 C 
ATOM      8  O   UNL     1      37.257   3.115  17.390  0.00  0.00    +0.000 OA
ATOM      9  N   UNL     1      36.392   2.574  15.328  0.00  0.00    +0.000 NA
BRANCH   7  10
ATOM     10  C   UNL     1      37.403   4.879  15.820  0.00  0.00    +0.000 C 
BRANCH  10  11
ATOM     11  S   UNL     1      39.203   4.929  15.593  0.00  0.00    +0.000 S 
BRANCH  11  16
ATOM     12  C   UNL     1      41.906   7.143  20.538  0.00  0.00    +0.000 C 
ATOM     13  C   UNL     1      41.302   6.619  19.281  0.00  0.00    +0.000 A 
ATOM     14  C   UNL     1      41.926   6.677  18.066  0.00  0.00    +0.000 A 
ATOM     15  C   UNL     1      41.324   6.176  16.927  0.00  0.00    +0.000 A 
ATOM     16  C   UNL     1      40.061   5.598  16.985  0.00  0.00    +0.000 A 
ATOM     17  C   UNL     1      39.467   5.560  18.230  0.00  0.00    +0.000 A 
ATOM     18  C   UNL     1      40.054   6.053  19.366  0.00  0.00    +0.000 A 
ENDBRANCH  11  16
ENDBRANCH  10  11
ENDBRANCH   7  10
ENDBRANCH   1   9
BRANCH   6  19
ATOM     19  C   UNL     1      38.006   0.532  14.480  0.00  0.00    +0.000 C 
ATOM     20  O   UNL     1      39.108   0.917  14.955  0.00  0.00    +0.000 OA
ATOM     21  N   UNL     1      37.989   0.416  13.075  0.00  0.00    +0.000 NA
BRANCH  21  22
ATOM     22  C   UNL     1      39.289   0.764  12.287  0.00  0.00    +0.000 C 
ATOM     23  C   UNL     1      39.635  -0.801  11.983  0.00  0.00    +0.000 C 
BRANCH  22  24
ATOM     24  C   UNL     1      38.562   1.028  10.898  0.00  0.00    +0.000 A 
ATOM     25  C   UNL     1      39.283   0.818   9.741  0.00  0.00    +0.000 A 
ATOM     26  C   UNL     1      38.705   1.023   8.505  0.00  0.00    +0.000 A 
ATOM     27  C   UNL     1      37.401   1.439   8.430  0.00  0.00    +0.000 A 
ATOM     28  C   UNL     1      36.718   1.637   9.597  0.00  0.00    +0.000 A 
ATOM     29  C   UNL     1      37.288   1.434  10.851  0.00  0.00    +0.000 A 
ENDBRANCH  22  24
ENDBRANCH  21  22
ENDBRANCH   6  19
TORSDOF 7
ENDMDL
