MODEL 1
REMARK VINA RESULT:      -8.0      0.000      0.000
REMARK  Name = 
REMARK  7 active torsions:
REMARK  status: ('A' for Active; 'I' for Inactive)
REMARK    1  A    between atoms: C_2  and  C_3
REMARK    2  A    between atoms: C_3  and  O_4
REMARK    3  A    between atoms: O_4  and  C_5
REMARK    4  A    between atoms: C_8  and  C_9
REMARK    5  A    between atoms: C_11  and  C_12
REMARK    6  A    between atoms: N_14  and  C_15
REMARK    7  A    between atoms: C_18  and  O_19
REMARK                            x       y       z     vdW  Elec       q    Type
REMARK                         _______ _______ _______ _____ _____    ______ ____
ROOT
ATOM      1  C   UNL     1      38.761   5.592  16.977  0.00  0.00    +0.000 A 
ATOM      2  C   UNL     1      38.134   4.368  17.088  0.00  0.00    +0.000 A 
ATOM      3  C   UNL     1      37.228   3.928  16.174  0.00  0.00    +0.000 A 
ATOM      4  C   UNL     1      36.911   4.730  15.080  0.00  0.00    +0.000 A 
ATOM      5  C   UNL     1      35.984   4.280  14.143  0.00  0.00    +0.000 A 
ATOM      6  C   UNL     1      35.688   5.099  13.067  0.00  0.00    +0.000 A 
ATOM      7  C   UNL     1      36.320   6.322  12.961  0.00  0.00    +0.000 A 
ATOM      8  C   UNL     1      37.234   6.765  13.885  0.00  0.00    +0.000 A 
ATOM      9  C   UNL     1      37.540   5.953  14.971  0.00  0.00    +0.000 A 
ATOM     10  N   UNL     1      38.433   6.342  15.909  0.00  0.00    +0.000 NA
ENDROOT
BRANCH   1  14
ATOM     11  C   UNL     1      41.597   6.942  19.889  0.00  0.00    +0.000 A 
ATOM     12  C   UNL     1      41.972   6.669  18.592  0.00  0.00    +0.000 A 
ATOM     13  C   UNL     1      41.058   6.228  17.635  0.00  0.00    +0.000 A 
ATOM     14  C   UNL     1      39.736   6.054  17.970  0.00  0.00    +0.000 A 
ATOM     15  C   UNL     1      39.350   6.324  19.263  0.00  0.00    +0.000 A 
ATOM     16  C   UNL     1      40.270   6.764  20.220  0.00  0.00    +0.000 A 
BRANCH  11  17
ATOM     17  O   UNL     1      42.476   7.380  20.867  0.00  0.00    +0.000 OA
BRANCH  17  18
ATOM     18  C   UNL     1      43.821   7.027  20.937  0.00  0.00    +0.000 C 
BRANCH  18  20
ATOM     19  C   UNL     1      44.209   6.068  23.211  0.00  0.00    +0.000 C 
ATOM     20  C   UNL     1      43.943   5.741  21.737  0.00  0.00    +0.000 C 
ENDBRANCH  18  20
ENDBRANCH  17  18
ENDBRANCH  11  17
ENDBRANCH   1  14
BRANCH   3  21
ATOM     21  C   UNL     1      36.546   2.639  16.261  0.00  0.00    +0.000 C 
ATOM     22  O   UNL     1      35.328   2.622  16.570  0.00  0.00    +0.000 OA
ATOM     23  N   UNL     1      37.180   1.402  16.015  0.00  0.00    +0.000 NA
BRANCH  23  24
ATOM     24  C   UNL     1      36.496   0.145  16.104  0.00  0.00    +0.000 A 
ATOM     25  C   UNL     1      36.628  -0.731  15.046  0.00  0.00    +0.000 A 
ATOM     26  C   UNL     1      36.023  -1.970  15.009  0.00  0.00    +0.000 A 
ATOM     27  C   UNL     1      35.252  -2.329  16.092  0.00  0.00    +0.000 A 
ATOM     28  C   UNL     1      35.101  -1.477  17.163  0.00  0.00    +0.000 A 
ATOM     29  C   UNL     1      35.731  -0.226  17.166  0.00  0.00    +0.000 A 
BRANCH  27  30
ATOM     30  O   UNL     1      34.625  -3.567  16.096  0.00  0.00    +0.000 OA
ATOM     31  C   UNL     1      34.025  -4.075  14.929  0.00  0.00    +0.000 C 
ENDBRANCH  27  30
ENDBRANCH  23  24
ENDBRANCH   3  21
TORSDOF 7
ENDMDL
MODEL 2
REMARK VINA RESULT:      -7.8      2.903      6.453
REMARK  Name = 
REMARK  7 active torsions:
REMARK  status: ('A' for Active; 'I' for Inactive)
REMARK    1  A    between atoms: C_2  and  C_3
REMARK    2  A    between atoms: C_3  and  O_4
REMARK    3  A    between atoms: O_4  and  C_5
REMARK    4  A    between atoms: C_8  and  C_9
REMARK    5  A    between atoms: C_11  and  C_12
REMARK    6  A    between atoms: N_14  and  C_15
REMARK    7  A    between atoms: C_18  and  O_19
REMARK                            x       y       z     vdW  Elec       q    Type
REMARK                         _______ _______ _______ _____ _____    ______ ____
ROOT
ATOM      1  C   UNL     1      38.629   5.131  16.944  0.00  0.00    +0.000 A 
ATOM      2  C   UNL     1      38.270   5.722  15.750  0.00  0.00    +0.000 A 
ATOM      3  C   UNL     1      37.295   5.214  14.949  0.00  0.00    +0.000 A 
ATOM      4  C   UNL     1      36.624   4.056  15.334  0.00  0.00    +0.000 A 
ATOM      5  C   UNL     1      35.626   3.535  14.515  0.00  0.00    +0.000 A 
ATOM      6  C   UNL     1      34.977   2.382  14.922  0.00  0.00    +0.000 A 
ATOM      7  C   UNL     1      35.340   1.795  16.119  0.00  0.00    +0.000 A 
ATOM      8  C   UNL     1      36.325   2.309  16.926  0.00  0.00    +0.000 A 
ATOM      9  C   UNL     1      36.985   3.466  16.528  0.00  0.00    +0.000 A 
ATOM     10  N   UNL     1      37.962   4.014  17.286  0.00  0.00    +0.000 NA
ENDROOT
BRANCH   1  14
ATOM     11  C   UNL     1      41.715   6.765  19.424  0.00  0.00    +0.000 A 
ATOM     12  C   UNL     1      40.491   6.402  19.942  0.00  0.00    +0.000 A 
ATOM     13  C   UNL     1      39.478   5.870  19.145  0.00  0.00    +0.000 A 
ATOM     14  C   UNL     1      39.682   5.690  17.797  0.00  0.00    +0.000 A 
ATOM     15  C   UNL     1      40.900   6.049  17.268  0.00  0.00    +0.000 A 
ATOM     16  C   UNL     1      41.913   6.583  18.072  0.00  0.00    +0.000 A 
BRANCH  11  17
ATOM     17  O   UNL     1      42.744   7.297  20.184  0.00  0.00    +0.000 OA
BRANCH  17  18
ATOM     18  C   UNL     1      43.043   6.914  21.490  0.00  0.00    +0.000 C 
BRANCH  18  20
ATOM     19  C   UNL     1      45.222   5.930  20.765  0.00  0.00    +0.000 C 
ATOM     20  C   UNL     1      43.876   5.645  21.443  0.00  0.00    +0.000 C 
ENDBRANCH  18  20
ENDBRANCH  17  18
ENDBRANCH  11  17
ENDBRANCH   1  14
BRANCH   3  21
ATOM     21  C   UNL     1      36.890   5.814  13.680  0.00  0.00    +0.000 C 
ATOM     22  O   UNL     1      37.427   5.403  12.621  0.00  0.00    +0.000 OA
ATOM     23  N   UNL     1      35.923   6.837  13.573  0.00  0.00    +0.000 NA
BRANCH  23  24
ATOM     24  C   UNL     1      35.537   7.415  12.320  0.00  0.00    +0.000 A 
ATOM     25  C   UNL     1      34.440   6.877  11.678  0.00  0.00    +0.000 A 
ATOM     26  C   UNL     1      33.966   7.342  10.469  0.00  0.00    +0.000 A 
ATOM     27  C   UNL     1      34.638   8.396   9.890  0.00  0.00    +0.000 A 
ATOM     28  C   UNL     1      35.735   8.954  10.505  0.00  0.00    +0.000 A 
ATOM     29  C   UNL     1      36.188   8.457  11.734  0.00  0.00    +0.000 A 
BRANCH  27  30
ATOM     30  O   UNL     1      34.195   8.895   8.674  0.00  0.00    +0.000 OA
ATOM     31  C   UNL     1      34.216   8.095   7.516  0.00  0.00    +0.000 C 
ENDBRANCH  27  30
ENDBRANCH  23  24
ENDBRANCH   3  21
TORSDOF 7
ENDMDL
MODEL 3
REMARK VINA RESULT:      -7.6      1.800      9.454
REMARK  Name = 
REMARK  7 active torsions:
REMARK  status: ('A' for Active; 'I' for Inactive)
REMARK    1  A    between atoms: C_2  and  C_3
REMARK    2  A    between atoms: C_3  and  O_4
REMARK    3  A    between atoms: O_4  and  C_5
REMARK    4  A    between atoms: C_8  and  C_9
REMARK    5  A    between atoms: C_11  and  C_12
REMARK    6  A    between atoms: N_14  and  C_15
REMARK    7  A    between atoms: C_18  and  O_19
REMARK                            x       y       z     vdW  Elec       q    Type
REMARK                         _______ _______ _______ _____ _____    ______ ____
ROOT
ATOM      1  C   UNL     1      36.254   2.797  15.609  0.00  0.00    +0.000 A 
ATOM      2  C   UNL     1      37.243   3.454  16.313  0.00  0.00    +0.000 A 
ATOM      3  C   UNL     1      37.601   4.738  16.041  0.00  0.00    +0.000 A 
ATOM      4  C   UNL     1      36.957   5.428  15.017  0.00  0.00    +0.000 A 
ATOM      5  C   UNL     1      37.323   6.742  14.738  0.00  0.00    +0.000 A 
ATOM      6  C   UNL     1      36.667   7.403  13.714  0.00  0.00    +0.000 A 
ATOM      7  C   UNL     1      35.678   6.740  13.013  0.00  0.00    +0.000 A 
ATOM      8  C   UNL     1      35.318   5.444  13.289  0.00  0.00    +0.000 A 
ATOM      9  C   UNL     1      35.970   4.768  14.314  0.00  0.00    +0.000 A 
ATOM     10  N   UNL     1      35.652   3.492  14.627  0.00  0.00    +0.000 NA
ENDROOT
BRANCH   1  14
ATOM     11  C   UNL     1      35.165  -1.251  16.488  0.00  0.00    +0.000 A 
ATOM     12  C   UNL     1      34.647  -0.194  17.204  0.00  0.00    +0.000 A 
ATOM     13  C   UNL     1      34.995   1.128  16.928  0.00  0.00    +0.000 A 
ATOM     14  C   UNL     1      35.878   1.412  15.914  0.00  0.00    +0.000 A 
ATOM     15  C   UNL     1      36.402   0.365  15.191  0.00  0.00    +0.000 A 
ATOM     16  C   UNL     1      36.051  -0.959  15.472  0.00  0.00    +0.000 A 
BRANCH  11  17
ATOM     17  O   UNL     1      34.844  -2.577  16.733  0.00  0.00    +0.000 OA
BRANCH  17  18
ATOM     18  C   UNL     1      35.076  -3.624  15.845  0.00  0.00    +0.000 C 
BRANCH  18  20
ATOM     19  C   UNL     1      33.929  -5.299  14.389  0.00  0.00    +0.000 C 
ATOM     20  C   UNL     1      33.762  -3.996  15.180  0.00  0.00    +0.000 C 
ENDBRANCH  18  20
ENDBRANCH  17  18
ENDBRANCH  11  17
ENDBRANCH   1  14
BRANCH   3  21
ATOM     21  C   UNL     1      38.642   5.462  16.767  0.00  0.00    +0.000 C 
ATOM     22  O   UNL     1      39.807   5.472  16.298  0.00  0.00    +0.000 OA
ATOM     23  N   UNL     1      38.411   6.159  17.972  0.00  0.00    +0.000 NA
BRANCH  23  24
ATOM     24  C   UNL     1      39.444   6.866  18.672  0.00  0.00    +0.000 A 
ATOM     25  C   UNL     1      40.206   6.154  19.576  0.00  0.00    +0.000 A 
ATOM     26  C   UNL     1      41.229   6.716  20.312  0.00  0.00    +0.000 A 
ATOM     27  C   UNL     1      41.484   8.056  20.120  0.00  0.00    +0.000 A 
ATOM     28  C   UNL     1      40.741   8.792  19.225  0.00  0.00    +0.000 A 
ATOM     29  C   UNL     1      39.710   8.188  18.495  0.00  0.00    +0.000 A 
BRANCH  27  30
ATOM     30  O   UNL     1      42.504   8.660  20.840  0.00  0.00    +0.000 OA
ATOM     31  C   UNL     1      42.471  10.040  21.117  0.00  0.00    +0.000 C 
ENDBRANCH  27  30
ENDBRANCH  23  24
ENDBRANCH   3  21
TORSDOF 7
ENDMDL
MODEL 4
REMARK VINA RESULT:      -7.5      3.110      9.380
REMARK  Name = 
REMARK  7 active torsions:
REMARK  status: ('A' for Active; 'I' for Inactive)
REMARK    1  A    between atoms: C_2  and  C_3
REMARK    2  A    between atoms: C_3  and  O_4
REMARK    3  A    between atoms: O_4  and  C_5
REMARK    4  A    between atoms: C_8  and  C_9
REMARK    5  A    between atoms: C_11  and  C_12
REMARK    6  A    between atoms: N_14  and  C_15
REMARK    7  A    between atoms: C_18  and  O_19
REMARK                            x       y       z     vdW  Elec       q    Type
REMARK                         _______ _______ _______ _____ _____    ______ ____
ROOT
ATOM      1  C   UNL     1      36.740   2.562  16.147  0.00  0.00    +0.000 A 
ATOM      2  C   UNL     1      36.511   3.377  15.056  0.00  0.00    +0.000 A 
ATOM      3  C   UNL     1      36.982   4.650  14.986  0.00  0.00    +0.000 A 
ATOM      4  C   UNL     1      37.724   5.167  16.045  0.00  0.00    +0.000 A 
ATOM      5  C   UNL     1      38.207   6.471  15.975  0.00  0.00    +0.000 A 
ATOM      6  C   UNL     1      38.941   6.959  17.042  0.00  0.00    +0.000 A 
ATOM      7  C   UNL     1      39.167   6.139  18.131  0.00  0.00    +0.000 A 
ATOM      8  C   UNL     1      38.691   4.853  18.200  0.00  0.00    +0.000 A 
ATOM      9  C   UNL     1      37.951   4.351  17.135  0.00  0.00    +0.000 A 
ATOM     10  N   UNL     1      37.460   3.092  17.152  0.00  0.00    +0.000 NA
ENDROOT
BRANCH   1  14
ATOM     11  C   UNL     1      35.227  -1.440  16.338  0.00  0.00    +0.000 A 
ATOM     12  C   UNL     1      36.233  -1.091  15.464  0.00  0.00    +0.000 A 
ATOM     13  C   UNL     1      36.733   0.208  15.392  0.00  0.00    +0.000 A 
ATOM     14  C   UNL     1      36.225   1.190  16.209  0.00  0.00    +0.000 A 
ATOM     15  C   UNL     1      35.221   0.854  17.086  0.00  0.00    +0.000 A 
ATOM     16  C   UNL     1      34.721  -0.451  17.155  0.00  0.00    +0.000 A 
BRANCH  11  17
ATOM     17  O   UNL     1      34.705  -2.720  16.438  0.00  0.00    +0.000 OA
BRANCH  17  18
ATOM     18  C   UNL     1      35.316  -3.865  15.934  0.00  0.00    +0.000 C 
BRANCH  18  20
ATOM     19  C   UNL     1      33.056  -4.500  15.080  0.00  0.00    +0.000 C 
ATOM     20  C   UNL     1      34.537  -4.334  14.717  0.00  0.00    +0.000 C 
ENDBRANCH  18  20
ENDBRANCH  17  18
ENDBRANCH  11  17
ENDBRANCH   1  14
BRANCH   3  21
ATOM     21  C   UNL     1      36.759   5.538  13.848  0.00  0.00    +0.000 C 
ATOM     22  O   UNL     1      37.575   5.511  12.893  0.00  0.00    +0.000 OA
ATOM     23  N   UNL     1      35.670   6.432  13.757  0.00  0.00    +0.000 NA
BRANCH  23  24
ATOM     24  C   UNL     1      35.465   7.298  12.633  0.00  0.00    +0.000 A 
ATOM     25  C   UNL     1      34.662   6.836  11.609  0.00  0.00    +0.000 A 
ATOM     26  C   UNL     1      34.385   7.570  10.474  0.00  0.00    +0.000 A 
ATOM     27  C   UNL     1      34.950   8.823  10.379  0.00  0.00    +0.000 A 
ATOM     28  C   UNL     1      35.755   9.311  11.383  0.00  0.00    +0.000 A 
ATOM     29  C   UNL     1      36.014   8.538  12.522  0.00  0.00    +0.000 A 
BRANCH  27  30
ATOM     30  O   UNL     1      34.698   9.595   9.254  0.00  0.00    +0.000 OA
ATOM     31  C   UNL     1      34.569   8.999   7.985  0.00  0.00    +0.000 C 
ENDBRANCH  27  30
ENDBRANCH  23  24
ENDBRANCH   3  21
TORSDOF 7
ENDMDL
MODEL 5
REMARK VINA RESULT:      -7.4     23.984     26.515
REMARK  Name = 
REMARK  7 active torsions:
REMARK  status: ('A' for Active; 'I' for Inactive)
REMARK    1  A    between atoms: C_2  and  C_3
REMARK    2  A    between atoms: C_3  and  O_4
REMARK    3  A    between atoms: O_4  and  C_5
REMARK    4  A    between atoms: C_8  and  C_9
REMARK    5  A    between atoms: C_11  and  C_12
REMARK    6  A    between atoms: N_14  and  C_15
REMARK    7  A    between atoms: C_18  and  O_19
REMARK                            x       y       z     vdW  Elec       q    Type
REMARK                         _______ _______ _______ _____ _____    ______ ____
ROOT
ATOM      1  C   UNL     1      15.791  -4.841   7.105  0.00  0.00    +0.000 A 
ATOM      2  C   UNL     1      16.322  -4.018   6.133  0.00  0.00    +0.000 A 
ATOM      3  C   UNL     1      15.895  -2.740   5.946  0.00  0.00    +0.000 A 
ATOM      4  C   UNL     1      14.885  -2.229   6.759  0.00  0.00    +0.000 A 
ATOM      5  C   UNL     1      14.447  -0.921   6.569  0.00  0.00    +0.000 A 
ATOM      6  C   UNL     1      13.442  -0.439   7.390  0.00  0.00    +0.000 A 
ATOM      7  C   UNL     1      12.915  -1.268   8.362  0.00  0.00    +0.000 A 
ATOM      8  C   UNL     1      13.348  -2.557   8.548  0.00  0.00    +0.000 A 
ATOM      9  C   UNL     1      14.356  -3.054   7.730  0.00  0.00    +0.000 A 
ATOM     10  N   UNL     1      14.819  -4.316   7.872  0.00  0.00    +0.000 NA
ENDROOT
BRANCH   1  14
ATOM     11  C   UNL     1      17.176  -8.855   7.670  0.00  0.00    +0.000 A 
ATOM     12  C   UNL     1      16.187  -8.555   6.759  0.00  0.00    +0.000 A 
ATOM     13  C   UNL     1      15.727  -7.253   6.567  0.00  0.00    +0.000 A 
ATOM     14  C   UNL     1      16.262  -6.217   7.295  0.00  0.00    +0.000 A 
ATOM     15  C   UNL     1      17.252  -6.503   8.207  0.00  0.00    +0.000 A 
ATOM     16  C   UNL     1      17.709  -7.812   8.397  0.00  0.00    +0.000 A 
BRANCH  11  17
ATOM     17  O   UNL     1      17.658 -10.135   7.888  0.00  0.00    +0.000 OA
BRANCH  17  18
ATOM     18  C   UNL     1      18.926 -10.578   7.518  0.00  0.00    +0.000 C 
BRANCH  18  20
ATOM     19  C   UNL     1      19.861  -9.918   5.298  0.00  0.00    +0.000 C 
ATOM     20  C   UNL     1      18.918 -10.881   6.030  0.00  0.00    +0.000 C 
ENDBRANCH  18  20
ENDBRANCH  17  18
ENDBRANCH  11  17
ENDBRANCH   1  14
BRANCH   3  21
ATOM     21  C   UNL     1      16.434  -1.843   4.928  0.00  0.00    +0.000 C 
ATOM     22  O   UNL     1      16.073  -2.001   3.734  0.00  0.00    +0.000 OA
ATOM     23  N   UNL     1      17.343  -0.800   5.208  0.00  0.00    +0.000 NA
BRANCH  23  24
ATOM     24  C   UNL     1      17.863   0.072   4.196  0.00  0.00    +0.000 A 
ATOM     25  C   UNL     1      19.179  -0.100   3.819  0.00  0.00    +0.000 A 
ATOM     26  C   UNL     1      19.798   0.671   2.857  0.00  0.00    +0.000 A 
ATOM     27  C   UNL     1      19.047   1.659   2.259  0.00  0.00    +0.000 A 
ATOM     28  C   UNL     1      17.732   1.855   2.615  0.00  0.00    +0.000 A 
ATOM     29  C   UNL     1      17.135   1.052   3.594  0.00  0.00    +0.000 A 
BRANCH  27  30
ATOM     30  O   UNL     1      19.631   2.459   1.287  0.00  0.00    +0.000 OA
ATOM     31  C   UNL     1      20.244   1.888   0.157  0.00  0.00    +0.000 C 
ENDBRANCH  27  30
ENDBRANCH  23  24
ENDBRANCH   3  21
TORSDOF 7
ENDMDL
MODEL 6
REMARK VINA RESULT:      -7.3      3.854      5.848
REMARK  Name = 
REMARK  7 active torsions:
REMARK  status: ('A' for Active; 'I' for Inactive)
REMARK    1  A    between atoms: C_2  and  C_3
REMARK    2  A    between atoms: C_3  and  O_4
REMARK    3  A    between atoms: O_4  and  C_5
REMARK    4  A    between atoms: C_8  and  C_9
REMARK    5  A    between atoms: C_11  and  C_12
REMARK    6  A    between atoms: N_14  and  C_15
REMARK    7  A    between atoms: C_18  and  O_19
REMARK                            x       y       z     vdW  Elec       q    Type
REMARK                         _______ _______ _______ _____ _____    ______ ____
ROOT
ATOM      1  C   UNL     1      37.477   3.066  16.393  0.00  0.00    +0.000 A 
ATOM      2  C   UNL     1      37.908   2.459  15.232  0.00  0.00    +0.000 A 
ATOM      3  C   UNL     1      37.503   1.212  14.867  0.00  0.00    +0.000 A 
ATOM      4  C   UNL     1      36.622   0.510  15.685  0.00  0.00    +0.000 A 
ATOM      5  C   UNL     1      36.208  -0.766  15.314  0.00  0.00    +0.000 A 
ATOM      6  C   UNL     1      35.332  -1.441  16.147  0.00  0.00    +0.000 A 
ATOM      7  C   UNL     1      34.903  -0.828  17.308  0.00  0.00    +0.000 A 
ATOM      8  C   UNL     1      35.313   0.430  17.674  0.00  0.00    +0.000 A 
ATOM      9  C   UNL     1      36.193   1.119  16.847  0.00  0.00    +0.000 A 
ATOM     10  N   UNL     1      36.626   2.361  17.161  0.00  0.00    +0.000 NA
ENDROOT
BRANCH   1  14
ATOM     11  C   UNL     1      38.780   6.988  17.517  0.00  0.00    +0.000 A 
ATOM     12  C   UNL     1      38.213   6.743  16.285  0.00  0.00    +0.000 A 
ATOM     13  C   UNL     1      37.786   5.470  15.908  0.00  0.00    +0.000 A 
ATOM     14  C   UNL     1      37.921   4.411  16.773  0.00  0.00    +0.000 A 
ATOM     15  C   UNL     1      38.485   4.644  18.006  0.00  0.00    +0.000 A 
ATOM     16  C   UNL     1      38.913   5.922  18.381  0.00  0.00    +0.000 A 
BRANCH  11  17
ATOM     17  O   UNL     1      39.216   8.238  17.927  0.00  0.00    +0.000 OA
BRANCH  17  18
ATOM     18  C   UNL     1      38.407   9.368  18.020  0.00  0.00    +0.000 C 
BRANCH  18  20
ATOM     19  C   UNL     1      37.794   9.051  20.420  0.00  0.00    +0.000 C 
ATOM     20  C   UNL     1      37.268   9.070  18.980  0.00  0.00    +0.000 C 
ENDBRANCH  18  20
ENDBRANCH  17  18
ENDBRANCH  11  17
ENDBRANCH   1  14
BRANCH   3  21
ATOM     21  C   UNL     1      37.940   0.540  13.646  0.00  0.00    +0.000 C 
ATOM     22  O   UNL     1      37.166   0.527  12.656  0.00  0.00    +0.000 OA
ATOM     23  N   UNL     1      39.191  -0.099  13.511  0.00  0.00    +0.000 NA
BRANCH  23  24
ATOM     24  C   UNL     1      39.604  -0.755  12.305  0.00  0.00    +0.000 A 
ATOM     25  C   UNL     1      40.071   0.037  11.275  0.00  0.00    +0.000 A 
ATOM     26  C   UNL     1      40.499  -0.469  10.065  0.00  0.00    +0.000 A 
ATOM     27  C   UNL     1      40.449  -1.835   9.898  0.00  0.00    +0.000 A 
ATOM     28  C   UNL     1      39.988  -2.651  10.907  0.00  0.00    +0.000 A 
ATOM     29  C   UNL     1      39.562  -2.102  12.122  0.00  0.00    +0.000 A 
BRANCH  27  30
ATOM     30  O   UNL     1      40.869  -2.386   8.696  0.00  0.00    +0.000 OA
ATOM     31  C   UNL     1      41.271  -3.733   8.622  0.00  0.00    +0.000 C 
ENDBRANCH  27  30
ENDBRANCH  23  24
ENDBRANCH   3  21
TORSDOF 7
ENDMDL
MODEL 7
REMARK VINA RESULT:      -7.2      4.793      8.216
REMARK  Name = 
REMARK  7 active torsions:
REMARK  status: ('A' for Active; 'I' for Inactive)
REMARK    1  A    between atoms: C_2  and  C_3
REMARK    2  A    between atoms: C_3  and  O_4
REMARK    3  A    between atoms: O_4  and  C_5
REMARK    4  A    between atoms: C_8  and  C_9
REMARK    5  A    between atoms: C_11  and  C_12
REMARK    6  A    between atoms: N_14  and  C_15
REMARK    7  A    between atoms: C_18  and  O_19
REMARK                            x       y       z     vdW  Elec       q    Type
REMARK                         _______ _______ _______ _____ _____    ______ ____
ROOT
ATOM      1  C   UNL     1      39.043   0.275  14.939  0.00  0.00    +0.000 A 
ATOM      2  C   UNL     1      38.696   1.585  14.677  0.00  0.00    +0.000 A 
ATOM      3  C   UNL     1      37.502   2.113  15.059  0.00  0.00    +0.000 A 
ATOM      4  C   UNL     1      36.585   1.316  15.738  0.00  0.00    +0.000 A 
ATOM      5  C   UNL     1      35.362   1.855  16.129  0.00  0.00    +0.000 A 
ATOM      6  C   UNL     1      34.469   1.039  16.802  0.00  0.00    +0.000 A 
ATOM      7  C   UNL     1      34.822  -0.271  17.061  0.00  0.00    +0.000 A 
ATOM      8  C   UNL     1      36.027  -0.802  16.675  0.00  0.00    +0.000 A 
ATOM      9  C   UNL     1      36.933   0.006  15.998  0.00  0.00    +0.000 A 
ATOM     10  N   UNL     1      38.134  -0.468  15.597  0.00  0.00    +0.000 NA
ENDROOT
BRANCH   1  14
ATOM     11  C   UNL     1      42.810  -1.362  13.726  0.00  0.00    +0.000 A 
ATOM     12  C   UNL     1      42.501  -0.036  13.518  0.00  0.00    +0.000 A 
ATOM     13  C   UNL     1      41.277   0.508  13.907  0.00  0.00    +0.000 A 
ATOM     14  C   UNL     1      40.334  -0.281  14.522  0.00  0.00    +0.000 A 
ATOM     15  C   UNL     1      40.632  -1.607  14.735  0.00  0.00    +0.000 A 
ATOM     16  C   UNL     1      41.860  -2.149  14.342  0.00  0.00    +0.000 A 
BRANCH  11  17
ATOM     17  O   UNL     1      44.014  -1.939  13.352  0.00  0.00    +0.000 OA
BRANCH  17  18
ATOM     18  C   UNL     1      45.246  -1.644  13.932  0.00  0.00    +0.000 C 
BRANCH  18  20
ATOM     19  C   UNL     1      45.345  -0.275  16.019  0.00  0.00    +0.000 C 
ATOM     20  C   UNL     1      45.089  -1.673  15.442  0.00  0.00    +0.000 C 
ENDBRANCH  18  20
ENDBRANCH  17  18
ENDBRANCH  11  17
ENDBRANCH   1  14
BRANCH   3  21
ATOM     21  C   UNL     1      37.104   3.494  14.799  0.00  0.00    +0.000 C 
ATOM     22  O   UNL     1      37.431   4.382  15.625  0.00  0.00    +0.000 OA
ATOM     23  N   UNL     1      36.366   3.893  13.663  0.00  0.00    +0.000 NA
BRANCH  23  24
ATOM     24  C   UNL     1      35.983   5.253  13.422  0.00  0.00    +0.000 A 
ATOM     25  C   UNL     1      34.737   5.653  13.859  0.00  0.00    +0.000 A 
ATOM     26  C   UNL     1      34.249   6.933  13.691  0.00  0.00    +0.000 A 
ATOM     27  C   UNL     1      35.064   7.840  13.050  0.00  0.00    +0.000 A 
ATOM     28  C   UNL     1      36.312   7.471  12.602  0.00  0.00    +0.000 A 
ATOM     29  C   UNL     1      36.775   6.163  12.792  0.00  0.00    +0.000 A 
BRANCH  27  30
ATOM     30  O   UNL     1      34.613   9.138  12.859  0.00  0.00    +0.000 OA
ATOM     31  C   UNL     1      34.294   9.608  11.572  0.00  0.00    +0.000 C 
ENDBRANCH  27  30
ENDBRANCH  23  24
ENDBRANCH   3  21
TORSDOF 7
ENDMDL
MODEL 8
REMARK VINA RESULT:      -7.2      6.321      8.040
REMARK  Name = 
REMARK  7 active torsions:
REMARK  status: ('A' for Active; 'I' for Inactive)
REMARK    1  A    between atoms: C_2  and  C_3
REMARK    2  A    between atoms: C_3  and  O_4
REMARK    3  A    between atoms: O_4  and  C_5
REMARK    4  A    between atoms: C_8  and  C_9
REMARK    5  A    between atoms: C_11  and  C_12
REMARK    6  A    between atoms: N_14  and  C_15
REMARK    7  A    between atoms: C_18  and  O_19
REMARK                            x       y       z     vdW  Elec       q    Type
REMARK                         _______ _______ _______ _____ _____    ______ ____
ROOT
ATOM      1  C   UNL     1      38.528  -1.713  15.358  0.00  0.00    +0.000 A 
ATOM      2  C   UNL     1      37.956  -2.967  15.276  0.00  0.00    +0.000 A 
ATOM      3  C   UNL     1      36.705  -3.229  15.743  0.00  0.00    +0.000 A 
ATOM      4  C   UNL     1      35.962  -2.207  16.327  0.00  0.00    +0.000 A 
ATOM      5  C   UNL     1      34.682  -2.474  16.806  0.00  0.00    +0.000 A 
ATOM      6  C   UNL     1      33.967  -1.439  17.383  0.00  0.00    +0.000 A 
ATOM      7  C   UNL     1      34.544  -0.187  17.461  0.00  0.00    +0.000 A 
ATOM      8  C   UNL     1      35.806   0.076  16.989  0.00  0.00    +0.000 A 
ATOM      9  C   UNL     1      36.536  -0.955  16.408  0.00  0.00    +0.000 A 
ATOM     10  N   UNL     1      37.783  -0.749  15.928  0.00  0.00    +0.000 NA
ENDROOT
BRANCH   1  14
ATOM     11  C   UNL     1      42.472  -0.944  13.877  0.00  0.00    +0.000 A 
ATOM     12  C   UNL     1      41.542   0.064  14.006  0.00  0.00    +0.000 A 
ATOM     13  C   UNL     1      40.255  -0.174  14.487  0.00  0.00    +0.000 A 
ATOM     14  C   UNL     1      39.877  -1.445  14.850  0.00  0.00    +0.000 A 
ATOM     15  C   UNL     1      40.797  -2.460  14.725  0.00  0.00    +0.000 A 
ATOM     16  C   UNL     1      42.087  -2.217  14.242  0.00  0.00    +0.000 A 
BRANCH  11  17
ATOM     17  O   UNL     1      43.759  -0.746  13.403  0.00  0.00    +0.000 OA
BRANCH  17  18
ATOM     18  C   UNL     1      44.741  -0.011  14.063  0.00  0.00    +0.000 C 
BRANCH  18  20
ATOM     19  C   UNL     1      45.656  -1.435  15.900  0.00  0.00    +0.000 C 
ATOM     20  C   UNL     1      44.662  -0.322  15.548  0.00  0.00    +0.000 C 
ENDBRANCH  18  20
ENDBRANCH  17  18
ENDBRANCH  11  17
ENDBRANCH   1  14
BRANCH   3  21
ATOM     21  C   UNL     1      36.070  -4.543  15.672  0.00  0.00    +0.000 C 
ATOM     22  O   UNL     1      36.508  -5.464  16.406  0.00  0.00    +0.000 OA
ATOM     23  N   UNL     1      34.984  -4.840  14.821  0.00  0.00    +0.000 NA
BRANCH  23  24
ATOM     24  C   UNL     1      34.372  -6.135  14.764  0.00  0.00    +0.000 A 
ATOM     25  C   UNL     1      34.277  -6.743  13.529  0.00  0.00    +0.000 A 
ATOM     26  C   UNL     1      33.711  -7.987  13.338  0.00  0.00    +0.000 A 
ATOM     27  C   UNL     1      33.222  -8.636  14.451  0.00  0.00    +0.000 A 
ATOM     28  C   UNL     1      33.302  -8.055  15.696  0.00  0.00    +0.000 A 
ATOM     29  C   UNL     1      33.884  -6.791  15.852  0.00  0.00    +0.000 A 
BRANCH  27  30
ATOM     30  O   UNL     1      32.645  -9.888  14.304  0.00  0.00    +0.000 OA
ATOM     31  C   UNL     1      32.763 -10.860  15.315  0.00  0.00    +0.000 C 
ENDBRANCH  27  30
ENDBRANCH  23  24
ENDBRANCH   3  21
TORSDOF 7
ENDMDL
MODEL 9
REMARK VINA RESULT:      -7.2      5.766      9.313
REMARK  Name = 
REMARK  7 active torsions:
REMARK  status: ('A' for Active; 'I' for Inactive)
REMARK    1  A    between atoms: C_2  and  C_3
REMARK    2  A    between atoms: C_3  and  O_4
REMARK    3  A    between atoms: O_4  and  C_5
REMARK    4  A    between atoms: C_8  and  C_9
REMARK    5  A    between atoms: C_11  and  C_12
REMARK    6  A    between atoms: N_14  and  C_15
REMARK    7  A    between atoms: C_18  and  O_19
REMARK                            x       y       z     vdW  Elec       q    Type
REMARK                         _______ _______ _______ _____ _____    ______ ____
ROOT
ATOM      1  C   UNL     1      40.859  -2.129  14.735  0.00  0.00    +0.000 A 
ATOM      2  C   UNL     1      40.006  -1.095  14.404  0.00  0.00    +0.000 A 
ATOM      3  C   UNL     1      38.815  -0.903  15.032  0.00  0.00    +0.000 A 
ATOM      4  C   UNL     1      38.427  -1.773  16.048  0.00  0.00    +0.000 A 
ATOM      5  C   UNL     1      37.208  -1.578  16.691  0.00  0.00    +0.000 A 
ATOM      6  C   UNL     1      36.847  -2.458  17.697  0.00  0.00    +0.000 A 
ATOM      7  C   UNL     1      37.705  -3.490  18.024  0.00  0.00    +0.000 A 
ATOM      8  C   UNL     1      38.907  -3.682  17.389  0.00  0.00    +0.000 A 
ATOM      9  C   UNL     1      39.281  -2.806  16.377  0.00  0.00    +0.000 A 
ATOM     10  N   UNL     1      40.454  -2.950  15.720  0.00  0.00    +0.000 NA
ENDROOT
BRANCH   1  14
ATOM     11  C   UNL     1      44.609  -2.688  12.742  0.00  0.00    +0.000 A 
ATOM     12  C   UNL     1      43.462  -3.317  12.309  0.00  0.00    +0.000 A 
ATOM     13  C   UNL     1      42.236  -3.144  12.950  0.00  0.00    +0.000 A 
ATOM     14  C   UNL     1      42.141  -2.323  14.049  0.00  0.00    +0.000 A 
ATOM     15  C   UNL     1      43.279  -1.689  14.490  0.00  0.00    +0.000 A 
ATOM     16  C   UNL     1      44.507  -1.867  13.845  0.00  0.00    +0.000 A 
BRANCH  11  17
ATOM     17  O   UNL     1      45.844  -2.836  12.132  0.00  0.00    +0.000 OA
BRANCH  17  18
ATOM     18  C   UNL     1      46.503  -4.052  11.964  0.00  0.00    +0.000 C 
BRANCH  18  20
ATOM     19  C   UNL     1      48.060  -5.570  13.193  0.00  0.00    +0.000 C 
ATOM     20  C   UNL     1      46.893  -4.584  13.332  0.00  0.00    +0.000 C 
ENDBRANCH  18  20
ENDBRANCH  17  18
ENDBRANCH  11  17
ENDBRANCH   1  14
BRANCH   3  21
ATOM     21  C   UNL     1      37.890   0.179  14.707  0.00  0.00    +0.000 C 
ATOM     22  O   UNL     1      37.129   0.044  13.717  0.00  0.00    +0.000 OA
ATOM     23  N   UNL     1      37.800   1.378  15.447  0.00  0.00    +0.000 NA
BRANCH  23  24
ATOM     24  C   UNL     1      36.886   2.431  15.115  0.00  0.00    +0.000 A 
ATOM     25  C   UNL     1      37.387   3.519  14.429  0.00  0.00    +0.000 A 
ATOM     26  C   UNL     1      36.613   4.597  14.049  0.00  0.00    +0.000 A 
ATOM     27  C   UNL     1      35.277   4.564  14.384  0.00  0.00    +0.000 A 
ATOM     28  C   UNL     1      34.749   3.493  15.068  0.00  0.00    +0.000 A 
ATOM     29  C   UNL     1      35.564   2.416  15.436  0.00  0.00    +0.000 A 
BRANCH  27  30
ATOM     30  O   UNL     1      34.463   5.628  14.022  0.00  0.00    +0.000 OA
ATOM     31  C   UNL     1      34.781   6.434  12.913  0.00  0.00    +0.000 C 
ENDBRANCH  27  30
ENDBRANCH  23  24
ENDBRANCH   3  21
TORSDOF 7
ENDMDL
MODEL 10
REMARK VINA RESULT:      -7.1      2.878      5.265
REMARK  Name = 
REMARK  7 active torsions:
REMARK  status: ('A' for Active; 'I' for Inactive)
REMARK    1  A    between atoms: C_2  and  C_3
REMARK    2  A    between atoms: C_3  and  O_4
REMARK    3  A    between atoms: O_4  and  C_5
REMARK    4  A    between atoms: C_8  and  C_9
REMARK    5  A    between atoms: C_11  and  C_12
REMARK    6  A    between atoms: N_14  and  C_15
REMARK    7  A    between atoms: C_18  and  O_19
REMARK                            x       y       z     vdW  Elec       q    Type
REMARK                         _______ _______ _______ _____ _____    ______ ____
ROOT
ATOM      1  C   UNL     1      41.797   6.889  20.033  0.00  0.00    +0.000 A 
ATOM      2  C   UNL     1      41.144   6.002  19.201  0.00  0.00    +0.000 A 
ATOM      3  C   UNL     1      39.860   6.192  18.797  0.00  0.00    +0.000 A 
ATOM      4  C   UNL     1      39.163   7.317  19.229  0.00  0.00    +0.000 A 
ATOM      5  C   UNL     1      37.848   7.512  18.816  0.00  0.00    +0.000 A 
ATOM      6  C   UNL     1      37.179   8.639  19.263  0.00  0.00    +0.000 A 
ATOM      7  C   UNL     1      37.837   9.524  20.095  0.00  0.00    +0.000 A 
ATOM      8  C   UNL     1      39.134   9.331  20.502  0.00  0.00    +0.000 A 
ATOM      9  C   UNL     1      39.817   8.203  20.061  0.00  0.00    +0.000 A 
ATOM     10  N   UNL     1      41.095   7.966  20.432  0.00  0.00    +0.000 NA
ENDROOT
BRANCH   1  14
ATOM     11  C   UNL     1      45.839   6.251  21.296  0.00  0.00    +0.000 A 
ATOM     12  C   UNL     1      45.537   6.599  19.998  0.00  0.00    +0.000 A 
ATOM     13  C   UNL     1      44.224   6.808  19.574  0.00  0.00    +0.000 A 
ATOM     14  C   UNL     1      43.183   6.672  20.460  0.00  0.00    +0.000 A 
ATOM     15  C   UNL     1      43.472   6.326  21.760  0.00  0.00    +0.000 A 
ATOM     16  C   UNL     1      44.790   6.115  22.180  0.00  0.00    +0.000 A 
BRANCH  11  17
ATOM     17  O   UNL     1      47.129   6.035  21.753  0.00  0.00    +0.000 OA
BRANCH  17  18
ATOM     18  C   UNL     1      47.595   4.825  22.264  0.00  0.00    +0.000 C 
BRANCH  18  20
ATOM     19  C   UNL     1      47.241   2.983  20.614  0.00  0.00    +0.000 C 
ATOM     20  C   UNL     1      48.229   4.035  21.132  0.00  0.00    +0.000 C 
ENDBRANCH  18  20
ENDBRANCH  17  18
ENDBRANCH  11  17
ENDBRANCH   1  14
BRANCH   3  21
ATOM     21  C   UNL     1      39.140   5.273  17.917  0.00  0.00    +0.000 C 
ATOM     22  O   UNL     1      38.521   4.309  18.431  0.00  0.00    +0.000 OA
ATOM     23  N   UNL     1      39.099   5.409  16.513  0.00  0.00    +0.000 NA
BRANCH  23  24
ATOM     24  C   UNL     1      38.388   4.499  15.664  0.00  0.00    +0.000 A 
ATOM     25  C   UNL     1      39.072   3.396  15.194  0.00  0.00    +0.000 A 
ATOM     26  C   UNL     1      38.503   2.445  14.372  0.00  0.00    +0.000 A 
ATOM     27  C   UNL     1      37.185   2.628  14.012  0.00  0.00    +0.000 A 
ATOM     28  C   UNL     1      36.477   3.718  14.464  0.00  0.00    +0.000 A 
ATOM     29  C   UNL     1      37.088   4.663  15.299  0.00  0.00    +0.000 A 
BRANCH  27  30
ATOM     30  O   UNL     1      36.574   1.696  13.186  0.00  0.00    +0.000 OA
ATOM     31  C   UNL     1      37.010   0.358  13.161  0.00  0.00    +0.000 C 
ENDBRANCH  27  30
ENDBRANCH  23  24
ENDBRANCH   3  21
TORSDOF 7
ENDMDL
