MODEL 1
REMARK VINA RESULT:      -6.5      0.000      0.000
REMARK  Name = 
REMARK  8 active torsions:
REMARK  status: ('A' for Active; 'I' for Inactive)
REMARK    1  A    between atoms: C_2  and  C_3
REMARK    2  A    between atoms: C_3  and  C_24
REMARK    3  A    between atoms: C_4  and  C_5
REMARK    4  A    between atoms: C_4  and  C_17
REMARK    5  A    between atoms: C_8  and  O_9
REMARK    6  A    between atoms: O_9  and  C_10
REMARK    7  A    between atoms: C_10  and  C_11
REMARK    8  A    between atoms: C_11  and  N_12
REMARK                            x       y       z     vdW  Elec       q    Type
REMARK                         _______ _______ _______ _____ _____    ______ ____
ROOT
ATOM      1  C   UNL     1      36.445  -0.181  16.241  0.00  0.00    +0.000 C 
ATOM      2  C   UNL     1      37.290  -1.009  15.703  0.00  0.00    +0.000 C 
ENDROOT
BRANCH   2   3
ATOM      3  C   UNL     1      37.368  -2.425  16.148  0.00  0.00    +0.000 A 
ATOM      4  C   UNL     1      36.574  -3.344  15.485  0.00  0.00    +0.000 A 
ATOM      5  C   UNL     1      36.621  -4.673  15.841  0.00  0.00    +0.000 A 
ATOM      6  C   UNL     1      37.468  -5.094  16.871  0.00  0.00    +0.000 A 
ATOM      7  C   UNL     1      38.236  -4.145  17.496  0.00  0.00    +0.000 A 
ATOM      8  O   UNL     1      39.105  -4.537  18.542  0.00  0.00    +0.000 OA
ATOM      9  C   UNL     1      38.195  -2.802  17.145  0.00  0.00    +0.000 A 
ENDBRANCH   2   3
BRANCH   2  10
ATOM     10  C   UNL     1      38.205  -0.636  14.664  0.00  0.00    +0.000 A 
ATOM     11  C   UNL     1      37.696  -0.675  13.360  0.00  0.00    +0.000 A 
ATOM     12  C   UNL     1      38.490  -0.315  12.309  0.00  0.00    +0.000 A 
ATOM     13  C   UNL     1      39.804   0.089  12.549  0.00  0.00    +0.000 A 
ATOM     14  C   UNL     1      40.328   0.137  13.824  0.00  0.00    +0.000 A 
ATOM     15  C   UNL     1      39.471  -0.241  14.844  0.00  0.00    +0.000 A 
BRANCH  13  16
ATOM     16  O   UNL     1      40.589   0.448  11.464  0.00  0.00    +0.000 OA
BRANCH  16  17
ATOM     17  C   UNL     1      40.888  -0.544  10.490  0.00  0.00    +0.000 C 
BRANCH  17  18
ATOM     18  C   UNL     1      42.054  -1.400  10.953  0.00  0.00    +0.000 C 
BRANCH  18  19
ATOM     19  N   UNL     1      41.642  -2.774  10.947  0.00  0.00    +0.000 NA
ATOM     20  C   UNL     1      41.325  -3.246  12.279  0.00  0.00    +0.000 C 
ATOM     21  C   UNL     1      40.396  -2.853  10.165  0.00  0.00    +0.000 C 
ENDBRANCH  18  19
ENDBRANCH  17  18
ENDBRANCH  16  17
ENDBRANCH  13  16
ENDBRANCH   2  10
BRANCH   1  22
ATOM     22  C   UNL     1      36.284   1.192  15.876  0.00  0.00    +0.000 A 
ATOM     23  C   UNL     1      35.210   1.588  15.059  0.00  0.00    +0.000 A 
ATOM     24  C   UNL     1      35.033   2.888  14.648  0.00  0.00    +0.000 A 
ATOM     25  C   UNL     1      35.923   3.898  15.027  0.00  0.00    +0.000 A 
ATOM     26  C   UNL     1      36.967   3.531  15.818  0.00  0.00    +0.000 A 
ATOM     27  C   UNL     1      37.129   2.244  16.216  0.00  0.00    +0.000 A 
ENDBRANCH   1  22
BRANCH   1  29
ATOM     28  C   UNL     1      35.901  -0.097  18.652  0.00  0.00    +0.000 C 
ATOM     29  C   UNL     1      35.569  -0.784  17.328  0.00  0.00    +0.000 C 
ENDBRANCH   1  29
TORSDOF 8
ENDMDL
MODEL 2
REMARK VINA RESULT:      -6.5      6.428      9.510
REMARK  Name = 
REMARK  8 active torsions:
REMARK  status: ('A' for Active; 'I' for Inactive)
REMARK    1  A    between atoms: C_2  and  C_3
REMARK    2  A    between atoms: C_3  and  C_24
REMARK    3  A    between atoms: C_4  and  C_5
REMARK    4  A    between atoms: C_4  and  C_17
REMARK    5  A    between atoms: C_8  and  O_9
REMARK    6  A    between atoms: O_9  and  C_10
REMARK    7  A    between atoms: C_10  and  C_11
REMARK    8  A    between atoms: C_11  and  N_12
REMARK                            x       y       z     vdW  Elec       q    Type
REMARK                         _______ _______ _______ _____ _____    ______ ____
ROOT
ATOM      1  C   UNL     1      40.148   8.528  18.999  0.00  0.00    +0.000 C 
ATOM      2  C   UNL     1      40.667   7.350  18.818  0.00  0.00    +0.000 C 
ENDROOT
BRANCH   2   3
ATOM      3  C   UNL     1      41.991   6.998  19.396  0.00  0.00    +0.000 A 
ATOM      4  C   UNL     1      42.008   6.484  20.679  0.00  0.00    +0.000 A 
ATOM      5  C   UNL     1      43.204   6.120  21.256  0.00  0.00    +0.000 A 
ATOM      6  C   UNL     1      44.399   6.270  20.546  0.00  0.00    +0.000 A 
ATOM      7  C   UNL     1      44.329   6.784  19.277  0.00  0.00    +0.000 A 
ATOM      8  O   UNL     1      45.520   6.948  18.530  0.00  0.00    +0.000 OA
ATOM      9  C   UNL     1      43.129   7.154  18.687  0.00  0.00    +0.000 A 
ENDBRANCH   2   3
BRANCH   2  10
ATOM     10  C   UNL     1      40.028   6.316  18.059  0.00  0.00    +0.000 A 
ATOM     11  C   UNL     1      39.177   5.469  18.779  0.00  0.00    +0.000 A 
ATOM     12  C   UNL     1      38.509   4.468  18.132  0.00  0.00    +0.000 A 
ATOM     13  C   UNL     1      38.683   4.303  16.758  0.00  0.00    +0.000 A 
ATOM     14  C   UNL     1      39.515   5.125  16.027  0.00  0.00    +0.000 A 
ATOM     15  C   UNL     1      40.163   6.118  16.743  0.00  0.00    +0.000 A 
BRANCH  13  16
ATOM     16  O   UNL     1      37.994   3.279  16.126  0.00  0.00    +0.000 OA
BRANCH  16  17
ATOM     17  C   UNL     1      36.653   3.520  15.718  0.00  0.00    +0.000 C 
BRANCH  17  18
ATOM     18  C   UNL     1      35.719   2.505  16.354  0.00  0.00    +0.000 C 
BRANCH  18  19
ATOM     19  N   UNL     1      36.485   1.350  16.724  0.00  0.00    +0.000 NA
ATOM     20  C   UNL     1      36.087   0.832  18.016  0.00  0.00    +0.000 C 
ATOM     21  C   UNL     1      36.189   0.296  15.738  0.00  0.00    +0.000 C 
ENDBRANCH  18  19
ENDBRANCH  17  18
ENDBRANCH  16  17
ENDBRANCH  13  16
ENDBRANCH   2  10
BRANCH   1  22
ATOM     22  C   UNL     1      38.879   8.959  18.499  0.00  0.00    +0.000 A 
ATOM     23  C   UNL     1      38.807   9.776  17.357  0.00  0.00    +0.000 A 
ATOM     24  C   UNL     1      37.616  10.249  16.859  0.00  0.00    +0.000 A 
ATOM     25  C   UNL     1      36.397   9.937  17.471  0.00  0.00    +0.000 A 
ATOM     26  C   UNL     1      36.451   9.147  18.577  0.00  0.00    +0.000 A 
ATOM     27  C   UNL     1      37.634   8.687  19.056  0.00  0.00    +0.000 A 
ENDBRANCH   1  22
BRANCH   1  29
ATOM     28  C   UNL     1      40.083  10.180  20.838  0.00  0.00    +0.000 C 
ATOM     29  C   UNL     1      40.995   9.475  19.835  0.00  0.00    +0.000 C 
ENDBRANCH   1  29
TORSDOF 8
ENDMDL
MODEL 3
REMARK VINA RESULT:      -6.4      7.564     10.336
REMARK  Name = 
REMARK  8 active torsions:
REMARK  status: ('A' for Active; 'I' for Inactive)
REMARK    1  A    between atoms: C_2  and  C_3
REMARK    2  A    between atoms: C_3  and  C_24
REMARK    3  A    between atoms: C_4  and  C_5
REMARK    4  A    between atoms: C_4  and  C_17
REMARK    5  A    between atoms: C_8  and  O_9
REMARK    6  A    between atoms: O_9  and  C_10
REMARK    7  A    between atoms: C_10  and  C_11
REMARK    8  A    between atoms: C_11  and  N_12
REMARK                            x       y       z     vdW  Elec       q    Type
REMARK                         _______ _______ _______ _____ _____    ______ ____
ROOT
ATOM      1  C   UNL     1      41.603   8.717  20.201  0.00  0.00    +0.000 C 
ATOM      2  C   UNL     1      41.869   7.511  19.794  0.00  0.00    +0.000 C 
ENDROOT
BRANCH   2   3
ATOM      3  C   UNL     1      43.161   6.856  20.127  0.00  0.00    +0.000 A 
ATOM      4  C   UNL     1      44.224   7.074  19.269  0.00  0.00    +0.000 A 
ATOM      5  C   UNL     1      45.450   6.509  19.539  0.00  0.00    +0.000 A 
ATOM      6  C   UNL     1      45.621   5.717  20.679  0.00  0.00    +0.000 A 
ATOM      7  C   UNL     1      44.538   5.532  21.499  0.00  0.00    +0.000 A 
ATOM      8  O   UNL     1      44.677   4.737  22.661  0.00  0.00    +0.000 OA
ATOM      9  C   UNL     1      43.297   6.097  21.234  0.00  0.00    +0.000 A 
ENDBRANCH   2   3
BRANCH   2  10
ATOM     10  C   UNL     1      40.965   6.731  19.002  0.00  0.00    +0.000 A 
ATOM     11  C   UNL     1      41.265   6.650  17.636  0.00  0.00    +0.000 A 
ATOM     12  C   UNL     1      40.469   5.910  16.808  0.00  0.00    +0.000 A 
ATOM     13  C   UNL     1      39.364   5.242  17.336  0.00  0.00    +0.000 A 
ATOM     14  C   UNL     1      39.049   5.305  18.677  0.00  0.00    +0.000 A 
ATOM     15  C   UNL     1      39.895   6.072  19.461  0.00  0.00    +0.000 A 
BRANCH  13  16
ATOM     16  O   UNL     1      38.573   4.498  16.474  0.00  0.00    +0.000 OA
BRANCH  16  17
ATOM     17  C   UNL     1      37.465   3.791  17.017  0.00  0.00    +0.000 C 
BRANCH  17  18
ATOM     18  C   UNL     1      36.773   2.985  15.930  0.00  0.00    +0.000 C 
BRANCH  18  19
ATOM     19  N   UNL     1      35.392   2.831  16.286  0.00  0.00    +0.000 NA
ATOM     20  C   UNL     1      34.510   3.272  15.225  0.00  0.00    +0.000 C 
ATOM     21  C   UNL     1      35.145   1.390  16.467  0.00  0.00    +0.000 C 
ENDBRANCH  18  19
ENDBRANCH  17  18
ENDBRANCH  16  17
ENDBRANCH  13  16
ENDBRANCH   2  10
BRANCH   1  22
ATOM     22  C   UNL     1      40.388   9.427  19.947  0.00  0.00    +0.000 A 
ATOM     23  C   UNL     1      40.195  10.087  18.720  0.00  0.00    +0.000 A 
ATOM     24  C   UNL     1      39.062  10.815  18.442  0.00  0.00    +0.000 A 
ATOM     25  C   UNL     1      38.029  10.939  19.376  0.00  0.00    +0.000 A 
ATOM     26  C   UNL     1      38.201  10.305  20.568  0.00  0.00    +0.000 A 
ATOM     27  C   UNL     1      39.324   9.590  20.829  0.00  0.00    +0.000 A 
ENDBRANCH   1  22
BRANCH   1  29
ATOM     28  C   UNL     1      43.256  10.555  20.244  0.00  0.00    +0.000 C 
ATOM     29  C   UNL     1      42.702   9.366  21.027  0.00  0.00    +0.000 C 
ENDBRANCH   1  29
TORSDOF 8
ENDMDL
MODEL 4
REMARK VINA RESULT:      -6.4      1.863      5.077
REMARK  Name = 
REMARK  8 active torsions:
REMARK  status: ('A' for Active; 'I' for Inactive)
REMARK    1  A    between atoms: C_2  and  C_3
REMARK    2  A    between atoms: C_3  and  C_24
REMARK    3  A    between atoms: C_4  and  C_5
REMARK    4  A    between atoms: C_4  and  C_17
REMARK    5  A    between atoms: C_8  and  O_9
REMARK    6  A    between atoms: O_9  and  C_10
REMARK    7  A    between atoms: C_10  and  C_11
REMARK    8  A    between atoms: C_11  and  N_12
REMARK                            x       y       z     vdW  Elec       q    Type
REMARK                         _______ _______ _______ _____ _____    ______ ____
ROOT
ATOM      1  C   UNL     1      36.854  -0.757  16.530  0.00  0.00    +0.000 C 
ATOM      2  C   UNL     1      37.292  -0.012  15.559  0.00  0.00    +0.000 C 
ENDROOT
BRANCH   2   3
ATOM      3  C   UNL     1      36.762   1.360  15.345  0.00  0.00    +0.000 A 
ATOM      4  C   UNL     1      35.506   1.475  14.777  0.00  0.00    +0.000 A 
ATOM      5  C   UNL     1      34.957   2.721  14.575  0.00  0.00    +0.000 A 
ATOM      6  C   UNL     1      35.667   3.869  14.942  0.00  0.00    +0.000 A 
ATOM      7  C   UNL     1      36.907   3.702  15.502  0.00  0.00    +0.000 A 
ATOM      8  O   UNL     1      37.652   4.841  15.886  0.00  0.00    +0.000 OA
ATOM      9  C   UNL     1      37.470   2.450  15.709  0.00  0.00    +0.000 A 
ENDBRANCH   2   3
BRANCH   2  10
ATOM     10  C   UNL     1      38.294  -0.441  14.628  0.00  0.00    +0.000 A 
ATOM     11  C   UNL     1      37.825  -0.855  13.375  0.00  0.00    +0.000 A 
ATOM     12  C   UNL     1      38.712  -1.261  12.418  0.00  0.00    +0.000 A 
ATOM     13  C   UNL     1      40.078  -1.257  12.703  0.00  0.00    +0.000 A 
ATOM     14  C   UNL     1      40.563  -0.853  13.928  0.00  0.00    +0.000 A 
ATOM     15  C   UNL     1      39.613  -0.455  14.853  0.00  0.00    +0.000 A 
BRANCH  13  16
ATOM     16  O   UNL     1      40.956  -1.675  11.714  0.00  0.00    +0.000 OA
BRANCH  16  17
ATOM     17  C   UNL     1      41.535  -2.969  11.829  0.00  0.00    +0.000 C 
BRANCH  17  18
ATOM     18  C   UNL     1      43.029  -2.901  11.558  0.00  0.00    +0.000 C 
BRANCH  18  19
ATOM     19  N   UNL     1      43.726  -3.350  12.728  0.00  0.00    +0.000 NA
ATOM     20  C   UNL     1      44.971  -4.010  12.393  0.00  0.00    +0.000 C 
ATOM     21  C   UNL     1      44.081  -2.154  13.512  0.00  0.00    +0.000 C 
ENDBRANCH  18  19
ENDBRANCH  17  18
ENDBRANCH  16  17
ENDBRANCH  13  16
ENDBRANCH   2  10
BRANCH   1  22
ATOM     22  C   UNL     1      37.307  -2.081  16.827  0.00  0.00    +0.000 A 
ATOM     23  C   UNL     1      38.233  -2.297  17.863  0.00  0.00    +0.000 A 
ATOM     24  C   UNL     1      38.728  -3.545  18.163  0.00  0.00    +0.000 A 
ATOM     25  C   UNL     1      38.332  -4.677  17.445  0.00  0.00    +0.000 A 
ATOM     26  C   UNL     1      37.436  -4.483  16.440  0.00  0.00    +0.000 A 
ATOM     27  C   UNL     1      36.955  -3.247  16.155  0.00  0.00    +0.000 A 
ENDBRANCH   1  22
BRANCH   1  29
ATOM     28  C   UNL     1      34.527  -0.968  17.338  0.00  0.00    +0.000 C 
ATOM     29  C   UNL     1      35.788  -0.108  17.398  0.00  0.00    +0.000 C 
ENDBRANCH   1  29
TORSDOF 8
ENDMDL
MODEL 5
REMARK VINA RESULT:      -6.3      3.104      5.930
REMARK  Name = 
REMARK  8 active torsions:
REMARK  status: ('A' for Active; 'I' for Inactive)
REMARK    1  A    between atoms: C_2  and  C_3
REMARK    2  A    between atoms: C_3  and  C_24
REMARK    3  A    between atoms: C_4  and  C_5
REMARK    4  A    between atoms: C_4  and  C_17
REMARK    5  A    between atoms: C_8  and  O_9
REMARK    6  A    between atoms: O_9  and  C_10
REMARK    7  A    between atoms: C_10  and  C_11
REMARK    8  A    between atoms: C_11  and  N_12
REMARK                            x       y       z     vdW  Elec       q    Type
REMARK                         _______ _______ _______ _____ _____    ______ ____
ROOT
ATOM      1  C   UNL     1      38.411  -2.105  16.014  0.00  0.00    +0.000 C 
ATOM      2  C   UNL     1      38.862  -1.481  14.966  0.00  0.00    +0.000 C 
ENDROOT
BRANCH   2   3
ATOM      3  C   UNL     1      40.056  -1.974  14.233  0.00  0.00    +0.000 A 
ATOM      4  C   UNL     1      39.837  -2.735  13.098  0.00  0.00    +0.000 A 
ATOM      5  C   UNL     1      40.906  -3.200  12.368  0.00  0.00    +0.000 A 
ATOM      6  C   UNL     1      42.212  -2.906  12.771  0.00  0.00    +0.000 A 
ATOM      7  C   UNL     1      42.378  -2.149  13.902  0.00  0.00    +0.000 A 
ATOM      8  O   UNL     1      43.686  -1.832  14.337  0.00  0.00    +0.000 OA
ATOM      9  C   UNL     1      41.306  -1.675  14.646  0.00  0.00    +0.000 A 
ENDBRANCH   2   3
BRANCH   2  10
ATOM     10  C   UNL     1      38.265  -0.286  14.445  0.00  0.00    +0.000 A 
ATOM     11  C   UNL     1      38.835   0.918  14.876  0.00  0.00    +0.000 A 
ATOM     12  C   UNL     1      38.343   2.106  14.413  0.00  0.00    +0.000 A 
ATOM     13  C   UNL     1      37.276   2.104  13.515  0.00  0.00    +0.000 A 
ATOM     14  C   UNL     1      36.698   0.931  13.076  0.00  0.00    +0.000 A 
ATOM     15  C   UNL     1      37.243  -0.237  13.583  0.00  0.00    +0.000 A 
BRANCH  13  16
ATOM     16  O   UNL     1      36.796   3.323  13.062  0.00  0.00    +0.000 OA
BRANCH  16  17
ATOM     17  C   UNL     1      36.671   4.388  13.997  0.00  0.00    +0.000 C 
BRANCH  17  18
ATOM     18  C   UNL     1      35.209   4.762  14.176  0.00  0.00    +0.000 C 
BRANCH  18  19
ATOM     19  N   UNL     1      34.963   5.990  13.477  0.00  0.00    +0.000 NA
ATOM     20  C   UNL     1      33.856   6.724  14.053  0.00  0.00    +0.000 C 
ATOM     21  C   UNL     1      36.159   6.834  13.642  0.00  0.00    +0.000 C 
ENDBRANCH  18  19
ENDBRANCH  17  18
ENDBRANCH  16  17
ENDBRANCH  13  16
ENDBRANCH   2  10
BRANCH   1  22
ATOM     22  C   UNL     1      37.265  -1.720  16.779  0.00  0.00    +0.000 A 
ATOM     23  C   UNL     1      35.971  -1.940  16.276  0.00  0.00    +0.000 A 
ATOM     24  C   UNL     1      34.838  -1.554  16.955  0.00  0.00    +0.000 A 
ATOM     25  C   UNL     1      34.917  -0.914  18.196  0.00  0.00    +0.000 A 
ATOM     26  C   UNL     1      36.163  -0.695  18.695  0.00  0.00    +0.000 A 
ATOM     27  C   UNL     1      37.272  -1.082  18.015  0.00  0.00    +0.000 A 
ENDBRANCH   1  22
BRANCH   1  29
ATOM     28  C   UNL     1      38.203  -4.445  16.784  0.00  0.00    +0.000 C 
ATOM     29  C   UNL     1      39.195  -3.350  16.398  0.00  0.00    +0.000 C 
ENDBRANCH   1  29
TORSDOF 8
ENDMDL
MODEL 6
REMARK VINA RESULT:      -6.1      1.733      2.536
REMARK  Name = 
REMARK  8 active torsions:
REMARK  status: ('A' for Active; 'I' for Inactive)
REMARK    1  A    between atoms: C_2  and  C_3
REMARK    2  A    between atoms: C_3  and  C_24
REMARK    3  A    between atoms: C_4  and  C_5
REMARK    4  A    between atoms: C_4  and  C_17
REMARK    5  A    between atoms: C_8  and  O_9
REMARK    6  A    between atoms: O_9  and  C_10
REMARK    7  A    between atoms: C_10  and  C_11
REMARK    8  A    between atoms: C_11  and  N_12
REMARK                            x       y       z     vdW  Elec       q    Type
REMARK                         _______ _______ _______ _____ _____    ______ ____
ROOT
ATOM      1  C   UNL     1      36.249  -0.315  16.189  0.00  0.00    +0.000 C 
ATOM      2  C   UNL     1      37.118  -1.129  15.668  0.00  0.00    +0.000 C 
ENDROOT
BRANCH   2   3
ATOM      3  C   UNL     1      37.198  -2.548  16.101  0.00  0.00    +0.000 A 
ATOM      4  C   UNL     1      36.355  -3.451  15.480  0.00  0.00    +0.000 A 
ATOM      5  C   UNL     1      36.401  -4.782  15.827  0.00  0.00    +0.000 A 
ATOM      6  C   UNL     1      37.299  -5.221  16.806  0.00  0.00    +0.000 A 
ATOM      7  C   UNL     1      38.114  -4.287  17.392  0.00  0.00    +0.000 A 
ATOM      8  O   UNL     1      39.035  -4.698  18.384  0.00  0.00    +0.000 OA
ATOM      9  C   UNL     1      38.075  -2.943  17.049  0.00  0.00    +0.000 A 
ENDBRANCH   2   3
BRANCH   2  10
ATOM     10  C   UNL     1      38.057  -0.735  14.659  0.00  0.00    +0.000 A 
ATOM     11  C   UNL     1      37.633  -0.899  13.334  0.00  0.00    +0.000 A 
ATOM     12  C   UNL     1      38.455  -0.531  12.307  0.00  0.00    +0.000 A 
ATOM     13  C   UNL     1      39.711   0.006  12.592  0.00  0.00    +0.000 A 
ATOM     14  C   UNL     1      40.151   0.177  13.888  0.00  0.00    +0.000 A 
ATOM     15  C   UNL     1      39.270  -0.216  14.881  0.00  0.00    +0.000 A 
BRANCH  13  16
ATOM     16  O   UNL     1      40.526   0.371  11.531  0.00  0.00    +0.000 OA
BRANCH  16  17
ATOM     17  C   UNL     1      39.981   1.210  10.520  0.00  0.00    +0.000 C 
BRANCH  17  18
ATOM     18  C   UNL     1      39.915   2.647  11.010  0.00  0.00    +0.000 C 
BRANCH  18  19
ATOM     19  N   UNL     1      38.591   3.148  10.777  0.00  0.00    +0.000 NA
ATOM     20  C   UNL     1      37.826   2.268   9.918  0.00  0.00    +0.000 C 
ATOM     21  C   UNL     1      37.899   3.174  12.077  0.00  0.00    +0.000 C 
ENDBRANCH  18  19
ENDBRANCH  17  18
ENDBRANCH  16  17
ENDBRANCH  13  16
ENDBRANCH   2  10
BRANCH   1  22
ATOM     22  C   UNL     1      36.082   1.060  15.832  0.00  0.00    +0.000 A 
ATOM     23  C   UNL     1      36.802   2.061  16.509  0.00  0.00    +0.000 A 
ATOM     24  C   UNL     1      36.649   3.399  16.230  0.00  0.00    +0.000 A 
ATOM     25  C   UNL     1      35.759   3.839  15.245  0.00  0.00    +0.000 A 
ATOM     26  C   UNL     1      35.056   2.882  14.581  0.00  0.00    +0.000 A 
ATOM     27  C   UNL     1      35.218   1.565  14.867  0.00  0.00    +0.000 A 
ENDBRANCH   1  22
BRANCH   1  29
ATOM     28  C   UNL     1      35.771  -0.404  18.614  0.00  0.00    +0.000 C 
ATOM     29  C   UNL     1      35.349  -0.938  17.246  0.00  0.00    +0.000 C 
ENDBRANCH   1  29
TORSDOF 8
ENDMDL
MODEL 7
REMARK VINA RESULT:      -6.1      3.186      6.598
REMARK  Name = 
REMARK  8 active torsions:
REMARK  status: ('A' for Active; 'I' for Inactive)
REMARK    1  A    between atoms: C_2  and  C_3
REMARK    2  A    between atoms: C_3  and  C_24
REMARK    3  A    between atoms: C_4  and  C_5
REMARK    4  A    between atoms: C_4  and  C_17
REMARK    5  A    between atoms: C_8  and  O_9
REMARK    6  A    between atoms: O_9  and  C_10
REMARK    7  A    between atoms: C_10  and  C_11
REMARK    8  A    between atoms: C_11  and  N_12
REMARK                            x       y       z     vdW  Elec       q    Type
REMARK                         _______ _______ _______ _____ _____    ______ ____
ROOT
ATOM      1  C   UNL     1      38.070  -1.053  15.514  0.00  0.00    +0.000 C 
ATOM      2  C   UNL     1      38.364  -2.250  15.102  0.00  0.00    +0.000 C 
ENDROOT
BRANCH   2   3
ATOM      3  C   UNL     1      39.452  -2.476  14.114  0.00  0.00    +0.000 A 
ATOM      4  C   UNL     1      40.738  -2.612  14.604  0.00  0.00    +0.000 A 
ATOM      5  C   UNL     1      41.781  -2.844  13.736  0.00  0.00    +0.000 A 
ATOM      6  C   UNL     1      41.541  -2.943  12.362  0.00  0.00    +0.000 A 
ATOM      7  C   UNL     1      40.249  -2.802  11.926  0.00  0.00    +0.000 A 
ATOM      8  O   UNL     1      39.971  -2.897  10.542  0.00  0.00    +0.000 OA
ATOM      9  C   UNL     1      39.190  -2.567  12.793  0.00  0.00    +0.000 A 
ENDBRANCH   2   3
BRANCH   2  10
ATOM     10  C   UNL     1      37.678  -3.427  15.548  0.00  0.00    +0.000 A 
ATOM     11  C   UNL     1      36.472  -3.714  14.895  0.00  0.00    +0.000 A 
ATOM     12  C   UNL     1      35.761  -4.827  15.241  0.00  0.00    +0.000 A 
ATOM     13  C   UNL     1      36.246  -5.668  16.243  0.00  0.00    +0.000 A 
ATOM     14  C   UNL     1      37.431  -5.407  16.899  0.00  0.00    +0.000 A 
ATOM     15  C   UNL     1      38.102  -4.263  16.502  0.00  0.00    +0.000 A 
BRANCH  13  16
ATOM     16  O   UNL     1      35.504  -6.791  16.575  0.00  0.00    +0.000 OA
BRANCH  16  17
ATOM     17  C   UNL     1      34.346  -7.086  15.804  0.00  0.00    +0.000 C 
BRANCH  17  18
ATOM     18  C   UNL     1      34.041  -8.573  15.861  0.00  0.00    +0.000 C 
BRANCH  18  19
ATOM     19  N   UNL     1      34.069  -9.096  14.525  0.00  0.00    +0.000 NA
ATOM     20  C   UNL     1      34.758 -10.368  14.459  0.00  0.00    +0.000 C 
ATOM     21  C   UNL     1      32.674  -9.352  14.127  0.00  0.00    +0.000 C 
ENDBRANCH  18  19
ENDBRANCH  17  18
ENDBRANCH  16  17
ENDBRANCH  13  16
ENDBRANCH   2  10
BRANCH   1  22
ATOM     22  C   UNL     1      37.054  -0.732  16.469  0.00  0.00    +0.000 A 
ATOM     23  C   UNL     1      37.292  -0.908  17.843  0.00  0.00    +0.000 A 
ATOM     24  C   UNL     1      36.336  -0.651  18.798  0.00  0.00    +0.000 A 
ATOM     25  C   UNL     1      35.062  -0.195  18.448  0.00  0.00    +0.000 A 
ATOM     26  C   UNL     1      34.817  -0.020  17.121  0.00  0.00    +0.000 A 
ATOM     27  C   UNL     1      35.770  -0.277  16.190  0.00  0.00    +0.000 A 
ENDBRANCH   1  22
BRANCH   1  29
ATOM     28  C   UNL     1      38.072   0.816  13.895  0.00  0.00    +0.000 C 
ATOM     29  C   UNL     1      38.920   0.054  14.912  0.00  0.00    +0.000 C 
ENDBRANCH   1  29
TORSDOF 8
ENDMDL
MODEL 8
REMARK VINA RESULT:      -6.1      2.792      5.720
REMARK  Name = 
REMARK  8 active torsions:
REMARK  status: ('A' for Active; 'I' for Inactive)
REMARK    1  A    between atoms: C_2  and  C_3
REMARK    2  A    between atoms: C_3  and  C_24
REMARK    3  A    between atoms: C_4  and  C_5
REMARK    4  A    between atoms: C_4  and  C_17
REMARK    5  A    between atoms: C_8  and  O_9
REMARK    6  A    between atoms: O_9  and  C_10
REMARK    7  A    between atoms: C_10  and  C_11
REMARK    8  A    between atoms: C_11  and  N_12
REMARK                            x       y       z     vdW  Elec       q    Type
REMARK                         _______ _______ _______ _____ _____    ______ ____
ROOT
ATOM      1  C   UNL     1      38.549  -2.328  15.099  0.00  0.00    +0.000 C 
ATOM      2  C   UNL     1      37.709  -1.338  15.158  0.00  0.00    +0.000 C 
ENDROOT
BRANCH   2   3
ATOM      3  C   UNL     1      36.546  -1.371  16.084  0.00  0.00    +0.000 A 
ATOM      4  C   UNL     1      35.475  -2.171  15.730  0.00  0.00    +0.000 A 
ATOM      5  C   UNL     1      34.380  -2.257  16.560  0.00  0.00    +0.000 A 
ATOM      6  C   UNL     1      34.350  -1.537  17.759  0.00  0.00    +0.000 A 
ATOM      7  C   UNL     1      35.437  -0.758  18.065  0.00  0.00    +0.000 A 
ATOM      8  O   UNL     1      35.440  -0.018  19.270  0.00  0.00    +0.000 OA
ATOM      9  C   UNL     1      36.545  -0.665  17.234  0.00  0.00    +0.000 A 
ENDBRANCH   2   3
BRANCH   2  10
ATOM     10  C   UNL     1      37.823  -0.159  14.350  0.00  0.00    +0.000 A 
ATOM     11  C   UNL     1      38.775   0.779  14.772  0.00  0.00    +0.000 A 
ATOM     12  C   UNL     1      38.967   1.923  14.050  0.00  0.00    +0.000 A 
ATOM     13  C   UNL     1      38.210   2.143  12.899  0.00  0.00    +0.000 A 
ATOM     14  C   UNL     1      37.268   1.234  12.464  0.00  0.00    +0.000 A 
ATOM     15  C   UNL     1      37.123   0.097  13.240  0.00  0.00    +0.000 A 
BRANCH  13  16
ATOM     16  O   UNL     1      38.425   3.312  12.185  0.00  0.00    +0.000 OA
BRANCH  16  17
ATOM     17  C   UNL     1      37.311   4.160  11.929  0.00  0.00    +0.000 C 
BRANCH  17  18
ATOM     18  C   UNL     1      36.963   4.960  13.172  0.00  0.00    +0.000 C 
BRANCH  18  19
ATOM     19  N   UNL     1      35.605   4.674  13.534  0.00  0.00    +0.000 NA
ATOM     20  C   UNL     1      35.527   3.852  14.724  0.00  0.00    +0.000 C 
ATOM     21  C   UNL     1      34.961   5.956  13.865  0.00  0.00    +0.000 C 
ENDBRANCH  18  19
ENDBRANCH  17  18
ENDBRANCH  16  17
ENDBRANCH  13  16
ENDBRANCH   2  10
BRANCH   1  22
ATOM     22  C   UNL     1      39.702  -2.386  14.255  0.00  0.00    +0.000 A 
ATOM     23  C   UNL     1      39.581  -2.799  12.916  0.00  0.00    +0.000 A 
ATOM     24  C   UNL     1      40.664  -2.909  12.076  0.00  0.00    +0.000 A 
ATOM     25  C   UNL     1      41.959  -2.611  12.514  0.00  0.00    +0.000 A 
ATOM     26  C   UNL     1      42.091  -2.210  13.807  0.00  0.00    +0.000 A 
ATOM     27  C   UNL     1      41.013  -2.105  14.625  0.00  0.00    +0.000 A 
ENDBRANCH   1  22
BRANCH   1  29
ATOM     28  C   UNL     1      39.077  -3.308  17.307  0.00  0.00    +0.000 C 
ATOM     29  C   UNL     1      38.239  -3.481  16.041  0.00  0.00    +0.000 C 
ENDBRANCH   1  29
TORSDOF 8
ENDMDL
MODEL 9
REMARK VINA RESULT:      -6.0      1.869      4.985
REMARK  Name = 
REMARK  8 active torsions:
REMARK  status: ('A' for Active; 'I' for Inactive)
REMARK    1  A    between atoms: C_2  and  C_3
REMARK    2  A    between atoms: C_3  and  C_24
REMARK    3  A    between atoms: C_4  and  C_5
REMARK    4  A    between atoms: C_4  and  C_17
REMARK    5  A    between atoms: C_8  and  O_9
REMARK    6  A    between atoms: O_9  and  C_10
REMARK    7  A    between atoms: C_10  and  C_11
REMARK    8  A    between atoms: C_11  and  N_12
REMARK                            x       y       z     vdW  Elec       q    Type
REMARK                         _______ _______ _______ _____ _____    ______ ____
ROOT
ATOM      1  C   UNL     1      36.584  -1.288  16.428  0.00  0.00    +0.000 C 
ATOM      2  C   UNL     1      37.093  -0.462  15.562  0.00  0.00    +0.000 C 
ENDROOT
BRANCH   2   3
ATOM      3  C   UNL     1      36.642   0.952  15.492  0.00  0.00    +0.000 A 
ATOM      4  C   UNL     1      35.545   1.231  14.696  0.00  0.00    +0.000 A 
ATOM      5  C   UNL     1      35.070   2.519  14.611  0.00  0.00    +0.000 A 
ATOM      6  C   UNL     1      35.695   3.546  15.326  0.00  0.00    +0.000 A 
ATOM      7  C   UNL     1      36.778   3.219  16.102  0.00  0.00    +0.000 A 
ATOM      8  O   UNL     1      37.433   4.233  16.839  0.00  0.00    +0.000 OA
ATOM      9  C   UNL     1      37.265   1.922  16.194  0.00  0.00    +0.000 A 
ENDBRANCH   2   3
BRANCH   2  10
ATOM     10  C   UNL     1      38.104  -0.837  14.617  0.00  0.00    +0.000 A 
ATOM     11  C   UNL     1      39.426  -0.592  15.009  0.00  0.00    +0.000 A 
ATOM     12  C   UNL     1      40.455  -0.936  14.179  0.00  0.00    +0.000 A 
ATOM     13  C   UNL     1      40.175  -1.531  12.949  0.00  0.00    +0.000 A 
ATOM     14  C   UNL     1      38.882  -1.784  12.541  0.00  0.00    +0.000 A 
ATOM     15  C   UNL     1      37.886  -1.410  13.427  0.00  0.00    +0.000 A 
BRANCH  13  16
ATOM     16  O   UNL     1      41.239  -1.870  12.126  0.00  0.00    +0.000 OA
BRANCH  16  17
ATOM     17  C   UNL     1      40.970  -2.634  10.957  0.00  0.00    +0.000 C 
BRANCH  17  18
ATOM     18  C   UNL     1      41.857  -3.867  10.919  0.00  0.00    +0.000 C 
BRANCH  18  19
ATOM     19  N   UNL     1      42.134  -4.188   9.549  0.00  0.00    +0.000 NA
ATOM     20  C   UNL     1      43.214  -3.383   9.016  0.00  0.00    +0.000 C 
ATOM     21  C   UNL     1      42.594  -5.587   9.512  0.00  0.00    +0.000 C 
ENDBRANCH  18  19
ENDBRANCH  17  18
ENDBRANCH  16  17
ENDBRANCH  13  16
ENDBRANCH   2  10
BRANCH   1  22
ATOM     22  C   UNL     1      36.959  -2.659  16.584  0.00  0.00    +0.000 A 
ATOM     23  C   UNL     1      36.130  -3.682  16.090  0.00  0.00    +0.000 A 
ATOM     24  C   UNL     1      36.426  -5.016  16.248  0.00  0.00    +0.000 A 
ATOM     25  C   UNL     1      37.583  -5.430  16.917  0.00  0.00    +0.000 A 
ATOM     26  C   UNL     1      38.395  -4.451  17.401  0.00  0.00    +0.000 A 
ATOM     27  C   UNL     1      38.090  -3.139  17.236  0.00  0.00    +0.000 A 
ENDBRANCH   1  22
BRANCH   1  29
ATOM     28  C   UNL     1      36.086  -0.612  18.753  0.00  0.00    +0.000 C 
ATOM     29  C   UNL     1      35.524  -0.684  17.334  0.00  0.00    +0.000 C 
ENDBRANCH   1  29
TORSDOF 8
ENDMDL
MODEL 10
REMARK VINA RESULT:      -6.0     28.012     31.974
REMARK  Name = 
REMARK  8 active torsions:
REMARK  status: ('A' for Active; 'I' for Inactive)
REMARK    1  A    between atoms: C_2  and  C_3
REMARK    2  A    between atoms: C_3  and  C_24
REMARK    3  A    between atoms: C_4  and  C_5
REMARK    4  A    between atoms: C_4  and  C_17
REMARK    5  A    between atoms: C_8  and  O_9
REMARK    6  A    between atoms: O_9  and  C_10
REMARK    7  A    between atoms: C_10  and  C_11
REMARK    8  A    between atoms: C_11  and  N_12
REMARK                            x       y       z     vdW  Elec       q    Type
REMARK                         _______ _______ _______ _____ _____    ______ ____
ROOT
ATOM      1  C   UNL     1      27.839  16.082  36.520  0.00  0.00    +0.000 C 
ATOM      2  C   UNL     1      26.555  15.980  36.349  0.00  0.00    +0.000 C 
ENDROOT
BRANCH   2   3
ATOM      3  C   UNL     1      25.966  15.881  34.988  0.00  0.00    +0.000 A 
ATOM      4  C   UNL     1      25.940  14.631  34.396  0.00  0.00    +0.000 A 
ATOM      5  C   UNL     1      25.388  14.477  33.145  0.00  0.00    +0.000 A 
ATOM      6  C   UNL     1      24.854  15.581  32.473  0.00  0.00    +0.000 A 
ATOM      7  C   UNL     1      24.903  16.799  33.102  0.00  0.00    +0.000 A 
ATOM      8  O   UNL     1      24.371  17.936  32.451  0.00  0.00    +0.000 OA
ATOM      9  C   UNL     1      25.459  16.964  34.363  0.00  0.00    +0.000 A 
ENDBRANCH   2   3
BRANCH   2  10
ATOM     10  C   UNL     1      25.616  15.962  37.432  0.00  0.00    +0.000 A 
ATOM     11  C   UNL     1      25.233  17.215  37.927  0.00  0.00    +0.000 A 
ATOM     12  C   UNL     1      24.326  17.294  38.946  0.00  0.00    +0.000 A 
ATOM     13  C   UNL     1      23.791  16.122  39.482  0.00  0.00    +0.000 A 
ATOM     14  C   UNL     1      24.153  14.878  39.011  0.00  0.00    +0.000 A 
ATOM     15  C   UNL     1      25.076  14.867  37.979  0.00  0.00    +0.000 A 
BRANCH  13  16
ATOM     16  O   UNL     1      22.873  16.231  40.515  0.00  0.00    +0.000 OA
BRANCH  16  17
ATOM     17  C   UNL     1      21.914  15.194  40.677  0.00  0.00    +0.000 C 
BRANCH  17  18
ATOM     18  C   UNL     1      21.496  15.087  42.134  0.00  0.00    +0.000 C 
BRANCH  18  19
ATOM     19  N   UNL     1      21.288  13.703  42.448  0.00  0.00    +0.000 NA
ATOM     20  C   UNL     1      21.523  13.429  43.851  0.00  0.00    +0.000 C 
ATOM     21  C   UNL     1      19.867  13.406  42.194  0.00  0.00    +0.000 C 
ENDBRANCH  18  19
ENDBRANCH  17  18
ENDBRANCH  16  17
ENDBRANCH  13  16
ENDBRANCH   2  10
BRANCH   1  22
ATOM     22  C   UNL     1      28.503  16.169  37.784  0.00  0.00    +0.000 A 
ATOM     23  C   UNL     1      29.087  17.380  38.197  0.00  0.00    +0.000 A 
ATOM     24  C   UNL     1      29.768  17.505  39.385  0.00  0.00    +0.000 A 
ATOM     25  C   UNL     1      29.918  16.420  40.255  0.00  0.00    +0.000 A 
ATOM     26  C   UNL     1      29.358  15.242  39.869  0.00  0.00    +0.000 A 
ATOM     27  C   UNL     1      28.687  15.134  38.695  0.00  0.00    +0.000 A 
ENDBRANCH   1  22
BRANCH   1  29
ATOM     28  C   UNL     1      29.700  14.975  35.325  0.00  0.00    +0.000 C 
ATOM     29  C   UNL     1      28.653  16.084  35.235  0.00  0.00    +0.000 C 
ENDBRANCH   1  29
TORSDOF 8
ENDMDL
