MODEL 1
REMARK VINA RESULT:      -9.7      0.000      0.000
REMARK  Name = 
REMARK  4 active torsions:
REMARK  status: ('A' for Active; 'I' for Inactive)
REMARK    1  A    between atoms: C_8  and  C_9
REMARK    2  A    between atoms: C_11  and  C_12
REMARK    3  A    between atoms: C_23  and  C_24
REMARK    4  A    between atoms: C_24  and  C_25
REMARK                            x       y       z     vdW  Elec       q    Type
REMARK                         _______ _______ _______ _____ _____    ______ ____
ROOT
ATOM      1  C   UNL     1      12.562   0.295  27.031  0.00  0.00    +0.000 A 
ATOM      2  C   UNL     1      12.079  -0.969  26.782  0.00  0.00    +0.000 A 
ATOM      3  C   UNL     1      12.919  -2.051  26.501  0.00  0.00    +0.000 A 
ATOM      4  C   UNL     1      14.273  -1.764  26.490  0.00  0.00    +0.000 A 
ATOM      5  C   UNL     1      14.770  -0.491  26.741  0.00  0.00    +0.000 A 
ATOM      6  N   UNL     1      16.161  -0.244  26.719  0.00  0.00    +0.000 N 
ATOM      7  C   UNL     1      17.134  -1.267  26.433  0.00  0.00    +0.000 C 
ATOM      8  C   UNL     1      18.421  -0.710  25.897  0.00  0.00    +0.000 C 
ATOM      9  C   UNL     1      18.225   0.559  25.111  0.00  0.00    +0.000 C 
ATOM     10  C   UNL     1      17.352   1.576  25.753  0.00  0.00    +0.000 C 
ATOM     11  C   UNL     1      16.634   1.089  26.994  0.00  0.00    +0.000 C 
ATOM     12  N   UNL     1      13.886   0.470  26.998  0.00  0.00    +0.000 NA
ENDROOT
BRANCH   1  20
ATOM     13  C   UNL     1      12.075   0.954  29.697  0.00  0.00    +0.000 C 
ATOM     14  C   UNL     1      11.432   1.763  28.630  0.00  0.00    +0.000 A 
ATOM     15  C   UNL     1      10.595   2.839  28.943  0.00  0.00    +0.000 A 
ATOM     16  C   UNL     1      10.016   3.569  27.941  0.00  0.00    +0.000 A 
ATOM     17  O   UNL     1       9.183   4.640  28.299  0.00  0.00    +0.000 OA
ATOM     18  C   UNL     1      10.272   3.224  26.641  0.00  0.00    +0.000 A 
ATOM     19  C   UNL     1      11.105   2.153  26.312  0.00  0.00    +0.000 A 
ATOM     20  C   UNL     1      11.689   1.418  27.323  0.00  0.00    +0.000 A 
ENDBRANCH   1  20
BRANCH   3  21
ATOM     21  C   UNL     1      12.405  -3.374  26.239  0.00  0.00    +0.000 A 
ATOM     22  C   UNL     1      12.653  -4.391  27.124  0.00  0.00    +0.000 A 
ATOM     23  C   UNL     1      12.188  -5.667  26.924  0.00  0.00    +0.000 A 
ATOM     24  C   UNL     1      11.449  -5.950  25.807  0.00  0.00    +0.000 A 
ATOM     25  C   UNL     1      11.183  -4.955  24.903  0.00  0.00    +0.000 A 
ATOM     26  C   UNL     1      11.663  -3.659  25.120  0.00  0.00    +0.000 A 
ENDBRANCH   3  21
BRANCH   9  27
ATOM     27  C   UNL     1      19.484   1.096  24.526  0.00  0.00    +0.000 C 
BRANCH  27  28
ATOM     28  C   UNL     1      19.888   0.380  23.300  0.00  0.00    +0.000 A 
ATOM     29  C   UNL     1      19.929   0.992  22.065  0.00  0.00    +0.000 A 
ATOM     30  C   UNL     1      20.317   0.275  20.939  0.00  0.00    +0.000 A 
ATOM     31  C   UNL     1      20.669  -1.048  21.013  0.00  0.00    +0.000 A 
ATOM     32  C   UNL     1      20.630  -1.665  22.247  0.00  0.00    +0.000 A 
ATOM     33  C   UNL     1      20.245  -0.951  23.358  0.00  0.00    +0.000 A 
ENDBRANCH  27  28
ENDBRANCH   9  27
TORSDOF 4
ENDMDL
MODEL 2
REMARK VINA RESULT:      -9.4     23.238     26.541
REMARK  Name = 
REMARK  4 active torsions:
REMARK  status: ('A' for Active; 'I' for Inactive)
REMARK    1  A    between atoms: C_8  and  C_9
REMARK    2  A    between atoms: C_11  and  C_12
REMARK    3  A    between atoms: C_23  and  C_24
REMARK    4  A    between atoms: C_24  and  C_25
REMARK                            x       y       z     vdW  Elec       q    Type
REMARK                         _______ _______ _______ _____ _____    ______ ____
ROOT
ATOM      1  C   UNL     1      36.691   3.076  14.764  0.00  0.00    +0.000 A 
ATOM      2  C   UNL     1      35.924   3.805  13.884  0.00  0.00    +0.000 A 
ATOM      3  C   UNL     1      36.004   5.198  13.795  0.00  0.00    +0.000 A 
ATOM      4  C   UNL     1      36.908   5.797  14.654  0.00  0.00    +0.000 A 
ATOM      5  C   UNL     1      37.688   5.070  15.546  0.00  0.00    +0.000 A 
ATOM      6  N   UNL     1      38.598   5.723  16.406  0.00  0.00    +0.000 N 
ATOM      7  C   UNL     1      38.771   7.154  16.423  0.00  0.00    +0.000 C 
ATOM      8  C   UNL     1      39.300   7.658  17.734  0.00  0.00    +0.000 C 
ATOM      9  C   UNL     1      38.869   6.812  18.902  0.00  0.00    +0.000 C 
ATOM     10  C   UNL     1      39.024   5.346  18.717  0.00  0.00    +0.000 C 
ATOM     11  C   UNL     1      39.393   4.929  17.308  0.00  0.00    +0.000 C 
ATOM     12  N   UNL     1      37.536   3.747  15.552  0.00  0.00    +0.000 NA
ENDROOT
BRANCH   1  20
ATOM     13  C   UNL     1      34.895   1.953  16.578  0.00  0.00    +0.000 C 
ATOM     14  C   UNL     1      35.730   1.050  15.744  0.00  0.00    +0.000 A 
ATOM     15  C   UNL     1      35.627  -0.340  15.857  0.00  0.00    +0.000 A 
ATOM     16  C   UNL     1      36.407  -1.149  15.077  0.00  0.00    +0.000 A 
ATOM     17  O   UNL     1      36.273  -2.539  15.222  0.00  0.00    +0.000 OA
ATOM     18  C   UNL     1      37.280  -0.572  14.194  0.00  0.00    +0.000 A 
ATOM     19  C   UNL     1      37.395   0.815  14.070  0.00  0.00    +0.000 A 
ATOM     20  C   UNL     1      36.608   1.629  14.856  0.00  0.00    +0.000 A 
ENDBRANCH   1  20
BRANCH   3  21
ATOM     21  C   UNL     1      35.195   5.955  12.870  0.00  0.00    +0.000 A 
ATOM     22  C   UNL     1      35.606   6.110  11.572  0.00  0.00    +0.000 A 
ATOM     23  C   UNL     1      34.875   6.820  10.652  0.00  0.00    +0.000 A 
ATOM     24  C   UNL     1      33.693   7.399  11.028  0.00  0.00    +0.000 A 
ATOM     25  C   UNL     1      33.255   7.263  12.318  0.00  0.00    +0.000 A 
ATOM     26  C   UNL     1      34.009   6.536  13.246  0.00  0.00    +0.000 A 
ENDBRANCH   3  21
BRANCH   9  27
ATOM     27  C   UNL     1      39.340   7.329  20.216  0.00  0.00    +0.000 C 
BRANCH  27  28
ATOM     28  C   UNL     1      40.810   7.453  20.281  0.00  0.00    +0.000 A 
ATOM     29  C   UNL     1      41.452   8.673  20.243  0.00  0.00    +0.000 A 
ATOM     30  C   UNL     1      42.839   8.738  20.308  0.00  0.00    +0.000 A 
ATOM     31  C   UNL     1      43.609   7.609  20.412  0.00  0.00    +0.000 A 
ATOM     32  C   UNL     1      42.971   6.385  20.451  0.00  0.00    +0.000 A 
ATOM     33  C   UNL     1      41.599   6.327  20.386  0.00  0.00    +0.000 A 
ENDBRANCH  27  28
ENDBRANCH   9  27
TORSDOF 4
ENDMDL
MODEL 3
REMARK VINA RESULT:      -9.2     22.686     27.578
REMARK  Name = 
REMARK  4 active torsions:
REMARK  status: ('A' for Active; 'I' for Inactive)
REMARK    1  A    between atoms: C_8  and  C_9
REMARK    2  A    between atoms: C_11  and  C_12
REMARK    3  A    between atoms: C_23  and  C_24
REMARK    4  A    between atoms: C_24  and  C_25
REMARK                            x       y       z     vdW  Elec       q    Type
REMARK                         _______ _______ _______ _____ _____    ______ ____
ROOT
ATOM      1  C   UNL     1      39.348  -0.545  14.228  0.00  0.00    +0.000 A 
ATOM      2  C   UNL     1      38.276  -1.237  14.743  0.00  0.00    +0.000 A 
ATOM      3  C   UNL     1      37.133  -0.595  15.228  0.00  0.00    +0.000 A 
ATOM      4  C   UNL     1      37.152   0.787  15.156  0.00  0.00    +0.000 A 
ATOM      5  C   UNL     1      38.230   1.495  14.637  0.00  0.00    +0.000 A 
ATOM      6  N   UNL     1      38.206   2.906  14.583  0.00  0.00    +0.000 N 
ATOM      7  C   UNL     1      37.094   3.690  15.058  0.00  0.00    +0.000 C 
ATOM      8  C   UNL     1      37.491   5.085  15.444  0.00  0.00    +0.000 C 
ATOM      9  C   UNL     1      38.906   5.170  15.952  0.00  0.00    +0.000 C 
ATOM     10  C   UNL     1      39.921   4.463  15.128  0.00  0.00    +0.000 C 
ATOM     11  C   UNL     1      39.341   3.599  14.028  0.00  0.00    +0.000 C 
ATOM     12  N   UNL     1      39.271   0.788  14.201  0.00  0.00    +0.000 NA
ENDROOT
BRANCH   1  20
ATOM     13  C   UNL     1      39.440  -1.261  11.535  0.00  0.00    +0.000 C 
ATOM     14  C   UNL     1      40.606  -1.577  12.399  0.00  0.00    +0.000 A 
ATOM     15  C   UNL     1      41.735  -2.222  11.885  0.00  0.00    +0.000 A 
ATOM     16  C   UNL     1      42.795  -2.500  12.703  0.00  0.00    +0.000 A 
ATOM     17  O   UNL     1      43.909  -3.149  12.147  0.00  0.00    +0.000 OA
ATOM     18  C   UNL     1      42.725  -2.138  14.022  0.00  0.00    +0.000 A 
ATOM     19  C   UNL     1      41.604  -1.494  14.550  0.00  0.00    +0.000 A 
ATOM     20  C   UNL     1      40.536  -1.212  13.725  0.00  0.00    +0.000 A 
ENDBRANCH   1  20
BRANCH   3  21
ATOM     21  C   UNL     1      36.012  -1.327  15.768  0.00  0.00    +0.000 A 
ATOM     22  C   UNL     1      35.266  -0.784  16.781  0.00  0.00    +0.000 A 
ATOM     23  C   UNL     1      34.191  -1.437  17.331  0.00  0.00    +0.000 A 
ATOM     24  C   UNL     1      33.839  -2.674  16.861  0.00  0.00    +0.000 A 
ATOM     25  C   UNL     1      34.564  -3.244  15.849  0.00  0.00    +0.000 A 
ATOM     26  C   UNL     1      35.658  -2.567  15.298  0.00  0.00    +0.000 A 
ENDBRANCH   3  21
BRANCH   9  27
ATOM     27  C   UNL     1      39.299   6.537  16.391  0.00  0.00    +0.000 C 
BRANCH  27  28
ATOM     28  C   UNL     1      40.135   6.521  17.607  0.00  0.00    +0.000 A 
ATOM     29  C   UNL     1      39.601   6.372  18.870  0.00  0.00    +0.000 A 
ATOM     30  C   UNL     1      40.431   6.363  19.986  0.00  0.00    +0.000 A 
ATOM     31  C   UNL     1      41.791   6.499  19.873  0.00  0.00    +0.000 A 
ATOM     32  C   UNL     1      42.330   6.648  18.611  0.00  0.00    +0.000 A 
ATOM     33  C   UNL     1      41.504   6.657  17.511  0.00  0.00    +0.000 A 
ENDBRANCH  27  28
ENDBRANCH   9  27
TORSDOF 4
ENDMDL
MODEL 4
REMARK VINA RESULT:      -9.1     23.222     26.284
REMARK  Name = 
REMARK  4 active torsions:
REMARK  status: ('A' for Active; 'I' for Inactive)
REMARK    1  A    between atoms: C_8  and  C_9
REMARK    2  A    between atoms: C_11  and  C_12
REMARK    3  A    between atoms: C_23  and  C_24
REMARK    4  A    between atoms: C_24  and  C_25
REMARK                            x       y       z     vdW  Elec       q    Type
REMARK                         _______ _______ _______ _____ _____    ______ ____
ROOT
ATOM      1  C   UNL     1      36.696   3.053  14.817  0.00  0.00    +0.000 A 
ATOM      2  C   UNL     1      35.923   3.788  13.947  0.00  0.00    +0.000 A 
ATOM      3  C   UNL     1      36.011   5.180  13.860  0.00  0.00    +0.000 A 
ATOM      4  C   UNL     1      36.929   5.772  14.709  0.00  0.00    +0.000 A 
ATOM      5  C   UNL     1      37.715   5.038  15.591  0.00  0.00    +0.000 A 
ATOM      6  N   UNL     1      38.639   5.684  16.441  0.00  0.00    +0.000 N 
ATOM      7  C   UNL     1      38.821   7.114  16.458  0.00  0.00    +0.000 C 
ATOM      8  C   UNL     1      39.369   7.612  17.764  0.00  0.00    +0.000 C 
ATOM      9  C   UNL     1      38.947   6.767  18.935  0.00  0.00    +0.000 C 
ATOM     10  C   UNL     1      39.090   5.300  18.746  0.00  0.00    +0.000 C 
ATOM     11  C   UNL     1      39.439   4.884  17.332  0.00  0.00    +0.000 C 
ATOM     12  N   UNL     1      37.554   3.716  15.596  0.00  0.00    +0.000 NA
ENDROOT
BRANCH   1  20
ATOM     13  C   UNL     1      34.910   1.938  16.646  0.00  0.00    +0.000 C 
ATOM     14  C   UNL     1      35.731   1.031  15.803  0.00  0.00    +0.000 A 
ATOM     15  C   UNL     1      35.621  -0.359  15.915  0.00  0.00    +0.000 A 
ATOM     16  C   UNL     1      36.388  -1.171  15.125  0.00  0.00    +0.000 A 
ATOM     17  O   UNL     1      36.247  -2.560  15.270  0.00  0.00    +0.000 OA
ATOM     18  C   UNL     1      37.256  -0.598  14.235  0.00  0.00    +0.000 A 
ATOM     19  C   UNL     1      37.378   0.787  14.112  0.00  0.00    +0.000 A 
ATOM     20  C   UNL     1      36.604   1.606  14.907  0.00  0.00    +0.000 A 
ENDBRANCH   1  20
BRANCH   3  21
ATOM     21  C   UNL     1      35.196   5.945  12.946  0.00  0.00    +0.000 A 
ATOM     22  C   UNL     1      35.594   6.100  11.643  0.00  0.00    +0.000 A 
ATOM     23  C   UNL     1      34.857   6.816  10.733  0.00  0.00    +0.000 A 
ATOM     24  C   UNL     1      33.683   7.402  11.124  0.00  0.00    +0.000 A 
ATOM     25  C   UNL     1      33.258   7.265  12.419  0.00  0.00    +0.000 A 
ATOM     26  C   UNL     1      34.019   6.532  13.336  0.00  0.00    +0.000 A 
ENDBRANCH   3  21
BRANCH   9  27
ATOM     27  C   UNL     1      39.437   7.278  20.244  0.00  0.00    +0.000 C 
BRANCH  27  28
ATOM     28  C   UNL     1      39.324   8.746  20.355  0.00  0.00    +0.000 A 
ATOM     29  C   UNL     1      38.120   9.408  20.231  0.00  0.00    +0.000 A 
ATOM     30  C   UNL     1      38.066  10.792  20.344  0.00  0.00    +0.000 A 
ATOM     31  C   UNL     1      39.190  11.541  20.582  0.00  0.00    +0.000 A 
ATOM     32  C   UNL     1      40.397  10.883  20.709  0.00  0.00    +0.000 A 
ATOM     33  C   UNL     1      40.445   9.513  20.595  0.00  0.00    +0.000 A 
ENDBRANCH  27  28
ENDBRANCH   9  27
TORSDOF 4
ENDMDL
MODEL 5
REMARK VINA RESULT:      -9.0     25.661     28.640
REMARK  Name = 
REMARK  4 active torsions:
REMARK  status: ('A' for Active; 'I' for Inactive)
REMARK    1  A    between atoms: C_8  and  C_9
REMARK    2  A    between atoms: C_11  and  C_12
REMARK    3  A    between atoms: C_23  and  C_24
REMARK    4  A    between atoms: C_24  and  C_25
REMARK                            x       y       z     vdW  Elec       q    Type
REMARK                         _______ _______ _______ _____ _____    ______ ____
ROOT
ATOM      1  C   UNL     1      41.297  -0.445  14.262  0.00  0.00    +0.000 A 
ATOM      2  C   UNL     1      40.659  -1.545  14.788  0.00  0.00    +0.000 A 
ATOM      3  C   UNL     1      39.341  -1.496  15.252  0.00  0.00    +0.000 A 
ATOM      4  C   UNL     1      38.719  -0.264  15.149  0.00  0.00    +0.000 A 
ATOM      5  C   UNL     1      39.355   0.852  14.619  0.00  0.00    +0.000 A 
ATOM      6  N   UNL     1      38.682   2.091  14.533  0.00  0.00    +0.000 N 
ATOM      7  C   UNL     1      37.327   2.280  14.985  0.00  0.00    +0.000 C 
ATOM      8  C   UNL     1      37.027   3.707  15.341  0.00  0.00    +0.000 C 
ATOM      9  C   UNL     1      38.234   4.446  15.854  0.00  0.00    +0.000 C 
ATOM     10  C   UNL     1      39.474   4.275  15.051  0.00  0.00    +0.000 C 
ATOM     11  C   UNL     1      39.376   3.221  13.969  0.00  0.00    +0.000 C 
ATOM     12  N   UNL     1      40.612   0.700  14.204  0.00  0.00    +0.000 NA
ENDROOT
BRANCH   1  20
ATOM     13  C   UNL     1      41.751  -1.124  11.596  0.00  0.00    +0.000 C 
ATOM     14  C   UNL     1      42.917  -0.829  12.469  0.00  0.00    +0.000 A 
ATOM     15  C   UNL     1      44.224  -0.887  11.975  0.00  0.00    +0.000 A 
ATOM     16  C   UNL     1      45.279  -0.609  12.800  0.00  0.00    +0.000 A 
ATOM     17  O   UNL     1      46.575  -0.680  12.264  0.00  0.00    +0.000 OA
ATOM     18  C   UNL     1      45.029  -0.279  14.105  0.00  0.00    +0.000 A 
ATOM     19  C   UNL     1      43.729  -0.216  14.613  0.00  0.00    +0.000 A 
ATOM     20  C   UNL     1      42.666  -0.495  13.780  0.00  0.00    +0.000 A 
ENDBRANCH   1  20
BRANCH   3  21
ATOM     21  C   UNL     1      38.678  -2.655  15.803  0.00  0.00    +0.000 A 
ATOM     22  C   UNL     1      37.573  -3.172  15.177  0.00  0.00    +0.000 A 
ATOM     23  C   UNL     1      36.906  -4.271  15.658  0.00  0.00    +0.000 A 
ATOM     24  C   UNL     1      37.347  -4.883  16.800  0.00  0.00    +0.000 A 
ATOM     25  C   UNL     1      38.448  -4.391  17.449  0.00  0.00    +0.000 A 
ATOM     26  C   UNL     1      39.119  -3.270  16.948  0.00  0.00    +0.000 A 
ENDBRANCH   3  21
BRANCH   9  27
ATOM     27  C   UNL     1      37.943   5.847  16.263  0.00  0.00    +0.000 C 
BRANCH  27  28
ATOM     28  C   UNL     1      38.553   6.194  17.562  0.00  0.00    +0.000 A 
ATOM     29  C   UNL     1      39.509   5.404  18.166  0.00  0.00    +0.000 A 
ATOM     30  C   UNL     1      40.055   5.775  19.390  0.00  0.00    +0.000 A 
ATOM     31  C   UNL     1      39.670   6.923  20.032  0.00  0.00    +0.000 A 
ATOM     32  C   UNL     1      38.714   7.718  19.431  0.00  0.00    +0.000 A 
ATOM     33  C   UNL     1      38.177   7.346  18.221  0.00  0.00    +0.000 A 
ENDBRANCH  27  28
ENDBRANCH   9  27
TORSDOF 4
ENDMDL
MODEL 6
REMARK VINA RESULT:      -8.9     23.364     26.923
REMARK  Name = 
REMARK  4 active torsions:
REMARK  status: ('A' for Active; 'I' for Inactive)
REMARK    1  A    between atoms: C_8  and  C_9
REMARK    2  A    between atoms: C_11  and  C_12
REMARK    3  A    between atoms: C_23  and  C_24
REMARK    4  A    between atoms: C_24  and  C_25
REMARK                            x       y       z     vdW  Elec       q    Type
REMARK                         _______ _______ _______ _____ _____    ______ ____
ROOT
ATOM      1  C   UNL     1      38.869   5.112  16.714  0.00  0.00    +0.000 A 
ATOM      2  C   UNL     1      39.779   5.132  15.681  0.00  0.00    +0.000 A 
ATOM      3  C   UNL     1      39.754   4.197  14.642  0.00  0.00    +0.000 A 
ATOM      4  C   UNL     1      38.751   3.247  14.722  0.00  0.00    +0.000 A 
ATOM      5  C   UNL     1      37.827   3.219  15.760  0.00  0.00    +0.000 A 
ATOM      6  N   UNL     1      36.820   2.229  15.801  0.00  0.00    +0.000 N 
ATOM      7  C   UNL     1      36.689   1.202  14.799  0.00  0.00    +0.000 C 
ATOM      8  C   UNL     1      35.987  -0.022  15.312  0.00  0.00    +0.000 C 
ATOM      9  C   UNL     1      36.216  -0.253  16.781  0.00  0.00    +0.000 C 
ATOM     10  C   UNL     1      36.046   0.943  17.648  0.00  0.00    +0.000 C 
ATOM     11  C   UNL     1      35.877   2.243  16.891  0.00  0.00    +0.000 C 
ATOM     12  N   UNL     1      37.937   4.155  16.701  0.00  0.00    +0.000 NA
ENDROOT
BRANCH   1  20
ATOM     13  C   UNL     1      37.586   7.560  16.341  0.00  0.00    +0.000 C 
ATOM     14  C   UNL     1      38.270   7.299  17.634  0.00  0.00    +0.000 A 
ATOM     15  C   UNL     1      38.278   8.256  18.655  0.00  0.00    +0.000 A 
ATOM     16  C   UNL     1      38.915   7.989  19.836  0.00  0.00    +0.000 A 
ATOM     17  O   UNL     1      38.900   8.977  20.834  0.00  0.00    +0.000 OA
ATOM     18  C   UNL     1      39.537   6.780  19.993  0.00  0.00    +0.000 A 
ATOM     19  C   UNL     1      39.538   5.815  18.984  0.00  0.00    +0.000 A 
ATOM     20  C   UNL     1      38.895   6.083  17.794  0.00  0.00    +0.000 A 
ENDBRANCH   1  20
BRANCH   3  21
ATOM     21  C   UNL     1      40.712   4.224  13.563  0.00  0.00    +0.000 A 
ATOM     22  C   UNL     1      41.492   5.335  13.369  0.00  0.00    +0.000 A 
ATOM     23  C   UNL     1      42.418   5.412  12.360  0.00  0.00    +0.000 A 
ATOM     24  C   UNL     1      42.582   4.353  11.508  0.00  0.00    +0.000 A 
ATOM     25  C   UNL     1      41.818   3.228  11.676  0.00  0.00    +0.000 A 
ATOM     26  C   UNL     1      40.878   3.162  12.709  0.00  0.00    +0.000 A 
ENDBRANCH   3  21
BRANCH   9  27
ATOM     27  C   UNL     1      35.571  -1.493  17.295  0.00  0.00    +0.000 C 
BRANCH  27  28
ATOM     28  C   UNL     1      36.468  -2.663  17.232  0.00  0.00    +0.000 A 
ATOM     29  C   UNL     1      36.137  -3.814  16.547  0.00  0.00    +0.000 A 
ATOM     30  C   UNL     1      37.017  -4.890  16.516  0.00  0.00    +0.000 A 
ATOM     31  C   UNL     1      38.229  -4.848  17.154  0.00  0.00    +0.000 A 
ATOM     32  C   UNL     1      38.566  -3.699  17.841  0.00  0.00    +0.000 A 
ATOM     33  C   UNL     1      37.692  -2.637  17.868  0.00  0.00    +0.000 A 
ENDBRANCH  27  28
ENDBRANCH   9  27
TORSDOF 4
ENDMDL
MODEL 7
REMARK VINA RESULT:      -8.8     21.195     24.300
REMARK  Name = 
REMARK  4 active torsions:
REMARK  status: ('A' for Active; 'I' for Inactive)
REMARK    1  A    between atoms: C_8  and  C_9
REMARK    2  A    between atoms: C_11  and  C_12
REMARK    3  A    between atoms: C_23  and  C_24
REMARK    4  A    between atoms: C_24  and  C_25
REMARK                            x       y       z     vdW  Elec       q    Type
REMARK                         _______ _______ _______ _____ _____    ______ ____
ROOT
ATOM      1  C   UNL     1      28.951  11.283  40.879  0.00  0.00    +0.000 A 
ATOM      2  C   UNL     1      30.257  11.109  40.480  0.00  0.00    +0.000 A 
ATOM      3  C   UNL     1      30.942  12.064  39.723  0.00  0.00    +0.000 A 
ATOM      4  C   UNL     1      30.219  13.198  39.400  0.00  0.00    +0.000 A 
ATOM      5  C   UNL     1      28.900  13.383  39.799  0.00  0.00    +0.000 A 
ATOM      6  N   UNL     1      28.199  14.558  39.445  0.00  0.00    +0.000 N 
ATOM      7  C   UNL     1      28.786  15.614  38.660  0.00  0.00    +0.000 C 
ATOM      8  C   UNL     1      27.760  16.434  37.933  0.00  0.00    +0.000 C 
ATOM      9  C   UNL     1      26.534  15.642  37.563  0.00  0.00    +0.000 C 
ATOM     10  C   UNL     1      25.970  14.799  38.650  0.00  0.00    +0.000 C 
ATOM     11  C   UNL     1      26.837  14.712  39.888  0.00  0.00    +0.000 C 
ATOM     12  N   UNL     1      28.338  12.414  40.518  0.00  0.00    +0.000 NA
ENDROOT
BRANCH   1  20
ATOM     13  C   UNL     1      29.269  11.293  43.649  0.00  0.00    +0.000 C 
ATOM     14  C   UNL     1      28.379  10.275  43.034  0.00  0.00    +0.000 A 
ATOM     15  C   UNL     1      27.707   9.332  43.820  0.00  0.00    +0.000 A 
ATOM     16  C   UNL     1      26.893   8.406  43.227  0.00  0.00    +0.000 A 
ATOM     17  O   UNL     1      26.238   7.477  44.051  0.00  0.00    +0.000 OA
ATOM     18  C   UNL     1      26.754   8.423  41.865  0.00  0.00    +0.000 A 
ATOM     19  C   UNL     1      27.419   9.358  41.068  0.00  0.00    +0.000 A 
ATOM     20  C   UNL     1      28.238  10.292  41.665  0.00  0.00    +0.000 A 
ENDBRANCH   1  20
BRANCH   3  21
ATOM     21  C   UNL     1      32.312  11.873  39.307  0.00  0.00    +0.000 A 
ATOM     22  C   UNL     1      32.635  11.926  37.976  0.00  0.00    +0.000 A 
ATOM     23  C   UNL     1      33.920  11.753  37.526  0.00  0.00    +0.000 A 
ATOM     24  C   UNL     1      34.925  11.517  38.425  0.00  0.00    +0.000 A 
ATOM     25  C   UNL     1      34.635  11.458  39.763  0.00  0.00    +0.000 A 
ATOM     26  C   UNL     1      33.320  11.638  40.207  0.00  0.00    +0.000 A 
ENDBRANCH   3  21
BRANCH   9  27
ATOM     27  C   UNL     1      25.530  16.425  36.794  0.00  0.00    +0.000 C 
BRANCH  27  28
ATOM     28  C   UNL     1      25.492  16.049  35.367  0.00  0.00    +0.000 A 
ATOM     29  C   UNL     1      25.089  16.926  34.381  0.00  0.00    +0.000 A 
ATOM     30  C   UNL     1      25.072  16.524  33.050  0.00  0.00    +0.000 A 
ATOM     31  C   UNL     1      25.450  15.262  32.673  0.00  0.00    +0.000 A 
ATOM     32  C   UNL     1      25.856  14.381  33.656  0.00  0.00    +0.000 A 
ATOM     33  C   UNL     1      25.870  14.784  34.971  0.00  0.00    +0.000 A 
ENDBRANCH  27  28
ENDBRANCH   9  27
TORSDOF 4
ENDMDL
MODEL 8
REMARK VINA RESULT:      -8.6     23.674     29.904
REMARK  Name = 
REMARK  4 active torsions:
REMARK  status: ('A' for Active; 'I' for Inactive)
REMARK    1  A    between atoms: C_8  and  C_9
REMARK    2  A    between atoms: C_11  and  C_12
REMARK    3  A    between atoms: C_23  and  C_24
REMARK    4  A    between atoms: C_24  and  C_25
REMARK                            x       y       z     vdW  Elec       q    Type
REMARK                         _______ _______ _______ _____ _____    ______ ____
ROOT
ATOM      1  C   UNL     1      41.538  -2.917  11.905  0.00  0.00    +0.000 A 
ATOM      2  C   UNL     1      42.729  -2.502  12.456  0.00  0.00    +0.000 A 
ATOM      3  C   UNL     1      42.841  -2.116  13.795  0.00  0.00    +0.000 A 
ATOM      4  C   UNL     1      41.671  -2.177  14.531  0.00  0.00    +0.000 A 
ATOM      5  C   UNL     1      40.464  -2.596  13.984  0.00  0.00    +0.000 A 
ATOM      6  N   UNL     1      39.293  -2.643  14.773  0.00  0.00    +0.000 N 
ATOM      7  C   UNL     1      39.268  -2.262  16.162  0.00  0.00    +0.000 C 
ATOM      8  C   UNL     1      37.905  -1.834  16.622  0.00  0.00    +0.000 C 
ATOM      9  C   UNL     1      37.090  -1.204  15.525  0.00  0.00    +0.000 C 
ATOM     10  C   UNL     1      37.084  -1.940  14.234  0.00  0.00    +0.000 C 
ATOM     11  C   UNL     1      38.065  -3.092  14.167  0.00  0.00    +0.000 C 
ATOM     12  N   UNL     1      40.464  -2.943  12.698  0.00  0.00    +0.000 NA
ENDROOT
BRANCH   1  20
ATOM     13  C   UNL     1      40.444  -1.115  10.080  0.00  0.00    +0.000 C 
ATOM     14  C   UNL     1      40.885  -2.448   9.594  0.00  0.00    +0.000 A 
ATOM     15  C   UNL     1      40.758  -2.805   8.247  0.00  0.00    +0.000 A 
ATOM     16  C   UNL     1      41.173  -4.040   7.826  0.00  0.00    +0.000 A 
ATOM     17  O   UNL     1      41.028  -4.359   6.467  0.00  0.00    +0.000 OA
ATOM     18  C   UNL     1      41.706  -4.906   8.743  0.00  0.00    +0.000 A 
ATOM     19  C   UNL     1      41.839  -4.563  10.090  0.00  0.00    +0.000 A 
ATOM     20  C   UNL     1      41.422  -3.319  10.514  0.00  0.00    +0.000 A 
ENDBRANCH   1  20
BRANCH   3  21
ATOM     21  C   UNL     1      44.093  -1.680  14.366  0.00  0.00    +0.000 A 
ATOM     22  C   UNL     1      45.221  -2.443  14.201  0.00  0.00    +0.000 A 
ATOM     23  C   UNL     1      46.436  -2.075  14.722  0.00  0.00    +0.000 A 
ATOM     24  C   UNL     1      46.543  -0.910  15.433  0.00  0.00    +0.000 A 
ATOM     25  C   UNL     1      45.435  -0.126  15.616  0.00  0.00    +0.000 A 
ATOM     26  C   UNL     1      44.202  -0.513  15.079  0.00  0.00    +0.000 A 
ENDBRANCH   3  21
BRANCH   9  27
ATOM     27  C   UNL     1      35.755  -0.724  15.977  0.00  0.00    +0.000 C 
BRANCH  27  28
ATOM     28  C   UNL     1      35.530   0.700  15.660  0.00  0.00    +0.000 A 
ATOM     29  C   UNL     1      34.801   1.534  16.481  0.00  0.00    +0.000 A 
ATOM     30  C   UNL     1      34.617   2.870  16.139  0.00  0.00    +0.000 A 
ATOM     31  C   UNL     1      35.146   3.399  14.991  0.00  0.00    +0.000 A 
ATOM     32  C   UNL     1      35.877   2.568  14.166  0.00  0.00    +0.000 A 
ATOM     33  C   UNL     1      36.055   1.248  14.508  0.00  0.00    +0.000 A 
ENDBRANCH  27  28
ENDBRANCH   9  27
TORSDOF 4
ENDMDL
MODEL 9
REMARK VINA RESULT:      -8.5     22.774     26.730
REMARK  Name = 
REMARK  4 active torsions:
REMARK  status: ('A' for Active; 'I' for Inactive)
REMARK    1  A    between atoms: C_8  and  C_9
REMARK    2  A    between atoms: C_11  and  C_12
REMARK    3  A    between atoms: C_23  and  C_24
REMARK    4  A    between atoms: C_24  and  C_25
REMARK                            x       y       z     vdW  Elec       q    Type
REMARK                         _______ _______ _______ _____ _____    ______ ____
ROOT
ATOM      1  C   UNL     1      37.642   6.698  15.024  0.00  0.00    +0.000 A 
ATOM      2  C   UNL     1      38.456   6.956  16.103  0.00  0.00    +0.000 A 
ATOM      3  C   UNL     1      39.342   6.004  16.618  0.00  0.00    +0.000 A 
ATOM      4  C   UNL     1      39.344   4.782  15.969  0.00  0.00    +0.000 A 
ATOM      5  C   UNL     1      38.526   4.512  14.878  0.00  0.00    +0.000 A 
ATOM      6  N   UNL     1      38.562   3.249  14.246  0.00  0.00    +0.000 N 
ATOM      7  C   UNL     1      39.421   2.178  14.683  0.00  0.00    +0.000 C 
ATOM      8  C   UNL     1      38.904   0.824  14.292  0.00  0.00    +0.000 C 
ATOM      9  C   UNL     1      37.401   0.771  14.220  0.00  0.00    +0.000 C 
ATOM     10  C   UNL     1      36.759   1.894  13.487  0.00  0.00    +0.000 C 
ATOM     11  C   UNL     1      37.703   3.016  13.112  0.00  0.00    +0.000 C 
ATOM     12  N   UNL     1      37.719   5.487  14.465  0.00  0.00    +0.000 NA
ENDROOT
BRANCH   1  20
ATOM     13  C   UNL     1      38.601   8.556  13.179  0.00  0.00    +0.000 C 
ATOM     14  C   UNL     1      37.171   8.615  13.577  0.00  0.00    +0.000 A 
ATOM     15  C   UNL     1      36.310   9.580  13.045  0.00  0.00    +0.000 A 
ATOM     16  C   UNL     1      34.997   9.611  13.429  0.00  0.00    +0.000 A 
ATOM     17  O   UNL     1      34.167  10.596  12.871  0.00  0.00    +0.000 OA
ATOM     18  C   UNL     1      34.552   8.687  14.336  0.00  0.00    +0.000 A 
ATOM     19  C   UNL     1      35.399   7.718  14.877  0.00  0.00    +0.000 A 
ATOM     20  C   UNL     1      36.722   7.686  14.489  0.00  0.00    +0.000 A 
ENDBRANCH   1  20
BRANCH   3  21
ATOM     21  C   UNL     1      40.192   6.281  17.751  0.00  0.00    +0.000 A 
ATOM     22  C   UNL     1      39.653   6.343  19.010  0.00  0.00    +0.000 A 
ATOM     23  C   UNL     1      40.415   6.603  20.122  0.00  0.00    +0.000 A 
ATOM     24  C   UNL     1      41.762   6.810  19.985  0.00  0.00    +0.000 A 
ATOM     25  C   UNL     1      42.331   6.755  18.740  0.00  0.00    +0.000 A 
ATOM     26  C   UNL     1      41.542   6.488  17.616  0.00  0.00    +0.000 A 
ENDBRANCH   3  21
BRANCH   9  27
ATOM     27  C   UNL     1      36.870  -0.578  13.886  0.00  0.00    +0.000 C 
BRANCH  27  28
ATOM     28  C   UNL     1      36.072  -1.159  14.984  0.00  0.00    +0.000 A 
ATOM     29  C   UNL     1      35.532  -0.389  15.993  0.00  0.00    +0.000 A 
ATOM     30  C   UNL     1      34.786  -0.983  17.006  0.00  0.00    +0.000 A 
ATOM     31  C   UNL     1      34.562  -2.335  17.037  0.00  0.00    +0.000 A 
ATOM     32  C   UNL     1      35.100  -3.110  16.029  0.00  0.00    +0.000 A 
ATOM     33  C   UNL     1      35.837  -2.517  15.031  0.00  0.00    +0.000 A 
ENDBRANCH  27  28
ENDBRANCH   9  27
TORSDOF 4
ENDMDL
MODEL 10
REMARK VINA RESULT:      -8.5     22.807     26.638
REMARK  Name = 
REMARK  4 active torsions:
REMARK  status: ('A' for Active; 'I' for Inactive)
REMARK    1  A    between atoms: C_8  and  C_9
REMARK    2  A    between atoms: C_11  and  C_12
REMARK    3  A    between atoms: C_23  and  C_24
REMARK    4  A    between atoms: C_24  and  C_25
REMARK                            x       y       z     vdW  Elec       q    Type
REMARK                         _______ _______ _______ _____ _____    ______ ____
ROOT
ATOM      1  C   UNL     1      37.986   8.003  16.817  0.00  0.00    +0.000 A 
ATOM      2  C   UNL     1      39.083   7.911  17.642  0.00  0.00    +0.000 A 
ATOM      3  C   UNL     1      39.876   6.762  17.709  0.00  0.00    +0.000 A 
ATOM      4  C   UNL     1      39.484   5.720  16.889  0.00  0.00    +0.000 A 
ATOM      5  C   UNL     1      38.378   5.803  16.051  0.00  0.00    +0.000 A 
ATOM      6  N   UNL     1      38.013   4.713  15.229  0.00  0.00    +0.000 N 
ATOM      7  C   UNL     1      38.739   3.469  15.210  0.00  0.00    +0.000 C 
ATOM      8  C   UNL     1      37.895   2.312  14.759  0.00  0.00    +0.000 C 
ATOM      9  C   UNL     1      36.442   2.475  15.116  0.00  0.00    +0.000 C 
ATOM     10  C   UNL     1      35.855   3.805  14.803  0.00  0.00    +0.000 C 
ATOM     11  C   UNL     1      36.864   4.846  14.369  0.00  0.00    +0.000 C 
ATOM     12  N   UNL     1      37.688   6.942  16.061  0.00  0.00    +0.000 NA
ENDROOT
BRANCH   1  20
ATOM     13  C   UNL     1      38.410   9.801  14.728  0.00  0.00    +0.000 C 
ATOM     14  C   UNL     1      37.352  10.100  15.726  0.00  0.00    +0.000 A 
ATOM     15  C   UNL     1      36.575  11.260  15.632  0.00  0.00    +0.000 A 
ATOM     16  C   UNL     1      35.606  11.510  16.565  0.00  0.00    +0.000 A 
ATOM     17  O   UNL     1      34.849  12.685  16.434  0.00  0.00    +0.000 OA
ATOM     18  C   UNL     1      35.418  10.611  17.581  0.00  0.00    +0.000 A 
ATOM     19  C   UNL     1      36.186   9.449  17.688  0.00  0.00    +0.000 A 
ATOM     20  C   UNL     1      37.161   9.196  16.747  0.00  0.00    +0.000 A 
ENDBRANCH   1  20
BRANCH   3  21
ATOM     21  C   UNL     1      41.025   6.673  18.579  0.00  0.00    +0.000 A 
ATOM     22  C   UNL     1      40.855   6.385  19.909  0.00  0.00    +0.000 A 
ATOM     23  C   UNL     1      41.912   6.288  20.779  0.00  0.00    +0.000 A 
ATOM     24  C   UNL     1      43.187   6.483  20.319  0.00  0.00    +0.000 A 
ATOM     25  C   UNL     1      43.391   6.772  18.995  0.00  0.00    +0.000 A 
ATOM     26  C   UNL     1      42.304   6.867  18.119  0.00  0.00    +0.000 A 
ENDBRANCH   3  21
BRANCH   9  27
ATOM     27  C   UNL     1      35.599   1.312  14.725  0.00  0.00    +0.000 C 
BRANCH  27  28
ATOM     28  C   UNL     1      35.612   0.239  15.738  0.00  0.00    +0.000 A 
ATOM     29  C   UNL     1      36.086  -1.028  15.467  0.00  0.00    +0.000 A 
ATOM     30  C   UNL     1      36.078  -2.006  16.456  0.00  0.00    +0.000 A 
ATOM     31  C   UNL     1      35.607  -1.751  17.718  0.00  0.00    +0.000 A 
ATOM     32  C   UNL     1      35.133  -0.484  17.994  0.00  0.00    +0.000 A 
ATOM     33  C   UNL     1      35.142   0.479  17.012  0.00  0.00    +0.000 A 
ENDBRANCH  27  28
ENDBRANCH   9  27
TORSDOF 4
ENDMDL
