MODEL 1
REMARK VINA RESULT:      -7.5      0.000      0.000
REMARK  Name = 
REMARK  8 active torsions:
REMARK  status: ('A' for Active; 'I' for Inactive)
REMARK    1  A    between atoms: C_2  and  C_3
REMARK    2  A    between atoms: C_3  and  C_4
REMARK    3  A    between atoms: C_4  and  C_5
REMARK    4  A    between atoms: C_5  and  C_6
REMARK    5  A    between atoms: C_6  and  N_7
REMARK    6  A    between atoms: C_8  and  C_10
REMARK    7  A    between atoms: C_15  and  C_16
REMARK    8  A    between atoms: C_22  and  C_23
REMARK                            x       y       z     vdW  Elec       q    Type
REMARK                         _______ _______ _______ _____ _____    ______ ____
ROOT
ATOM      1  C   UNL     1      35.558   3.621  14.429  0.00  0.00    +0.000 A 
ATOM      2  C   UNL     1      34.793   3.160  15.479  0.00  0.00    +0.000 A 
ATOM      3  C   UNL     1      35.067   1.946  16.046  0.00  0.00    +0.000 A 
ATOM      4  C   UNL     1      36.095   1.128  15.614  0.00  0.00    +0.000 A 
ATOM      5  N   UNL     1      36.358  -0.060  16.174  0.00  0.00    +0.000 NA
ATOM      6  C   UNL     1      37.373  -0.845  15.734  0.00  0.00    +0.000 A 
ATOM      7  C   UNL     1      38.134  -0.376  14.681  0.00  0.00    +0.000 A 
ATOM      8  N   UNL     1      37.879   0.816  14.112  0.00  0.00    +0.000 NA
ATOM      9  C   UNL     1      36.869   1.596  14.550  0.00  0.00    +0.000 A 
ATOM     10  C   UNL     1      36.592   2.818  13.981  0.00  0.00    +0.000 A 
ENDROOT
BRANCH   6  11
ATOM     11  C   UNL     1      37.663  -2.139  16.343  0.00  0.00    +0.000 A 
ATOM     12  C   UNL     1      38.457  -2.252  17.462  0.00  0.00    +0.000 A 
ATOM     13  C   UNL     1      38.755  -3.452  18.067  0.00  0.00    +0.000 A 
ATOM     14  C   UNL     1      38.222  -4.596  17.511  0.00  0.00    +0.000 A 
ATOM     15  C   UNL     1      37.419  -4.530  16.388  0.00  0.00    +0.000 A 
ATOM     16  C   UNL     1      37.138  -3.294  15.800  0.00  0.00    +0.000 A 
ENDBRANCH   6  11
BRANCH   7  17
ATOM     17  C   UNL     1      39.229  -1.216  14.202  0.00  0.00    +0.000 A 
ATOM     18  C   UNL     1      40.436  -1.242  14.830  0.00  0.00    +0.000 A 
ATOM     19  C   UNL     1      41.435  -2.052  14.339  0.00  0.00    +0.000 A 
ATOM     20  C   UNL     1      41.254  -2.836  13.236  0.00  0.00    +0.000 A 
ATOM     21  C   UNL     1      40.033  -2.803  12.608  0.00  0.00    +0.000 A 
ATOM     22  C   UNL     1      39.027  -1.997  13.092  0.00  0.00    +0.000 A 
ENDBRANCH   7  17
BRANCH   1  24
ATOM     23  N   UNL     1      34.187   5.676  14.336  0.00  0.00    +0.000 NA
ATOM     24  C   UNL     1      35.254   4.907  13.843  0.00  0.00    +0.000 C 
ATOM     25  O   UNL     1      35.949   5.326  12.895  0.00  0.00    +0.000 OA
BRANCH  23  26
ATOM     26  C   UNL     1      33.818   6.974  13.804  0.00  0.00    +0.000 C 
BRANCH  26  27
ATOM     27  C   UNL     1      34.520   8.102  14.523  0.00  0.00    +0.000 C 
BRANCH  27  28
ATOM     28  C   UNL     1      33.638   8.719  15.579  0.00  0.00    +0.000 C 
BRANCH  28  29
ATOM     29  C   UNL     1      34.028  10.180  15.828  0.00  0.00    +0.000 C 
BRANCH  29  31
ATOM     30  C   UNL     1      32.908   9.326  17.906  0.00  0.00    +0.000 C 
ATOM     31  C   UNL     1      33.492  10.531  17.201  0.00  0.00    +0.000 C 
ENDBRANCH  29  31
ENDBRANCH  28  29
ENDBRANCH  27  28
ENDBRANCH  26  27
ENDBRANCH  23  26
ENDBRANCH   1  24
TORSDOF 8
ENDMDL
MODEL 2
REMARK VINA RESULT:      -7.4      4.253      9.288
REMARK  Name = 
REMARK  8 active torsions:
REMARK  status: ('A' for Active; 'I' for Inactive)
REMARK    1  A    between atoms: C_2  and  C_3
REMARK    2  A    between atoms: C_3  and  C_4
REMARK    3  A    between atoms: C_4  and  C_5
REMARK    4  A    between atoms: C_5  and  C_6
REMARK    5  A    between atoms: C_6  and  N_7
REMARK    6  A    between atoms: C_8  and  C_10
REMARK    7  A    between atoms: C_15  and  C_16
REMARK    8  A    between atoms: C_22  and  C_23
REMARK                            x       y       z     vdW  Elec       q    Type
REMARK                         _______ _______ _______ _____ _____    ______ ____
ROOT
ATOM      1  C   UNL     1      35.779   1.264  15.909  0.00  0.00    +0.000 A 
ATOM      2  C   UNL     1      35.253   1.982  14.857  0.00  0.00    +0.000 A 
ATOM      3  C   UNL     1      35.667   3.264  14.626  0.00  0.00    +0.000 A 
ATOM      4  C   UNL     1      36.609   3.904  15.410  0.00  0.00    +0.000 A 
ATOM      5  N   UNL     1      37.011   5.161  15.179  0.00  0.00    +0.000 NA
ATOM      6  C   UNL     1      37.937   5.769  15.961  0.00  0.00    +0.000 A 
ATOM      7  C   UNL     1      38.458   5.042  17.015  0.00  0.00    +0.000 A 
ATOM      8  N   UNL     1      38.062   3.780  17.256  0.00  0.00    +0.000 NA
ATOM      9  C   UNL     1      37.141   3.177  16.477  0.00  0.00    +0.000 A 
ATOM     10  C   UNL     1      36.724   1.886  16.707  0.00  0.00    +0.000 A 
ENDROOT
BRANCH   6  11
ATOM     11  C   UNL     1      38.377   7.137  15.711  0.00  0.00    +0.000 A 
ATOM     12  C   UNL     1      39.297   7.434  14.730  0.00  0.00    +0.000 A 
ATOM     13  C   UNL     1      39.739   8.710  14.461  0.00  0.00    +0.000 A 
ATOM     14  C   UNL     1      39.223   9.737  15.223  0.00  0.00    +0.000 A 
ATOM     15  C   UNL     1      38.297   9.485  16.217  0.00  0.00    +0.000 A 
ATOM     16  C   UNL     1      37.872   8.176  16.463  0.00  0.00    +0.000 A 
ENDBRANCH   6  11
BRANCH   7  17
ATOM     17  C   UNL     1      39.457   5.690  17.862  0.00  0.00    +0.000 A 
ATOM     18  C   UNL     1      39.174   6.065  19.139  0.00  0.00    +0.000 A 
ATOM     19  C   UNL     1      40.151   6.672  19.896  0.00  0.00    +0.000 A 
ATOM     20  C   UNL     1      41.401   6.912  19.406  0.00  0.00    +0.000 A 
ATOM     21  C   UNL     1      41.678   6.530  18.116  0.00  0.00    +0.000 A 
ATOM     22  C   UNL     1      40.709   5.922  17.351  0.00  0.00    +0.000 A 
ENDBRANCH   7  17
BRANCH   1  24
ATOM     23  N   UNL     1      35.887  -1.154  15.408  0.00  0.00    +0.000 NA
ATOM     24  C   UNL     1      35.330  -0.091  16.138  0.00  0.00    +0.000 C 
ATOM     25  O   UNL     1      34.443  -0.305  16.988  0.00  0.00    +0.000 OA
BRANCH  23  26
ATOM     26  C   UNL     1      35.493  -2.540  15.578  0.00  0.00    +0.000 C 
BRANCH  26  27
ATOM     27  C   UNL     1      36.446  -3.294  16.475  0.00  0.00    +0.000 C 
BRANCH  27  28
ATOM     28  C   UNL     1      37.877  -2.888  16.228  0.00  0.00    +0.000 C 
BRANCH  28  29
ATOM     29  C   UNL     1      38.636  -2.737  17.551  0.00  0.00    +0.000 C 
BRANCH  29  31
ATOM     30  C   UNL     1      37.528  -2.236  19.747  0.00  0.00    +0.000 C 
ATOM     31  C   UNL     1      37.863  -1.719  18.366  0.00  0.00    +0.000 C 
ENDBRANCH  29  31
ENDBRANCH  28  29
ENDBRANCH  27  28
ENDBRANCH  26  27
ENDBRANCH  23  26
ENDBRANCH   1  24
TORSDOF 8
ENDMDL
MODEL 3
REMARK VINA RESULT:      -7.3      2.257      3.476
REMARK  Name = 
REMARK  8 active torsions:
REMARK  status: ('A' for Active; 'I' for Inactive)
REMARK    1  A    between atoms: C_2  and  C_3
REMARK    2  A    between atoms: C_3  and  C_4
REMARK    3  A    between atoms: C_4  and  C_5
REMARK    4  A    between atoms: C_5  and  C_6
REMARK    5  A    between atoms: C_6  and  N_7
REMARK    6  A    between atoms: C_8  and  C_10
REMARK    7  A    between atoms: C_15  and  C_16
REMARK    8  A    between atoms: C_22  and  C_23
REMARK                            x       y       z     vdW  Elec       q    Type
REMARK                         _______ _______ _______ _____ _____    ______ ____
ROOT
ATOM      1  C   UNL     1      35.578   3.532  14.552  0.00  0.00    +0.000 A 
ATOM      2  C   UNL     1      34.796   3.045  15.576  0.00  0.00    +0.000 A 
ATOM      3  C   UNL     1      35.057   1.815  16.114  0.00  0.00    +0.000 A 
ATOM      4  C   UNL     1      36.090   1.007  15.677  0.00  0.00    +0.000 A 
ATOM      5  N   UNL     1      36.342  -0.197  16.208  0.00  0.00    +0.000 NA
ATOM      6  C   UNL     1      37.362  -0.973  15.764  0.00  0.00    +0.000 A 
ATOM      7  C   UNL     1      38.141  -0.476  14.736  0.00  0.00    +0.000 A 
ATOM      8  N   UNL     1      37.897   0.731  14.196  0.00  0.00    +0.000 NA
ATOM      9  C   UNL     1      36.883   1.501  14.639  0.00  0.00    +0.000 A 
ATOM     10  C   UNL     1      36.618   2.739  14.099  0.00  0.00    +0.000 A 
ENDROOT
BRANCH   6  11
ATOM     11  C   UNL     1      37.639  -2.283  16.341  0.00  0.00    +0.000 A 
ATOM     12  C   UNL     1      37.127  -3.439  15.794  0.00  0.00    +0.000 A 
ATOM     13  C   UNL     1      37.363  -4.695  16.307  0.00  0.00    +0.000 A 
ATOM     14  C   UNL     1      38.158  -4.785  17.430  0.00  0.00    +0.000 A 
ATOM     15  C   UNL     1      38.694  -3.652  18.012  0.00  0.00    +0.000 A 
ATOM     16  C   UNL     1      38.432  -2.393  17.464  0.00  0.00    +0.000 A 
ENDBRANCH   6  11
BRANCH   7  17
ATOM     17  C   UNL     1      39.242  -1.306  14.252  0.00  0.00    +0.000 A 
ATOM     18  C   UNL     1      40.454  -1.315  14.870  0.00  0.00    +0.000 A 
ATOM     19  C   UNL     1      41.459  -2.116  14.374  0.00  0.00    +0.000 A 
ATOM     20  C   UNL     1      41.277  -2.907  13.277  0.00  0.00    +0.000 A 
ATOM     21  C   UNL     1      40.051  -2.892  12.659  0.00  0.00    +0.000 A 
ATOM     22  C   UNL     1      39.040  -2.095  13.148  0.00  0.00    +0.000 A 
ENDBRANCH   7  17
BRANCH   1  24
ATOM     23  N   UNL     1      36.106   5.375  12.992  0.00  0.00    +0.000 NA
ATOM     24  C   UNL     1      35.286   4.835  13.996  0.00  0.00    +0.000 C 
ATOM     25  O   UNL     1      34.301   5.473  14.418  0.00  0.00    +0.000 OA
BRANCH  23  26
ATOM     26  C   UNL     1      35.882   6.672  12.382  0.00  0.00    +0.000 C 
BRANCH  26  27
ATOM     27  C   UNL     1      35.202   6.558  11.038  0.00  0.00    +0.000 C 
BRANCH  27  28
ATOM     28  C   UNL     1      35.961   5.643  10.110  0.00  0.00    +0.000 C 
BRANCH  28  29
ATOM     29  C   UNL     1      35.600   5.928   8.649  0.00  0.00    +0.000 C 
BRANCH  29  31
ATOM     30  C   UNL     1      33.391   6.450   7.576  0.00  0.00    +0.000 C 
ATOM     31  C   UNL     1      34.360   6.799   8.683  0.00  0.00    +0.000 C 
ENDBRANCH  29  31
ENDBRANCH  28  29
ENDBRANCH  27  28
ENDBRANCH  26  27
ENDBRANCH  23  26
ENDBRANCH   1  24
TORSDOF 8
ENDMDL
MODEL 4
REMARK VINA RESULT:      -7.2      4.482      9.495
REMARK  Name = 
REMARK  8 active torsions:
REMARK  status: ('A' for Active; 'I' for Inactive)
REMARK    1  A    between atoms: C_2  and  C_3
REMARK    2  A    between atoms: C_3  and  C_4
REMARK    3  A    between atoms: C_4  and  C_5
REMARK    4  A    between atoms: C_5  and  C_6
REMARK    5  A    between atoms: C_6  and  N_7
REMARK    6  A    between atoms: C_8  and  C_10
REMARK    7  A    between atoms: C_15  and  C_16
REMARK    8  A    between atoms: C_22  and  C_23
REMARK                            x       y       z     vdW  Elec       q    Type
REMARK                         _______ _______ _______ _____ _____    ______ ____
ROOT
ATOM      1  C   UNL     1      36.708   2.061  14.813  0.00  0.00    +0.000 A 
ATOM      2  C   UNL     1      35.975   3.023  14.154  0.00  0.00    +0.000 A 
ATOM      3  C   UNL     1      36.202   4.349  14.400  0.00  0.00    +0.000 A 
ATOM      4  C   UNL     1      37.153   4.795  15.299  0.00  0.00    +0.000 A 
ATOM      5  N   UNL     1      37.372   6.095  15.537  0.00  0.00    +0.000 NA
ATOM      6  C   UNL     1      38.311   6.510  16.424  0.00  0.00    +0.000 A 
ATOM      7  C   UNL     1      39.041   5.538  17.081  0.00  0.00    +0.000 A 
ATOM      8  N   UNL     1      38.830   4.230  16.850  0.00  0.00    +0.000 NA
ATOM      9  C   UNL     1      37.896   3.820  15.968  0.00  0.00    +0.000 A 
ATOM     10  C   UNL     1      37.665   2.486  15.719  0.00  0.00    +0.000 A 
ENDROOT
BRANCH   6  11
ATOM     11  C   UNL     1      38.552   7.925  16.682  0.00  0.00    +0.000 A 
ATOM     12  C   UNL     1      37.890   8.602  17.683  0.00  0.00    +0.000 A 
ATOM     13  C   UNL     1      38.087   9.935  17.960  0.00  0.00    +0.000 A 
ATOM     14  C   UNL     1      39.001  10.619  17.186  0.00  0.00    +0.000 A 
ATOM     15  C   UNL     1      39.688   9.980  16.171  0.00  0.00    +0.000 A 
ATOM     16  C   UNL     1      39.461   8.625  15.918  0.00  0.00    +0.000 A 
ENDBRANCH   6  11
BRANCH   7  17
ATOM     17  C   UNL     1      40.054   5.977  18.038  0.00  0.00    +0.000 A 
ATOM     18  C   UNL     1      39.774   6.109  19.363  0.00  0.00    +0.000 A 
ATOM     19  C   UNL     1      40.765   6.526  20.224  0.00  0.00    +0.000 A 
ATOM     20  C   UNL     1      42.027   6.814  19.789  0.00  0.00    +0.000 A 
ATOM     21  C   UNL     1      42.300   6.678  18.450  0.00  0.00    +0.000 A 
ATOM     22  C   UNL     1      41.317   6.261  17.582  0.00  0.00    +0.000 A 
ENDBRANCH   7  17
BRANCH   1  24
ATOM     23  N   UNL     1      36.215  -0.231  15.595  0.00  0.00    +0.000 NA
ATOM     24  C   UNL     1      36.454   0.665  14.540  0.00  0.00    +0.000 C 
ATOM     25  O   UNL     1      36.449   0.264  13.358  0.00  0.00    +0.000 OA
BRANCH  23  26
ATOM     26  C   UNL     1      35.952  -1.645  15.405  0.00  0.00    +0.000 C 
BRANCH  26  27
ATOM     27  C   UNL     1      36.850  -2.509  16.258  0.00  0.00    +0.000 C 
BRANCH  27  28
ATOM     28  C   UNL     1      38.146  -1.810  16.582  0.00  0.00    +0.000 C 
BRANCH  28  29
ATOM     29  C   UNL     1      39.338  -2.754  16.386  0.00  0.00    +0.000 C 
BRANCH  29  31
ATOM     30  C   UNL     1      39.795  -0.828  14.842  0.00  0.00    +0.000 C 
ATOM     31  C   UNL     1      40.036  -2.295  15.122  0.00  0.00    +0.000 C 
ENDBRANCH  29  31
ENDBRANCH  28  29
ENDBRANCH  27  28
ENDBRANCH  26  27
ENDBRANCH  23  26
ENDBRANCH   1  24
TORSDOF 8
ENDMDL
MODEL 5
REMARK VINA RESULT:      -7.1      3.931      5.304
REMARK  Name = 
REMARK  8 active torsions:
REMARK  status: ('A' for Active; 'I' for Inactive)
REMARK    1  A    between atoms: C_2  and  C_3
REMARK    2  A    between atoms: C_3  and  C_4
REMARK    3  A    between atoms: C_4  and  C_5
REMARK    4  A    between atoms: C_5  and  C_6
REMARK    5  A    between atoms: C_6  and  N_7
REMARK    6  A    between atoms: C_8  and  C_10
REMARK    7  A    between atoms: C_15  and  C_16
REMARK    8  A    between atoms: C_22  and  C_23
REMARK                            x       y       z     vdW  Elec       q    Type
REMARK                         _______ _______ _______ _____ _____    ______ ____
ROOT
ATOM      1  C   UNL     1      38.614   5.211  15.775  0.00  0.00    +0.000 A 
ATOM      2  C   UNL     1      39.622   5.263  14.837  0.00  0.00    +0.000 A 
ATOM      3  C   UNL     1      40.024   4.123  14.198  0.00  0.00    +0.000 A 
ATOM      4  C   UNL     1      39.464   2.883  14.445  0.00  0.00    +0.000 A 
ATOM      5  N   UNL     1      39.861   1.769  13.816  0.00  0.00    +0.000 NA
ATOM      6  C   UNL     1      39.296   0.564  14.075  0.00  0.00    +0.000 A 
ATOM      7  C   UNL     1      38.286   0.521  15.017  0.00  0.00    +0.000 A 
ATOM      8  N   UNL     1      37.879   1.634  15.655  0.00  0.00    +0.000 NA
ATOM      9  C   UNL     1      38.442   2.831  15.397  0.00  0.00    +0.000 A 
ATOM     10  C   UNL     1      38.039   3.980  16.038  0.00  0.00    +0.000 A 
ENDROOT
BRANCH   6  11
ATOM     11  C   UNL     1      39.726  -0.650  13.390  0.00  0.00    +0.000 A 
ATOM     12  C   UNL     1      40.573  -1.557  13.987  0.00  0.00    +0.000 A 
ATOM     13  C   UNL     1      41.004  -2.713  13.376  0.00  0.00    +0.000 A 
ATOM     14  C   UNL     1      40.554  -2.965  12.097  0.00  0.00    +0.000 A 
ATOM     15  C   UNL     1      39.703  -2.082  11.460  0.00  0.00    +0.000 A 
ATOM     16  C   UNL     1      39.287  -0.917  12.110  0.00  0.00    +0.000 A 
ENDBRANCH   6  11
BRANCH   7  17
ATOM     17  C   UNL     1      37.672  -0.774  15.301  0.00  0.00    +0.000 A 
ATOM     18  C   UNL     1      36.717  -1.303  14.490  0.00  0.00    +0.000 A 
ATOM     19  C   UNL     1      36.170  -2.528  14.802  0.00  0.00    +0.000 A 
ATOM     20  C   UNL     1      36.557  -3.233  15.905  0.00  0.00    +0.000 A 
ATOM     21  C   UNL     1      37.522  -2.691  16.717  0.00  0.00    +0.000 A 
ATOM     22  C   UNL     1      38.075  -1.467  16.414  0.00  0.00    +0.000 A 
ENDBRANCH   7  17
BRANCH   1  24
ATOM     23  N   UNL     1      38.344   6.555  17.832  0.00  0.00    +0.000 NA
ATOM     24  C   UNL     1      38.202   6.427  16.440  0.00  0.00    +0.000 C 
ATOM     25  O   UNL     1      37.720   7.359  15.766  0.00  0.00    +0.000 OA
BRANCH  23  26
ATOM     26  C   UNL     1      37.956   7.740  18.573  0.00  0.00    +0.000 C 
BRANCH  26  27
ATOM     27  C   UNL     1      38.667   7.835  19.902  0.00  0.00    +0.000 C 
BRANCH  27  28
ATOM     28  C   UNL     1      39.795   6.839  20.000  0.00  0.00    +0.000 C 
BRANCH  28  29
ATOM     29  C   UNL     1      41.153   7.545  19.935  0.00  0.00    +0.000 C 
BRANCH  29  31
ATOM     30  C   UNL     1      41.875   6.471  17.784  0.00  0.00    +0.000 C 
ATOM     31  C   UNL     1      42.105   6.568  19.276  0.00  0.00    +0.000 C 
ENDBRANCH  29  31
ENDBRANCH  28  29
ENDBRANCH  27  28
ENDBRANCH  26  27
ENDBRANCH  23  26
ENDBRANCH   1  24
TORSDOF 8
ENDMDL
MODEL 6
REMARK VINA RESULT:      -7.0     26.063     30.408
REMARK  Name = 
REMARK  8 active torsions:
REMARK  status: ('A' for Active; 'I' for Inactive)
REMARK    1  A    between atoms: C_2  and  C_3
REMARK    2  A    between atoms: C_3  and  C_4
REMARK    3  A    between atoms: C_4  and  C_5
REMARK    4  A    between atoms: C_5  and  C_6
REMARK    5  A    between atoms: C_6  and  N_7
REMARK    6  A    between atoms: C_8  and  C_10
REMARK    7  A    between atoms: C_15  and  C_16
REMARK    8  A    between atoms: C_22  and  C_23
REMARK                            x       y       z     vdW  Elec       q    Type
REMARK                         _______ _______ _______ _____ _____    ______ ____
ROOT
ATOM      1  C   UNL     1      23.863  15.490  40.960  0.00  0.00    +0.000 A 
ATOM      2  C   UNL     1      25.114  15.771  41.464  0.00  0.00    +0.000 A 
ATOM      3  C   UNL     1      26.162  15.994  40.615  0.00  0.00    +0.000 A 
ATOM      4  C   UNL     1      26.039  15.952  39.239  0.00  0.00    +0.000 A 
ATOM      5  N   UNL     1      27.069  16.171  38.411  0.00  0.00    +0.000 NA
ATOM      6  C   UNL     1      26.924  16.125  37.063  0.00  0.00    +0.000 A 
ATOM      7  C   UNL     1      25.666  15.841  36.566  0.00  0.00    +0.000 A 
ATOM      8  N   UNL     1      24.624  15.620  37.388  0.00  0.00    +0.000 NA
ATOM      9  C   UNL     1      24.770  15.666  38.727  0.00  0.00    +0.000 A 
ATOM     10  C   UNL     1      23.717  15.442  39.584  0.00  0.00    +0.000 A 
ENDROOT
BRANCH   6  11
ATOM     11  C   UNL     1      28.044  16.365  36.161  0.00  0.00    +0.000 A 
ATOM     12  C   UNL     1      28.894  15.352  35.775  0.00  0.00    +0.000 A 
ATOM     13  C   UNL     1      29.962  15.535  34.927  0.00  0.00    +0.000 A 
ATOM     14  C   UNL     1      30.181  16.808  34.443  0.00  0.00    +0.000 A 
ATOM     15  C   UNL     1      29.354  17.854  34.803  0.00  0.00    +0.000 A 
ATOM     16  C   UNL     1      28.279  17.631  35.667  0.00  0.00    +0.000 A 
ENDBRANCH   6  11
BRANCH   7  17
ATOM     17  C   UNL     1      25.502  15.790  35.116  0.00  0.00    +0.000 A 
ATOM     18  C   UNL     1      25.098  16.877  34.404  0.00  0.00    +0.000 A 
ATOM     19  C   UNL     1      24.959  16.776  33.038  0.00  0.00    +0.000 A 
ATOM     20  C   UNL     1      25.215  15.614  32.369  0.00  0.00    +0.000 A 
ATOM     21  C   UNL     1      25.622  14.521  33.095  0.00  0.00    +0.000 A 
ATOM     22  C   UNL     1      25.764  14.613  34.461  0.00  0.00    +0.000 A 
ENDBRANCH   7  17
BRANCH   1  24
ATOM     23  N   UNL     1      21.647  14.516  41.460  0.00  0.00    +0.000 NA
ATOM     24  C   UNL     1      22.767  15.257  41.873  0.00  0.00    +0.000 C 
ATOM     25  O   UNL     1      22.825  15.722  43.029  0.00  0.00    +0.000 OA
BRANCH  23  26
ATOM     26  C   UNL     1      20.508  14.238  42.314  0.00  0.00    +0.000 C 
BRANCH  26  27
ATOM     27  C   UNL     1      20.703  12.981  43.129  0.00  0.00    +0.000 C 
BRANCH  27  28
ATOM     28  C   UNL     1      19.438  12.165  43.199  0.00  0.00    +0.000 C 
BRANCH  28  29
ATOM     29  C   UNL     1      18.465  12.571  42.087  0.00  0.00    +0.000 C 
BRANCH  29  31
ATOM     30  C   UNL     1      16.033  13.123  42.376  0.00  0.00    +0.000 C 
ATOM     31  C   UNL     1      17.102  12.061  42.512  0.00  0.00    +0.000 C 
ENDBRANCH  29  31
ENDBRANCH  28  29
ENDBRANCH  27  28
ENDBRANCH  26  27
ENDBRANCH  23  26
ENDBRANCH   1  24
TORSDOF 8
ENDMDL
MODEL 7
REMARK VINA RESULT:      -7.0      4.729      9.149
REMARK  Name = 
REMARK  8 active torsions:
REMARK  status: ('A' for Active; 'I' for Inactive)
REMARK    1  A    between atoms: C_2  and  C_3
REMARK    2  A    between atoms: C_3  and  C_4
REMARK    3  A    between atoms: C_4  and  C_5
REMARK    4  A    between atoms: C_5  and  C_6
REMARK    5  A    between atoms: C_6  and  N_7
REMARK    6  A    between atoms: C_8  and  C_10
REMARK    7  A    between atoms: C_15  and  C_16
REMARK    8  A    between atoms: C_22  and  C_23
REMARK                            x       y       z     vdW  Elec       q    Type
REMARK                         _______ _______ _______ _____ _____    ______ ____
ROOT
ATOM      1  C   UNL     1      37.791   1.713  14.237  0.00  0.00    +0.000 A 
ATOM      2  C   UNL     1      36.798   1.708  15.192  0.00  0.00    +0.000 A 
ATOM      3  C   UNL     1      36.791   2.653  16.180  0.00  0.00    +0.000 A 
ATOM      4  C   UNL     1      37.752   3.642  16.282  0.00  0.00    +0.000 A 
ATOM      5  N   UNL     1      37.741   4.565  17.253  0.00  0.00    +0.000 NA
ATOM      6  C   UNL     1      38.694   5.527  17.333  0.00  0.00    +0.000 A 
ATOM      7  C   UNL     1      39.687   5.524  16.372  0.00  0.00    +0.000 A 
ATOM      8  N   UNL     1      39.707   4.602  15.393  0.00  0.00    +0.000 NA
ATOM      9  C   UNL     1      38.759   3.646  15.315  0.00  0.00    +0.000 A 
ATOM     10  C   UNL     1      38.764   2.694  14.320  0.00  0.00    +0.000 A 
ENDROOT
BRANCH   6  11
ATOM     11  C   UNL     1      38.683   6.534  18.388  0.00  0.00    +0.000 A 
ATOM     12  C   UNL     1      37.839   7.622  18.343  0.00  0.00    +0.000 A 
ATOM     13  C   UNL     1      37.796   8.595  19.316  0.00  0.00    +0.000 A 
ATOM     14  C   UNL     1      38.651   8.459  20.390  0.00  0.00    +0.000 A 
ATOM     15  C   UNL     1      39.514   7.384  20.477  0.00  0.00    +0.000 A 
ATOM     16  C   UNL     1      39.530   6.416  19.469  0.00  0.00    +0.000 A 
ENDBRANCH   6  11
BRANCH   7  17
ATOM     17  C   UNL     1      40.717   6.557  16.452  0.00  0.00    +0.000 A 
ATOM     18  C   UNL     1      41.909   6.329  17.067  0.00  0.00    +0.000 A 
ATOM     19  C   UNL     1      42.847   7.337  17.115  0.00  0.00    +0.000 A 
ATOM     20  C   UNL     1      42.619   8.564  16.562  0.00  0.00    +0.000 A 
ATOM     21  C   UNL     1      41.413   8.784  15.943  0.00  0.00    +0.000 A 
ATOM     22  C   UNL     1      40.469   7.783  15.889  0.00  0.00    +0.000 A 
ENDBRANCH   7  17
BRANCH   1  24
ATOM     23  N   UNL     1      38.930  -0.064  12.950  0.00  0.00    +0.000 NA
ATOM     24  C   UNL     1      37.782   0.706  13.199  0.00  0.00    +0.000 C 
ATOM     25  O   UNL     1      36.745   0.530  12.529  0.00  0.00    +0.000 OA
BRANCH  23  26
ATOM     26  C   UNL     1      39.001  -1.093  11.929  0.00  0.00    +0.000 C 
BRANCH  26  27
ATOM     27  C   UNL     1      39.290  -2.455  12.516  0.00  0.00    +0.000 C 
BRANCH  27  28
ATOM     28  C   UNL     1      38.739  -2.584  13.913  0.00  0.00    +0.000 C 
BRANCH  28  29
ATOM     29  C   UNL     1      37.310  -3.137  13.885  0.00  0.00    +0.000 C 
BRANCH  29  31
ATOM     30  C   UNL     1      37.456  -1.816  16.015  0.00  0.00    +0.000 C 
ATOM     31  C   UNL     1      36.542  -2.374  14.946  0.00  0.00    +0.000 C 
ENDBRANCH  29  31
ENDBRANCH  28  29
ENDBRANCH  27  28
ENDBRANCH  26  27
ENDBRANCH  23  26
ENDBRANCH   1  24
TORSDOF 8
ENDMDL
MODEL 8
REMARK VINA RESULT:      -6.9     25.932     28.810
REMARK  Name = 
REMARK  8 active torsions:
REMARK  status: ('A' for Active; 'I' for Inactive)
REMARK    1  A    between atoms: C_2  and  C_3
REMARK    2  A    between atoms: C_3  and  C_4
REMARK    3  A    between atoms: C_4  and  C_5
REMARK    4  A    between atoms: C_5  and  C_6
REMARK    5  A    between atoms: C_6  and  N_7
REMARK    6  A    between atoms: C_8  and  C_10
REMARK    7  A    between atoms: C_15  and  C_16
REMARK    8  A    between atoms: C_22  and  C_23
REMARK                            x       y       z     vdW  Elec       q    Type
REMARK                         _______ _______ _______ _____ _____    ______ ____
ROOT
ATOM      1  C   UNL     1      25.817  16.338  38.024  0.00  0.00    +0.000 A 
ATOM      2  C   UNL     1      24.654  15.693  38.383  0.00  0.00    +0.000 A 
ATOM      3  C   UNL     1      24.705  14.565  39.154  0.00  0.00    +0.000 A 
ATOM      4  C   UNL     1      25.890  14.016  39.608  0.00  0.00    +0.000 A 
ATOM      5  N   UNL     1      25.934  12.910  40.364  0.00  0.00    +0.000 NA
ATOM      6  C   UNL     1      27.109  12.390  40.798  0.00  0.00    +0.000 A 
ATOM      7  C   UNL     1      28.271  13.044  40.432  0.00  0.00    +0.000 A 
ATOM      8  N   UNL     1      28.238  14.154  39.674  0.00  0.00    +0.000 NA
ATOM      9  C   UNL     1      27.069  14.670  39.243  0.00  0.00    +0.000 A 
ATOM     10  C   UNL     1      27.015  15.806  38.467  0.00  0.00    +0.000 A 
ENDROOT
BRANCH   6  11
ATOM     11  C   UNL     1      27.159  11.188  41.622  0.00  0.00    +0.000 A 
ATOM     12  C   UNL     1      27.224   9.930  41.064  0.00  0.00    +0.000 A 
ATOM     13  C   UNL     1      27.273   8.770  41.804  0.00  0.00    +0.000 A 
ATOM     14  C   UNL     1      27.255   8.889  43.178  0.00  0.00    +0.000 A 
ATOM     15  C   UNL     1      27.191  10.131  43.781  0.00  0.00    +0.000 A 
ATOM     16  C   UNL     1      27.142  11.288  42.997  0.00  0.00    +0.000 A 
ENDBRANCH   6  11
BRANCH   7  17
ATOM     17  C   UNL     1      29.540  12.489  40.896  0.00  0.00    +0.000 A 
ATOM     18  C   UNL     1      30.102  12.880  42.072  0.00  0.00    +0.000 A 
ATOM     19  C   UNL     1      31.301  12.326  42.464  0.00  0.00    +0.000 A 
ATOM     20  C   UNL     1      31.947  11.391  41.709  0.00  0.00    +0.000 A 
ATOM     21  C   UNL     1      31.372  11.002  40.524  0.00  0.00    +0.000 A 
ATOM     22  C   UNL     1      30.174  11.549  40.123  0.00  0.00    +0.000 A 
ENDBRANCH   7  17
BRANCH   1  24
ATOM     23  N   UNL     1      24.933  17.554  36.062  0.00  0.00    +0.000 NA
ATOM     24  C   UNL     1      25.744  17.530  37.209  0.00  0.00    +0.000 C 
ATOM     25  O   UNL     1      26.408  18.534  37.533  0.00  0.00    +0.000 OA
BRANCH  23  26
ATOM     26  C   UNL     1      24.804  18.708  35.193  0.00  0.00    +0.000 C 
BRANCH  26  27
ATOM     27  C   UNL     1      24.796  18.321  33.733  0.00  0.00    +0.000 C 
BRANCH  27  28
ATOM     28  C   UNL     1      25.606  17.073  33.487  0.00  0.00    +0.000 C 
BRANCH  28  29
ATOM     29  C   UNL     1      24.797  16.049  32.683  0.00  0.00    +0.000 C 
BRANCH  29  31
ATOM     30  C   UNL     1      25.984  14.605  34.358  0.00  0.00    +0.000 C 
ATOM     31  C   UNL     1      25.438  14.702  32.951  0.00  0.00    +0.000 C 
ENDBRANCH  29  31
ENDBRANCH  28  29
ENDBRANCH  27  28
ENDBRANCH  26  27
ENDBRANCH  23  26
ENDBRANCH   1  24
TORSDOF 8
ENDMDL
MODEL 9
REMARK VINA RESULT:      -6.8      5.335      8.030
REMARK  Name = 
REMARK  8 active torsions:
REMARK  status: ('A' for Active; 'I' for Inactive)
REMARK    1  A    between atoms: C_2  and  C_3
REMARK    2  A    between atoms: C_3  and  C_4
REMARK    3  A    between atoms: C_4  and  C_5
REMARK    4  A    between atoms: C_5  and  C_6
REMARK    5  A    between atoms: C_6  and  N_7
REMARK    6  A    between atoms: C_8  and  C_10
REMARK    7  A    between atoms: C_15  and  C_16
REMARK    8  A    between atoms: C_22  and  C_23
REMARK                            x       y       z     vdW  Elec       q    Type
REMARK                         _______ _______ _______ _____ _____    ______ ____
ROOT
ATOM      1  C   UNL     1      38.131  -3.066  15.314  0.00  0.00    +0.000 A 
ATOM      2  C   UNL     1      39.321  -3.010  16.006  0.00  0.00    +0.000 A 
ATOM      3  C   UNL     1      40.498  -2.827  15.334  0.00  0.00    +0.000 A 
ATOM      4  C   UNL     1      40.566  -2.691  13.959  0.00  0.00    +0.000 A 
ATOM      5  N   UNL     1      41.722  -2.511  13.306  0.00  0.00    +0.000 NA
ATOM      6  C   UNL     1      41.765  -2.380  11.956  0.00  0.00    +0.000 A 
ATOM      7  C   UNL     1      40.566  -2.437  11.271  0.00  0.00    +0.000 A 
ATOM      8  N   UNL     1      39.401  -2.617  11.917  0.00  0.00    +0.000 NA
ATOM      9  C   UNL     1      39.360  -2.748  13.258  0.00  0.00    +0.000 A 
ATOM     10  C   UNL     1      38.177  -2.932  13.937  0.00  0.00    +0.000 A 
ENDROOT
BRANCH   6  11
ATOM     11  C   UNL     1      43.022  -2.183  11.243  0.00  0.00    +0.000 A 
ATOM     12  C   UNL     1      43.481  -0.925  10.918  0.00  0.00    +0.000 A 
ATOM     13  C   UNL     1      44.660  -0.695  10.246  0.00  0.00    +0.000 A 
ATOM     14  C   UNL     1      45.413  -1.793   9.885  0.00  0.00    +0.000 A 
ATOM     15  C   UNL     1      44.991  -3.073  10.190  0.00  0.00    +0.000 A 
ATOM     16  C   UNL     1      43.787  -3.268  10.873  0.00  0.00    +0.000 A 
ENDBRANCH   6  11
BRANCH   7  17
ATOM     17  C   UNL     1      40.605  -2.297   9.817  0.00  0.00    +0.000 A 
ATOM     18  C   UNL     1      40.852  -3.359   9.004  0.00  0.00    +0.000 A 
ATOM     19  C   UNL     1      40.877  -3.173   7.639  0.00  0.00    +0.000 A 
ATOM     20  C   UNL     1      40.660  -1.950   7.072  0.00  0.00    +0.000 A 
ATOM     21  C   UNL     1      40.412  -0.884   7.901  0.00  0.00    +0.000 A 
ATOM     22  C   UNL     1      40.384  -1.060   9.266  0.00  0.00    +0.000 A 
ENDBRANCH   7  17
BRANCH   1  24
ATOM     23  N   UNL     1      35.805  -2.404  15.825  0.00  0.00    +0.000 NA
ATOM     24  C   UNL     1      36.897  -3.260  16.042  0.00  0.00    +0.000 C 
ATOM     25  O   UNL     1      36.813  -4.195  16.864  0.00  0.00    +0.000 OA
BRANCH  23  26
ATOM     26  C   UNL     1      34.534  -2.532  16.512  0.00  0.00    +0.000 C 
BRANCH  26  27
ATOM     27  C   UNL     1      34.258  -1.354  17.417  0.00  0.00    +0.000 C 
BRANCH  27  28
ATOM     28  C   UNL     1      35.108  -0.164  17.052  0.00  0.00    +0.000 C 
BRANCH  28  29
ATOM     29  C   UNL     1      35.880   0.349  18.272  0.00  0.00    +0.000 C 
BRANCH  29  31
ATOM     30  C   UNL     1      37.496  -1.350  19.168  0.00  0.00    +0.000 C 
ATOM     31  C   UNL     1      36.070  -0.846  19.184  0.00  0.00    +0.000 C 
ENDBRANCH  29  31
ENDBRANCH  28  29
ENDBRANCH  27  28
ENDBRANCH  26  27
ENDBRANCH  23  26
ENDBRANCH   1  24
TORSDOF 8
ENDMDL
MODEL 10
REMARK VINA RESULT:      -6.7      4.959      8.135
REMARK  Name = 
REMARK  8 active torsions:
REMARK  status: ('A' for Active; 'I' for Inactive)
REMARK    1  A    between atoms: C_2  and  C_3
REMARK    2  A    between atoms: C_3  and  C_4
REMARK    3  A    between atoms: C_4  and  C_5
REMARK    4  A    between atoms: C_5  and  C_6
REMARK    5  A    between atoms: C_6  and  N_7
REMARK    6  A    between atoms: C_8  and  C_10
REMARK    7  A    between atoms: C_15  and  C_16
REMARK    8  A    between atoms: C_22  and  C_23
REMARK                            x       y       z     vdW  Elec       q    Type
REMARK                         _______ _______ _______ _____ _____    ______ ____
ROOT
ATOM      1  C   UNL     1      39.067  -2.836  15.627  0.00  0.00    +0.000 A 
ATOM      2  C   UNL     1      37.964  -2.851  14.802  0.00  0.00    +0.000 A 
ATOM      3  C   UNL     1      38.122  -2.827  13.444  0.00  0.00    +0.000 A 
ATOM      4  C   UNL     1      39.361  -2.786  12.831  0.00  0.00    +0.000 A 
ATOM      5  N   UNL     1      39.510  -2.764  11.500  0.00  0.00    +0.000 NA
ATOM      6  C   UNL     1      40.736  -2.725  10.921  0.00  0.00    +0.000 A 
ATOM      7  C   UNL     1      41.837  -2.710  11.756  0.00  0.00    +0.000 A 
ATOM      8  N   UNL     1      41.699  -2.733  13.094  0.00  0.00    +0.000 NA
ATOM      9  C   UNL     1      40.480  -2.771  13.668  0.00  0.00    +0.000 A 
ATOM     10  C   UNL     1      40.318  -2.796  15.035  0.00  0.00    +0.000 A 
ENDROOT
BRANCH   6  11
ATOM     11  C   UNL     1      40.901  -2.701   9.472  0.00  0.00    +0.000 A 
ATOM     12  C   UNL     1      40.895  -1.521   8.761  0.00  0.00    +0.000 A 
ATOM     13  C   UNL     1      41.047  -1.454   7.394  0.00  0.00    +0.000 A 
ATOM     14  C   UNL     1      41.214  -2.641   6.712  0.00  0.00    +0.000 A 
ATOM     15  C   UNL     1      41.226  -3.849   7.385  0.00  0.00    +0.000 A 
ATOM     16  C   UNL     1      41.069  -3.878   8.773  0.00  0.00    +0.000 A 
ENDBRANCH   6  11
BRANCH   7  17
ATOM     17  C   UNL     1      43.161  -2.668  11.139  0.00  0.00    +0.000 A 
ATOM     18  C   UNL     1      43.848  -3.805  10.848  0.00  0.00    +0.000 A 
ATOM     19  C   UNL     1      45.093  -3.711  10.266  0.00  0.00    +0.000 A 
ATOM     20  C   UNL     1      45.663  -2.507   9.969  0.00  0.00    +0.000 A 
ATOM     21  C   UNL     1      44.962  -1.364  10.266  0.00  0.00    +0.000 A 
ATOM     22  C   UNL     1      43.717  -1.448  10.848  0.00  0.00    +0.000 A 
ENDBRANCH   7  17
BRANCH   1  24
ATOM     23  N   UNL     1      38.280  -1.774  17.716  0.00  0.00    +0.000 NA
ATOM     24  C   UNL     1      38.881  -2.862  17.061  0.00  0.00    +0.000 C 
ATOM     25  O   UNL     1      39.258  -3.859  17.708  0.00  0.00    +0.000 OA
BRANCH  23  26
ATOM     26  C   UNL     1      38.057  -1.723  19.149  0.00  0.00    +0.000 C 
BRANCH  26  27
ATOM     27  C   UNL     1      36.672  -1.225  19.489  0.00  0.00    +0.000 C 
BRANCH  27  28
ATOM     28  C   UNL     1      35.884  -0.888  18.248  0.00  0.00    +0.000 C 
BRANCH  28  29
ATOM     29  C   UNL     1      35.568   0.611  18.195  0.00  0.00    +0.000 C 
BRANCH  29  31
ATOM     30  C   UNL     1      35.632  -0.244  15.835  0.00  0.00    +0.000 C 
ATOM     31  C   UNL     1      35.386   0.951  16.729  0.00  0.00    +0.000 C 
ENDBRANCH  29  31
ENDBRANCH  28  29
ENDBRANCH  27  28
ENDBRANCH  26  27
ENDBRANCH  23  26
ENDBRANCH   1  24
TORSDOF 8
ENDMDL
