MODEL 1
REMARK VINA RESULT:      -6.9      0.000      0.000
REMARK  Name = 
REMARK  2 active torsions:
REMARK  status: ('A' for Active; 'I' for Inactive)
REMARK    1  A    between atoms: C_2  and  C_3
REMARK    2  A    between atoms: C_4  and  C_5
REMARK                            x       y       z     vdW  Elec       q    Type
REMARK                         _______ _______ _______ _____ _____    ______ ____
ROOT
ATOM      1  C   UNL     1      17.082  10.989  35.039  0.00  0.00    +0.000 A 
ATOM      2  C   UNL     1      16.913  11.398  36.327  0.00  0.00    +0.000 A 
ATOM      3  S   UNL     1      15.624  12.497  36.222  0.00  0.00    +0.000 S 
ATOM      4  C   UNL     1      15.322  12.418  34.541  0.00  0.00    +0.000 A 
ATOM      5  C   UNL     1      14.397  13.046  33.686  0.00  0.00    +0.000 A 
ATOM      6  C   UNL     1      14.393  12.774  32.329  0.00  0.00    +0.000 A 
ATOM      7  O   UNL     1      13.483  13.398  31.510  0.00  0.00    +0.000 OA
ATOM      8  C   UNL     1      15.330  11.873  31.904  0.00  0.00    +0.000 A 
ATOM      9  C   UNL     1      16.243  11.243  32.709  0.00  0.00    +0.000 A 
ATOM     10  C   UNL     1      16.253  11.519  34.103  0.00  0.00    +0.000 A 
ENDROOT
BRANCH   2  11
ATOM     11  C   UNL     1      17.638  11.014  37.538  0.00  0.00    +0.000 A 
ATOM     12  C   UNL     1      17.058  10.115  38.407  0.00  0.00    +0.000 A 
ATOM     13  C   UNL     1      17.728   9.734  39.567  0.00  0.00    +0.000 A 
ATOM     14  C   UNL     1      18.964  10.225  39.884  0.00  0.00    +0.000 A 
ATOM     15  O   UNL     1      19.680   9.881  41.025  0.00  0.00    +0.000 OA
ATOM     16  C   UNL     1      19.551  11.125  39.016  0.00  0.00    +0.000 A 
ATOM     17  C   UNL     1      18.880  11.509  37.854  0.00  0.00    +0.000 A 
ENDBRANCH   2  11
BRANCH   1  19
ATOM     18  C   UNL     1      17.732   8.585  35.176  0.00  0.00    +0.000 C 
ATOM     19  C   UNL     1      18.176   9.973  34.719  0.00  0.00    +0.000 C 
ENDBRANCH   1  19
TORSDOF 2
ENDMDL
MODEL 2
REMARK VINA RESULT:      -6.9      1.374      2.447
REMARK  Name = 
REMARK  2 active torsions:
REMARK  status: ('A' for Active; 'I' for Inactive)
REMARK    1  A    between atoms: C_2  and  C_3
REMARK    2  A    between atoms: C_4  and  C_5
REMARK                            x       y       z     vdW  Elec       q    Type
REMARK                         _______ _______ _______ _____ _____    ______ ____
ROOT
ATOM      1  C   UNL     1      16.295  11.676  35.795  0.00  0.00    +0.000 A 
ATOM      2  C   UNL     1      17.320  10.843  36.126  0.00  0.00    +0.000 A 
ATOM      3  S   UNL     1      17.686  10.072  34.658  0.00  0.00    +0.000 S 
ATOM      4  C   UNL     1      16.528  10.822  33.649  0.00  0.00    +0.000 A 
ATOM      5  C   UNL     1      16.205  10.708  32.284  0.00  0.00    +0.000 A 
ATOM      6  C   UNL     1      15.188  11.468  31.734  0.00  0.00    +0.000 A 
ATOM      7  O   UNL     1      14.887  11.343  30.399  0.00  0.00    +0.000 OA
ATOM      8  C   UNL     1      14.546  12.311  32.599  0.00  0.00    +0.000 A 
ATOM      9  C   UNL     1      14.835  12.446  33.931  0.00  0.00    +0.000 A 
ATOM     10  C   UNL     1      15.878  11.668  34.502  0.00  0.00    +0.000 A 
ENDROOT
BRANCH   2  11
ATOM     11  C   UNL     1      17.979  10.629  37.414  0.00  0.00    +0.000 A 
ATOM     12  C   UNL     1      19.028  11.449  37.772  0.00  0.00    +0.000 A 
ATOM     13  C   UNL     1      19.672  11.265  38.993  0.00  0.00    +0.000 A 
ATOM     14  C   UNL     1      19.297  10.285  39.869  0.00  0.00    +0.000 A 
ATOM     15  O   UNL     1      19.902  10.056  41.100  0.00  0.00    +0.000 OA
ATOM     16  C   UNL     1      18.246   9.461  39.516  0.00  0.00    +0.000 A 
ATOM     17  C   UNL     1      17.601   9.643  38.293  0.00  0.00    +0.000 A 
ENDBRANCH   2  11
BRANCH   1  19
ATOM     18  C   UNL     1      14.540  11.807  37.561  0.00  0.00    +0.000 C 
ATOM     19  C   UNL     1      15.677  12.560  36.875  0.00  0.00    +0.000 C 
ENDBRANCH   1  19
TORSDOF 2
ENDMDL
MODEL 3
REMARK VINA RESULT:      -6.5     19.147     20.844
REMARK  Name = 
REMARK  2 active torsions:
REMARK  status: ('A' for Active; 'I' for Inactive)
REMARK    1  A    between atoms: C_2  and  C_3
REMARK    2  A    between atoms: C_4  and  C_5
REMARK                            x       y       z     vdW  Elec       q    Type
REMARK                         _______ _______ _______ _____ _____    ______ ____
ROOT
ATOM      1  C   UNL     1      28.718  23.233  26.120  0.00  0.00    +0.000 A 
ATOM      2  C   UNL     1      28.115  24.039  25.203  0.00  0.00    +0.000 A 
ATOM      3  S   UNL     1      26.719  24.572  26.009  0.00  0.00    +0.000 S 
ATOM      4  C   UNL     1      26.927  23.761  27.499  0.00  0.00    +0.000 A 
ATOM      5  C   UNL     1      26.178  23.702  28.689  0.00  0.00    +0.000 A 
ATOM      6  C   UNL     1      26.611  22.936  29.758  0.00  0.00    +0.000 A 
ATOM      7  O   UNL     1      25.867  22.892  30.912  0.00  0.00    +0.000 OA
ATOM      8  C   UNL     1      27.787  22.265  29.566  0.00  0.00    +0.000 A 
ATOM      9  C   UNL     1      28.539  22.301  28.422  0.00  0.00    +0.000 A 
ATOM     10  C   UNL     1      28.100  23.085  27.321  0.00  0.00    +0.000 A 
ENDROOT
BRANCH   2  11
ATOM     11  C   UNL     1      28.529  24.391  23.845  0.00  0.00    +0.000 A 
ATOM     12  C   UNL     1      29.251  25.547  23.644  0.00  0.00    +0.000 A 
ATOM     13  C   UNL     1      29.656  25.904  22.361  0.00  0.00    +0.000 A 
ATOM     14  C   UNL     1      29.361  25.136  21.269  0.00  0.00    +0.000 A 
ATOM     15  O   UNL     1      29.739  25.442  19.966  0.00  0.00    +0.000 OA
ATOM     16  C   UNL     1      28.637  23.976  21.463  0.00  0.00    +0.000 A 
ATOM     17  C   UNL     1      28.230  23.617  22.748  0.00  0.00    +0.000 A 
ENDBRANCH   2  11
BRANCH   1  19
ATOM     18  C   UNL     1      31.202  23.444  26.164  0.00  0.00    +0.000 C 
ATOM     19  C   UNL     1      30.034  22.549  25.758  0.00  0.00    +0.000 C 
ENDBRANCH   1  19
TORSDOF 2
ENDMDL
MODEL 4
REMARK VINA RESULT:      -6.3     18.321     20.327
REMARK  Name = 
REMARK  2 active torsions:
REMARK  status: ('A' for Active; 'I' for Inactive)
REMARK    1  A    between atoms: C_2  and  C_3
REMARK    2  A    between atoms: C_4  and  C_5
REMARK                            x       y       z     vdW  Elec       q    Type
REMARK                         _______ _______ _______ _____ _____    ______ ____
ROOT
ATOM      1  C   UNL     1      33.614   1.364  34.559  0.00  0.00    +0.000 A 
ATOM      2  C   UNL     1      33.929   0.601  35.642  0.00  0.00    +0.000 A 
ATOM      3  S   UNL     1      34.270   1.751  36.844  0.00  0.00    +0.000 S 
ATOM      4  C   UNL     1      34.006   3.182  35.947  0.00  0.00    +0.000 A 
ATOM      5  C   UNL     1      34.088   4.553  36.254  0.00  0.00    +0.000 A 
ATOM      6  C   UNL     1      33.808   5.509  35.293  0.00  0.00    +0.000 A 
ATOM      7  O   UNL     1      33.894   6.843  35.611  0.00  0.00    +0.000 OA
ATOM      8  C   UNL     1      33.457   5.025  34.063  0.00  0.00    +0.000 A 
ATOM      9  C   UNL     1      33.367   3.699  33.732  0.00  0.00    +0.000 A 
ATOM     10  C   UNL     1      33.653   2.713  34.714  0.00  0.00    +0.000 A 
ENDROOT
BRANCH   2  11
ATOM     11  C   UNL     1      33.975  -0.854  35.786  0.00  0.00    +0.000 A 
ATOM     12  C   UNL     1      35.184  -1.501  35.646  0.00  0.00    +0.000 A 
ATOM     13  C   UNL     1      35.254  -2.886  35.777  0.00  0.00    +0.000 A 
ATOM     14  C   UNL     1      34.149  -3.644  36.046  0.00  0.00    +0.000 A 
ATOM     15  O   UNL     1      34.158  -5.027  36.188  0.00  0.00    +0.000 OA
ATOM     16  C   UNL     1      32.935  -3.001  36.188  0.00  0.00    +0.000 A 
ATOM     17  C   UNL     1      32.862  -1.614  36.055  0.00  0.00    +0.000 A 
ENDBRANCH   2  11
BRANCH   1  19
ATOM     18  C   UNL     1      34.504   0.410  32.433  0.00  0.00    +0.000 C 
ATOM     19  C   UNL     1      33.240   0.676  33.248  0.00  0.00    +0.000 C 
ENDBRANCH   1  19
TORSDOF 2
ENDMDL
MODEL 5
REMARK VINA RESULT:      -6.3     18.754     20.363
REMARK  Name = 
REMARK  2 active torsions:
REMARK  status: ('A' for Active; 'I' for Inactive)
REMARK    1  A    between atoms: C_2  and  C_3
REMARK    2  A    between atoms: C_4  and  C_5
REMARK                            x       y       z     vdW  Elec       q    Type
REMARK                         _______ _______ _______ _____ _____    ______ ____
ROOT
ATOM      1  C   UNL     1      27.672  23.544  26.841  0.00  0.00    +0.000 A 
ATOM      2  C   UNL     1      27.623  24.504  25.876  0.00  0.00    +0.000 A 
ATOM      3  S   UNL     1      26.787  25.774  26.632  0.00  0.00    +0.000 S 
ATOM      4  C   UNL     1      26.514  25.062  28.161  0.00  0.00    +0.000 A 
ATOM      5  C   UNL     1      25.879  25.497  29.340  0.00  0.00    +0.000 A 
ATOM      6  C   UNL     1      25.813  24.674  30.451  0.00  0.00    +0.000 A 
ATOM      7  O   UNL     1      25.189  25.116  31.592  0.00  0.00    +0.000 OA
ATOM      8  C   UNL     1      26.397  23.445  30.312  0.00  0.00    +0.000 A 
ATOM      9  C   UNL     1      27.023  22.992  29.181  0.00  0.00    +0.000 A 
ATOM     10  C   UNL     1      27.094  23.831  28.036  0.00  0.00    +0.000 A 
ENDROOT
BRANCH   2  11
ATOM     11  C   UNL     1      28.147  24.492  24.511  0.00  0.00    +0.000 A 
ATOM     12  C   UNL     1      29.271  25.236  24.220  0.00  0.00    +0.000 A 
ATOM     13  C   UNL     1      29.789  25.241  22.927  0.00  0.00    +0.000 A 
ATOM     14  C   UNL     1      29.216  24.522  21.915  0.00  0.00    +0.000 A 
ATOM     15  O   UNL     1      29.689  24.489  20.608  0.00  0.00    +0.000 OA
ATOM     16  C   UNL     1      28.091  23.775  22.201  0.00  0.00    +0.000 A 
ATOM     17  C   UNL     1      27.570  23.769  23.495  0.00  0.00    +0.000 A 
ENDBRANCH   2  11
BRANCH   1  19
ATOM     18  C   UNL     1      29.849  22.328  26.867  0.00  0.00    +0.000 C 
ATOM     19  C   UNL     1      28.363  22.217  26.535  0.00  0.00    +0.000 C 
ENDBRANCH   1  19
TORSDOF 2
ENDMDL
MODEL 6
REMARK VINA RESULT:      -6.3     17.690     19.512
REMARK  Name = 
REMARK  2 active torsions:
REMARK  status: ('A' for Active; 'I' for Inactive)
REMARK    1  A    between atoms: C_2  and  C_3
REMARK    2  A    between atoms: C_4  and  C_5
REMARK                            x       y       z     vdW  Elec       q    Type
REMARK                         _______ _______ _______ _____ _____    ______ ____
ROOT
ATOM      1  C   UNL     1      33.805   3.166  34.661  0.00  0.00    +0.000 A 
ATOM      2  C   UNL     1      34.349   3.860  35.699  0.00  0.00    +0.000 A 
ATOM      3  S   UNL     1      34.460   2.697  36.931  0.00  0.00    +0.000 S 
ATOM      4  C   UNL     1      33.811   1.349  36.104  0.00  0.00    +0.000 A 
ATOM      5  C   UNL     1      33.573   0.008  36.462  0.00  0.00    +0.000 A 
ATOM      6  C   UNL     1      33.021  -0.877  35.553  0.00  0.00    +0.000 A 
ATOM      7  O   UNL     1      32.797  -2.182  35.921  0.00  0.00    +0.000 OA
ATOM      8  C   UNL     1      32.737  -0.358  34.320  0.00  0.00    +0.000 A 
ATOM      9  C   UNL     1      32.957   0.939  33.940  0.00  0.00    +0.000 A 
ATOM     10  C   UNL     1      33.522   1.854  34.868  0.00  0.00    +0.000 A 
ENDROOT
BRANCH   2  11
ATOM     11  C   UNL     1      34.756   5.262  35.781  0.00  0.00    +0.000 A 
ATOM     12  C   UNL     1      33.974   6.145  36.494  0.00  0.00    +0.000 A 
ATOM     13  C   UNL     1      34.340   7.485  36.586  0.00  0.00    +0.000 A 
ATOM     14  C   UNL     1      35.469   7.971  35.986  0.00  0.00    +0.000 A 
ATOM     15  O   UNL     1      35.884   9.297  36.045  0.00  0.00    +0.000 OA
ATOM     16  C   UNL     1      36.257   7.091  35.271  0.00  0.00    +0.000 A 
ATOM     17  C   UNL     1      35.891   5.748  35.176  0.00  0.00    +0.000 A 
ENDBRANCH   2  11
BRANCH   1  19
ATOM     18  C   UNL     1      32.402   4.884  33.520  0.00  0.00    +0.000 C 
ATOM     19  C   UNL     1      33.545   3.887  33.340  0.00  0.00    +0.000 C 
ENDBRANCH   1  19
TORSDOF 2
ENDMDL
MODEL 7
REMARK VINA RESULT:      -6.1     19.389     20.099
REMARK  Name = 
REMARK  2 active torsions:
REMARK  status: ('A' for Active; 'I' for Inactive)
REMARK    1  A    between atoms: C_2  and  C_3
REMARK    2  A    between atoms: C_4  and  C_5
REMARK                            x       y       z     vdW  Elec       q    Type
REMARK                         _______ _______ _______ _____ _____    ______ ____
ROOT
ATOM      1  C   UNL     1      30.271  22.950  25.698  0.00  0.00    +0.000 A 
ATOM      2  C   UNL     1      30.291  22.765  27.047  0.00  0.00    +0.000 A 
ATOM      3  S   UNL     1      28.644  22.704  27.456  0.00  0.00    +0.000 S 
ATOM      4  C   UNL     1      27.960  22.914  25.904  0.00  0.00    +0.000 A 
ATOM      5  C   UNL     1      26.639  22.975  25.421  0.00  0.00    +0.000 A 
ATOM      6  C   UNL     1      26.389  23.159  24.072  0.00  0.00    +0.000 A 
ATOM      7  O   UNL     1      25.093  23.216  23.620  0.00  0.00    +0.000 OA
ATOM      8  C   UNL     1      27.495  23.272  23.276  0.00  0.00    +0.000 A 
ATOM      9  C   UNL     1      28.792  23.216  23.713  0.00  0.00    +0.000 A 
ATOM     10  C   UNL     1      29.056  23.028  25.097  0.00  0.00    +0.000 A 
ENDROOT
BRANCH   2  11
ATOM     11  C   UNL     1      31.424  22.643  27.963  0.00  0.00    +0.000 A 
ATOM     12  C   UNL     1      31.731  21.405  28.487  0.00  0.00    +0.000 A 
ATOM     13  C   UNL     1      32.805  21.263  29.361  0.00  0.00    +0.000 A 
ATOM     14  C   UNL     1      33.585  22.325  29.728  0.00  0.00    +0.000 A 
ATOM     15  O   UNL     1      34.669  22.243  30.595  0.00  0.00    +0.000 OA
ATOM     16  C   UNL     1      33.283  23.567  29.206  0.00  0.00    +0.000 A 
ATOM     17  C   UNL     1      32.207  23.712  28.331  0.00  0.00    +0.000 A 
ENDBRANCH   2  11
BRANCH   1  19
ATOM     18  C   UNL     1      31.997  24.526  24.829  0.00  0.00    +0.000 C 
ATOM     19  C   UNL     1      31.594  23.058  24.944  0.00  0.00    +0.000 C 
ENDBRANCH   1  19
TORSDOF 2
ENDMDL
MODEL 8
REMARK VINA RESULT:      -6.1     18.240     19.823
REMARK  Name = 
REMARK  2 active torsions:
REMARK  status: ('A' for Active; 'I' for Inactive)
REMARK    1  A    between atoms: C_2  and  C_3
REMARK    2  A    between atoms: C_4  and  C_5
REMARK                            x       y       z     vdW  Elec       q    Type
REMARK                         _______ _______ _______ _____ _____    ______ ____
ROOT
ATOM      1  C   UNL     1      34.232   2.844  36.247  0.00  0.00    +0.000 A 
ATOM      2  C   UNL     1      34.283   3.828  35.307  0.00  0.00    +0.000 A 
ATOM      3  S   UNL     1      33.759   3.046  33.894  0.00  0.00    +0.000 S 
ATOM      4  C   UNL     1      33.484   1.481  34.524  0.00  0.00    +0.000 A 
ATOM      5  C   UNL     1      33.036   0.269  33.964  0.00  0.00    +0.000 A 
ATOM      6  C   UNL     1      32.910  -0.866  34.746  0.00  0.00    +0.000 A 
ATOM      7  O   UNL     1      32.471  -2.039  34.182  0.00  0.00    +0.000 OA
ATOM      8  C   UNL     1      33.245  -0.715  36.064  0.00  0.00    +0.000 A 
ATOM      9  C   UNL     1      33.682   0.448  36.640  0.00  0.00    +0.000 A 
ATOM     10  C   UNL     1      33.815   1.616  35.842  0.00  0.00    +0.000 A 
ENDROOT
BRANCH   2  11
ATOM     11  C   UNL     1      34.683   5.229  35.434  0.00  0.00    +0.000 A 
ATOM     12  C   UNL     1      35.996   5.574  35.194  0.00  0.00    +0.000 A 
ATOM     13  C   UNL     1      36.401   6.901  35.309  0.00  0.00    +0.000 A 
ATOM     14  C   UNL     1      35.531   7.897  35.656  0.00  0.00    +0.000 A 
ATOM     15  O   UNL     1      35.878   9.237  35.785  0.00  0.00    +0.000 OA
ATOM     16  C   UNL     1      34.214   7.558  35.897  0.00  0.00    +0.000 A 
ATOM     17  C   UNL     1      33.806   6.228  35.783  0.00  0.00    +0.000 A 
ENDBRANCH   2  11
BRANCH   1  19
ATOM     18  C   UNL     1      36.131   2.897  37.862  0.00  0.00    +0.000 C 
ATOM     19  C   UNL     1      34.639   3.166  37.683  0.00  0.00    +0.000 C 
ENDBRANCH   1  19
TORSDOF 2
ENDMDL
MODEL 9
REMARK VINA RESULT:      -6.1      3.756      7.020
REMARK  Name = 
REMARK  2 active torsions:
REMARK  status: ('A' for Active; 'I' for Inactive)
REMARK    1  A    between atoms: C_2  and  C_3
REMARK    2  A    between atoms: C_4  and  C_5
REMARK                            x       y       z     vdW  Elec       q    Type
REMARK                         _______ _______ _______ _____ _____    ______ ____
ROOT
ATOM      1  C   UNL     1      20.641  11.601  38.158  0.00  0.00    +0.000 A 
ATOM      2  C   UNL     1      19.645  10.851  37.608  0.00  0.00    +0.000 A 
ATOM      3  S   UNL     1      20.481   9.771  36.601  0.00  0.00    +0.000 S 
ATOM      4  C   UNL     1      22.082  10.291  36.895  0.00  0.00    +0.000 A 
ATOM      5  C   UNL     1      23.343   9.880  36.424  0.00  0.00    +0.000 A 
ATOM      6  C   UNL     1      24.498  10.509  36.855  0.00  0.00    +0.000 A 
ATOM      7  O   UNL     1      25.719  10.094  36.383  0.00  0.00    +0.000 OA
ATOM      8  C   UNL     1      24.316  11.529  37.748  0.00  0.00    +0.000 A 
ATOM      9  C   UNL     1      23.105  11.953  38.228  0.00  0.00    +0.000 A 
ATOM     10  C   UNL     1      21.916  11.311  37.788  0.00  0.00    +0.000 A 
ENDROOT
BRANCH   2  11
ATOM     11  C   UNL     1      18.198  10.922  37.807  0.00  0.00    +0.000 A 
ATOM     12  C   UNL     1      17.453  11.759  37.005  0.00  0.00    +0.000 A 
ATOM     13  C   UNL     1      16.074  11.844  37.174  0.00  0.00    +0.000 A 
ATOM     14  C   UNL     1      15.415  11.113  38.124  0.00  0.00    +0.000 A 
ATOM     15  O   UNL     1      14.041  11.157  38.338  0.00  0.00    +0.000 OA
ATOM     16  C   UNL     1      16.156  10.272  38.930  0.00  0.00    +0.000 A 
ATOM     17  C   UNL     1      17.538  10.186  38.762  0.00  0.00    +0.000 A 
ENDBRANCH   2  11
BRANCH   1  19
ATOM     18  C   UNL     1      20.072  14.018  38.386  0.00  0.00    +0.000 C 
ATOM     19  C   UNL     1      20.280  12.709  39.144  0.00  0.00    +0.000 C 
ENDBRANCH   1  19
TORSDOF 2
ENDMDL
MODEL 10
REMARK VINA RESULT:      -6.1     19.107     19.847
REMARK  Name = 
REMARK  2 active torsions:
REMARK  status: ('A' for Active; 'I' for Inactive)
REMARK    1  A    between atoms: C_2  and  C_3
REMARK    2  A    between atoms: C_4  and  C_5
REMARK                            x       y       z     vdW  Elec       q    Type
REMARK                         _______ _______ _______ _____ _____    ______ ____
ROOT
ATOM      1  C   UNL     1      29.058  22.764  27.025  0.00  0.00    +0.000 A 
ATOM      2  C   UNL     1      30.407  22.754  26.836  0.00  0.00    +0.000 A 
ATOM      3  S   UNL     1      30.567  22.930  25.155  0.00  0.00    +0.000 S 
ATOM      4  C   UNL     1      28.915  23.013  24.722  0.00  0.00    +0.000 A 
ATOM      5  C   UNL     1      28.234  23.159  23.499  0.00  0.00    +0.000 A 
ATOM      6  C   UNL     1      26.851  23.193  23.461  0.00  0.00    +0.000 A 
ATOM      7  O   UNL     1      26.204  23.336  22.257  0.00  0.00    +0.000 OA
ATOM      8  C   UNL     1      26.224  23.078  24.671  0.00  0.00    +0.000 A 
ATOM      9  C   UNL     1      26.856  22.935  25.878  0.00  0.00    +0.000 A 
ATOM     10  C   UNL     1      28.275  22.899  25.924  0.00  0.00    +0.000 A 
ENDROOT
BRANCH   2  11
ATOM     11  C   UNL     1      31.492  22.627  27.809  0.00  0.00    +0.000 A 
ATOM     12  C   UNL     1      32.292  23.720  28.066  0.00  0.00    +0.000 A 
ATOM     13  C   UNL     1      33.331  23.624  28.987  0.00  0.00    +0.000 A 
ATOM     14  C   UNL     1      33.595  22.465  29.662  0.00  0.00    +0.000 A 
ATOM     15  O   UNL     1      34.617  22.311  30.592  0.00  0.00    +0.000 OA
ATOM     16  C   UNL     1      32.797  21.366  29.410  0.00  0.00    +0.000 A 
ATOM     17  C   UNL     1      31.756  21.460  28.486  0.00  0.00    +0.000 A 
ENDBRANCH   2  11
BRANCH   1  19
ATOM     18  C   UNL     1      28.403  24.005  29.086  0.00  0.00    +0.000 C 
ATOM     19  C   UNL     1      28.506  22.624  28.441  0.00  0.00    +0.000 C 
ENDBRANCH   1  19
TORSDOF 2
ENDMDL
