MODEL 1
REMARK VINA RESULT:      -6.9      0.000      0.000
REMARK  Name = 
REMARK  7 active torsions:
REMARK  status: ('A' for Active; 'I' for Inactive)
REMARK    1  A    between atoms: C_5  and  N_6
REMARK    2  A    between atoms: C_8  and  C_9
REMARK    3  A    between atoms: C_9  and  O_11
REMARK    4  A    between atoms: O_11  and  C_12
REMARK    5  A    between atoms: C_12  and  C_13
REMARK    6  A    between atoms: C_13  and  O_15
REMARK    7  A    between atoms: O_15  and  C_16
REMARK                            x       y       z     vdW  Elec       q    Type
REMARK                         _______ _______ _______ _____ _____    ______ ____
ROOT
ATOM      1  N   UNL     1      16.535  11.409  35.452  0.00  0.00    +0.000 N 
ATOM      2  C   UNL     1      16.438  11.940  36.730  0.00  0.00    +0.000 C 
ATOM      3  C   UNL     1      16.869  10.796  37.771  0.00  0.00    +0.000 C 
ATOM      4  C   UNL     1      17.214   9.647  36.699  0.00  0.00    +0.000 C 
ATOM      5  C   UNL     1      17.458  10.365  35.460  0.00  0.00    +0.000 C 
ATOM      6  O   UNL     1      18.338  10.061  34.602  0.00  0.00    +0.000 OA
ENDROOT
BRANCH   1  11
ATOM      7  C   UNL     1      13.417  13.653  31.228  0.00  0.00    +0.000 C 
ATOM      8  C   UNL     1      14.227  13.073  32.332  0.00  0.00    +0.000 A 
ATOM      9  C   UNL     1      14.085  13.464  33.644  0.00  0.00    +0.000 A 
ATOM     10  C   UNL     1      14.854  12.902  34.644  0.00  0.00    +0.000 A 
ATOM     11  C   UNL     1      15.798  11.920  34.338  0.00  0.00    +0.000 A 
ATOM     12  C   UNL     1      15.911  11.559  33.038  0.00  0.00    +0.000 A 
ATOM     13  C   UNL     1      15.151  12.111  32.028  0.00  0.00    +0.000 A 
ATOM     14  C   UNL     1      15.316  11.675  30.598  0.00  0.00    +0.000 C 
ENDBRANCH   1  11
BRANCH   3  15
ATOM     15  C   UNL     1      18.333  11.316  37.999  0.00  0.00    +0.000 C 
ATOM     16  O   UNL     1      18.686  12.467  37.803  0.00  0.00    +0.000 OA
BRANCH  15  17
ATOM     17  O   UNL     1      19.278  10.453  38.438  0.00  0.00    +0.000 OA
BRANCH  17  18
ATOM     18  C   UNL     1      20.622  10.458  38.394  0.00  0.00    +0.000 C 
BRANCH  18  19
ATOM     19  C   UNL     1      21.374  10.236  37.194  0.00  0.00    +0.000 C 
ATOM     20  O   UNL     1      21.124   9.479  36.233  0.00  0.00    +0.000 OA
BRANCH  19  21
ATOM     21  O   UNL     1      22.560  10.952  37.042  0.00  0.00    +0.000 OA
BRANCH  21  22
ATOM     22  C   UNL     1      23.830  10.387  37.313  0.00  0.00    +0.000 C 
ATOM     23  C   UNL     1      24.560  10.332  35.977  0.00  0.00    +0.000 C 
ATOM     24  C   UNL     1      24.605  11.199  38.328  0.00  0.00    +0.000 C 
ATOM     25  C   UNL     1      23.673   8.938  37.760  0.00  0.00    +0.000 C 
ENDBRANCH  21  22
ENDBRANCH  19  21
ENDBRANCH  18  19
ENDBRANCH  17  18
ENDBRANCH  15  17
ENDBRANCH   3  15
TORSDOF 7
ENDMDL
MODEL 2
REMARK VINA RESULT:      -6.3     18.326     19.760
REMARK  Name = 
REMARK  7 active torsions:
REMARK  status: ('A' for Active; 'I' for Inactive)
REMARK    1  A    between atoms: C_5  and  N_6
REMARK    2  A    between atoms: C_8  and  C_9
REMARK    3  A    between atoms: C_9  and  O_11
REMARK    4  A    between atoms: O_11  and  C_12
REMARK    5  A    between atoms: C_12  and  C_13
REMARK    6  A    between atoms: C_13  and  O_15
REMARK    7  A    between atoms: O_15  and  C_16
REMARK                            x       y       z     vdW  Elec       q    Type
REMARK                         _______ _______ _______ _____ _____    ______ ____
ROOT
ATOM      1  N   UNL     1      26.578  25.182  24.111  0.00  0.00    +0.000 N 
ATOM      2  C   UNL     1      26.572  23.967  23.443  0.00  0.00    +0.000 C 
ATOM      3  C   UNL     1      27.061  24.231  21.936  0.00  0.00    +0.000 C 
ATOM      4  C   UNL     1      27.323  25.814  22.070  0.00  0.00    +0.000 C 
ATOM      5  C   UNL     1      27.489  26.038  23.495  0.00  0.00    +0.000 C 
ATOM      6  O   UNL     1      28.307  26.852  24.015  0.00  0.00    +0.000 OA
ENDROOT
BRANCH   1  11
ATOM      7  C   UNL     1      23.148  26.403  28.509  0.00  0.00    +0.000 C 
ATOM      8  C   UNL     1      24.038  26.087  27.360  0.00  0.00    +0.000 A 
ATOM      9  C   UNL     1      23.777  26.515  26.078  0.00  0.00    +0.000 A 
ATOM     10  C   UNL     1      24.626  26.203  25.034  0.00  0.00    +0.000 A 
ATOM     11  C   UNL     1      25.773  25.442  25.264  0.00  0.00    +0.000 A 
ATOM     12  C   UNL     1      25.998  25.038  26.537  0.00  0.00    +0.000 A 
ATOM     13  C   UNL     1      25.160  25.341  27.590  0.00  0.00    +0.000 A 
ATOM     14  C   UNL     1      25.456  24.867  28.986  0.00  0.00    +0.000 C 
ENDBRANCH   1  11
BRANCH   3  15
ATOM     15  C   UNL     1      28.541  23.756  22.152  0.00  0.00    +0.000 C 
ATOM     16  O   UNL     1      29.462  24.035  21.402  0.00  0.00    +0.000 OA
BRANCH  15  17
ATOM     17  O   UNL     1      28.838  22.990  23.227  0.00  0.00    +0.000 OA
BRANCH  17  18
ATOM     18  C   UNL     1      29.899  22.930  24.051  0.00  0.00    +0.000 C 
BRANCH  18  19
ATOM     19  C   UNL     1      30.180  23.920  25.049  0.00  0.00    +0.000 C 
ATOM     20  O   UNL     1      31.132  24.727  25.116  0.00  0.00    +0.000 OA
BRANCH  19  21
ATOM     21  O   UNL     1      29.286  24.029  26.112  0.00  0.00    +0.000 OA
BRANCH  21  22
ATOM     22  C   UNL     1      29.294  23.132  27.208  0.00  0.00    +0.000 C 
ATOM     23  C   UNL     1      29.198  23.995  28.459  0.00  0.00    +0.000 C 
ATOM     24  C   UNL     1      28.152  22.141  27.136  0.00  0.00    +0.000 C 
ATOM     25  C   UNL     1      30.642  22.424  27.295  0.00  0.00    +0.000 C 
ENDBRANCH  21  22
ENDBRANCH  19  21
ENDBRANCH  18  19
ENDBRANCH  17  18
ENDBRANCH  15  17
ENDBRANCH   3  15
TORSDOF 7
ENDMDL
MODEL 3
REMARK VINA RESULT:      -6.1     16.963     19.435
REMARK  Name = 
REMARK  7 active torsions:
REMARK  status: ('A' for Active; 'I' for Inactive)
REMARK    1  A    between atoms: C_5  and  N_6
REMARK    2  A    between atoms: C_8  and  C_9
REMARK    3  A    between atoms: C_9  and  O_11
REMARK    4  A    between atoms: O_11  and  C_12
REMARK    5  A    between atoms: C_12  and  C_13
REMARK    6  A    between atoms: C_13  and  O_15
REMARK    7  A    between atoms: O_15  and  C_16
REMARK                            x       y       z     vdW  Elec       q    Type
REMARK                         _______ _______ _______ _____ _____    ______ ____
ROOT
ATOM      1  N   UNL     1      28.381  23.592  28.756  0.00  0.00    +0.000 N 
ATOM      2  C   UNL     1      27.312  22.827  28.314  0.00  0.00    +0.000 C 
ATOM      3  C   UNL     1      25.975  23.697  28.499  0.00  0.00    +0.000 C 
ATOM      4  C   UNL     1      26.663  25.028  29.087  0.00  0.00    +0.000 C 
ATOM      5  C   UNL     1      28.048  24.942  28.659  0.00  0.00    +0.000 C 
ATOM      6  O   UNL     1      28.758  25.921  28.285  0.00  0.00    +0.000 OA
ENDROOT
BRANCH   1  11
ATOM      7  C   UNL     1      33.426  21.346  30.206  0.00  0.00    +0.000 C 
ATOM      8  C   UNL     1      32.114  21.932  29.823  0.00  0.00    +0.000 A 
ATOM      9  C   UNL     1      31.830  22.347  28.542  0.00  0.00    +0.000 A 
ATOM     10  C   UNL     1      30.599  22.887  28.222  0.00  0.00    +0.000 A 
ATOM     11  C   UNL     1      29.615  23.023  29.202  0.00  0.00    +0.000 A 
ATOM     12  C   UNL     1      29.928  22.604  30.451  0.00  0.00    +0.000 A 
ATOM     13  C   UNL     1      31.152  22.064  30.786  0.00  0.00    +0.000 A 
ATOM     14  C   UNL     1      31.450  21.615  32.191  0.00  0.00    +0.000 C 
ENDBRANCH   1  11
BRANCH   3  15
ATOM     15  C   UNL     1      25.865  24.162  27.004  0.00  0.00    +0.000 C 
ATOM     16  O   UNL     1      25.437  25.251  26.659  0.00  0.00    +0.000 OA
BRANCH  15  17
ATOM     17  O   UNL     1      26.261  23.321  26.021  0.00  0.00    +0.000 OA
BRANCH  17  18
ATOM     18  C   UNL     1      25.715  22.950  24.849  0.00  0.00    +0.000 C 
BRANCH  18  19
ATOM     19  C   UNL     1      26.168  23.433  23.579  0.00  0.00    +0.000 C 
ATOM     20  O   UNL     1      25.944  22.983  22.436  0.00  0.00    +0.000 OA
BRANCH  19  21
ATOM     21  O   UNL     1      26.977  24.569  23.579  0.00  0.00    +0.000 OA
BRANCH  21  22
ATOM     22  C   UNL     1      28.391  24.496  23.588  0.00  0.00    +0.000 C 
ATOM     23  C   UNL     1      28.844  25.262  24.824  0.00  0.00    +0.000 C 
ATOM     24  C   UNL     1      28.883  23.065  23.618  0.00  0.00    +0.000 C 
ATOM     25  C   UNL     1      28.961  25.258  22.397  0.00  0.00    +0.000 C 
ENDBRANCH  21  22
ENDBRANCH  19  21
ENDBRANCH  18  19
ENDBRANCH  17  18
ENDBRANCH  15  17
ENDBRANCH   3  15
TORSDOF 7
ENDMDL
MODEL 4
REMARK VINA RESULT:      -6.1     16.217     18.753
REMARK  Name = 
REMARK  7 active torsions:
REMARK  status: ('A' for Active; 'I' for Inactive)
REMARK    1  A    between atoms: C_5  and  N_6
REMARK    2  A    between atoms: C_8  and  C_9
REMARK    3  A    between atoms: C_9  and  O_11
REMARK    4  A    between atoms: O_11  and  C_12
REMARK    5  A    between atoms: C_12  and  C_13
REMARK    6  A    between atoms: C_13  and  O_15
REMARK    7  A    between atoms: O_15  and  C_16
REMARK                            x       y       z     vdW  Elec       q    Type
REMARK                         _______ _______ _______ _____ _____    ______ ____
ROOT
ATOM      1  N   UNL     1      28.662  23.116  30.004  0.00  0.00    +0.000 N 
ATOM      2  C   UNL     1      27.674  22.322  29.443  0.00  0.00    +0.000 C 
ATOM      3  C   UNL     1      26.260  23.038  29.705  0.00  0.00    +0.000 C 
ATOM      4  C   UNL     1      26.817  24.338  30.473  0.00  0.00    +0.000 C 
ATOM      5  C   UNL     1      28.209  24.432  30.071  0.00  0.00    +0.000 C 
ATOM      6  O   UNL     1      28.831  25.511  29.841  0.00  0.00    +0.000 OA
ENDROOT
BRANCH   1  11
ATOM      7  C   UNL     1      33.610  20.993  31.904  0.00  0.00    +0.000 C 
ATOM      8  C   UNL     1      32.319  21.544  31.414  0.00  0.00    +0.000 A 
ATOM      9  C   UNL     1      31.165  21.512  32.163  0.00  0.00    +0.000 A 
ATOM     10  C   UNL     1      29.982  22.034  31.676  0.00  0.00    +0.000 A 
ATOM     11  C   UNL     1      29.938  22.607  30.403  0.00  0.00    +0.000 A 
ATOM     12  C   UNL     1      31.092  22.621  29.695  0.00  0.00    +0.000 A 
ATOM     13  C   UNL     1      32.280  22.104  30.167  0.00  0.00    +0.000 A 
ATOM     14  C   UNL     1      33.534  22.143  29.338  0.00  0.00    +0.000 C 
ENDBRANCH   1  11
BRANCH   3  15
ATOM     15  C   UNL     1      26.127  23.679  28.278  0.00  0.00    +0.000 C 
ATOM     16  O   UNL     1      25.468  24.677  28.039  0.00  0.00    +0.000 OA
BRANCH  15  17
ATOM     17  O   UNL     1      26.772  23.108  27.235  0.00  0.00    +0.000 OA
BRANCH  17  18
ATOM     18  C   UNL     1      26.593  23.154  25.903  0.00  0.00    +0.000 C 
BRANCH  18  19
ATOM     19  C   UNL     1      27.568  23.678  24.994  0.00  0.00    +0.000 C 
ATOM     20  O   UNL     1      27.545  24.740  24.336  0.00  0.00    +0.000 OA
BRANCH  19  21
ATOM     21  O   UNL     1      28.721  22.923  24.789  0.00  0.00    +0.000 OA
BRANCH  21  22
ATOM     22  C   UNL     1      29.877  23.066  25.594  0.00  0.00    +0.000 C 
ATOM     23  C   UNL     1      31.066  22.952  24.648  0.00  0.00    +0.000 C 
ATOM     24  C   UNL     1      29.891  24.385  26.336  0.00  0.00    +0.000 C 
ATOM     25  C   UNL     1      29.996  21.886  26.552  0.00  0.00    +0.000 C 
ENDBRANCH  21  22
ENDBRANCH  19  21
ENDBRANCH  18  19
ENDBRANCH  17  18
ENDBRANCH  15  17
ENDBRANCH   3  15
TORSDOF 7
ENDMDL
MODEL 5
REMARK VINA RESULT:      -6.0      3.301      4.964
REMARK  Name = 
REMARK  7 active torsions:
REMARK  status: ('A' for Active; 'I' for Inactive)
REMARK    1  A    between atoms: C_5  and  N_6
REMARK    2  A    between atoms: C_8  and  C_9
REMARK    3  A    between atoms: C_9  and  O_11
REMARK    4  A    between atoms: O_11  and  C_12
REMARK    5  A    between atoms: C_12  and  C_13
REMARK    6  A    between atoms: C_13  and  O_15
REMARK    7  A    between atoms: O_15  and  C_16
REMARK                            x       y       z     vdW  Elec       q    Type
REMARK                         _______ _______ _______ _____ _____    ______ ____
ROOT
ATOM      1  N   UNL     1      17.469  10.804  36.402  0.00  0.00    +0.000 N 
ATOM      2  C   UNL     1      17.430   9.557  37.008  0.00  0.00    +0.000 C 
ATOM      3  C   UNL     1      18.699   9.445  37.985  0.00  0.00    +0.000 C 
ATOM      4  C   UNL     1      19.304  10.913  37.721  0.00  0.00    +0.000 C 
ATOM      5  C   UNL     1      18.184  11.684  37.213  0.00  0.00    +0.000 C 
ATOM      6  O   UNL     1      17.953  12.899  37.482  0.00  0.00    +0.000 OA
ENDROOT
BRANCH   1  11
ATOM      7  C   UNL     1      15.130  11.691  31.269  0.00  0.00    +0.000 C 
ATOM      8  C   UNL     1      15.743  11.455  32.604  0.00  0.00    +0.000 A 
ATOM      9  C   UNL     1      16.756  10.547  32.808  0.00  0.00    +0.000 A 
ATOM     10  C   UNL     1      17.302  10.354  34.062  0.00  0.00    +0.000 A 
ATOM     11  C   UNL     1      16.830  11.084  35.154  0.00  0.00    +0.000 A 
ATOM     12  C   UNL     1      15.832  11.969  34.917  0.00  0.00    +0.000 A 
ATOM     13  C   UNL     1      15.277  12.173  33.671  0.00  0.00    +0.000 A 
ATOM     14  C   UNL     1      14.169  13.168  33.462  0.00  0.00    +0.000 C 
ENDBRANCH   1  11
BRANCH   3  15
ATOM     15  C   UNL     1      17.925   9.774  39.310  0.00  0.00    +0.000 C 
ATOM     16  O   UNL     1      16.709   9.766  39.408  0.00  0.00    +0.000 OA
BRANCH  15  17
ATOM     17  O   UNL     1      18.627  10.087  40.423  0.00  0.00    +0.000 OA
BRANCH  17  18
ATOM     18  C   UNL     1      19.089   9.361  41.457  0.00  0.00    +0.000 C 
BRANCH  18  19
ATOM     19  C   UNL     1      19.317   7.949  41.389  0.00  0.00    +0.000 C 
ATOM     20  O   UNL     1      19.893   7.281  40.504  0.00  0.00    +0.000 OA
BRANCH  19  21
ATOM     21  O   UNL     1      18.843   7.174  42.447  0.00  0.00    +0.000 OA
BRANCH  21  22
ATOM     22  C   UNL     1      17.538   6.623  42.462  0.00  0.00    +0.000 C 
ATOM     23  C   UNL     1      17.702   5.164  42.867  0.00  0.00    +0.000 C 
ATOM     24  C   UNL     1      16.625   7.359  43.418  0.00  0.00    +0.000 C 
ATOM     25  C   UNL     1      16.965   6.599  41.049  0.00  0.00    +0.000 C 
ENDBRANCH  21  22
ENDBRANCH  19  21
ENDBRANCH  18  19
ENDBRANCH  17  18
ENDBRANCH  15  17
ENDBRANCH   3  15
TORSDOF 7
ENDMDL
MODEL 6
REMARK VINA RESULT:      -6.0     17.863     20.648
REMARK  Name = 
REMARK  7 active torsions:
REMARK  status: ('A' for Active; 'I' for Inactive)
REMARK    1  A    between atoms: C_5  and  N_6
REMARK    2  A    between atoms: C_8  and  C_9
REMARK    3  A    between atoms: C_9  and  O_11
REMARK    4  A    between atoms: O_11  and  C_12
REMARK    5  A    between atoms: C_12  and  C_13
REMARK    6  A    between atoms: C_13  and  O_15
REMARK    7  A    between atoms: O_15  and  C_16
REMARK                            x       y       z     vdW  Elec       q    Type
REMARK                         _______ _______ _______ _____ _____    ______ ____
ROOT
ATOM      1  N   UNL     1      30.918  22.921  26.762  0.00  0.00    +0.000 N 
ATOM      2  C   UNL     1      31.828  23.762  26.138  0.00  0.00    +0.000 C 
ATOM      3  C   UNL     1      31.878  23.367  24.583  0.00  0.00    +0.000 C 
ATOM      4  C   UNL     1      30.777  22.193  24.624  0.00  0.00    +0.000 C 
ATOM      5  C   UNL     1      29.999  22.464  25.819  0.00  0.00    +0.000 C 
ATOM      6  O   UNL     1      28.748  22.301  25.928  0.00  0.00    +0.000 OA
ENDROOT
BRANCH   1  11
ATOM      7  C   UNL     1      30.753  21.925  32.381  0.00  0.00    +0.000 C 
ATOM      8  C   UNL     1      30.791  22.186  30.918  0.00  0.00    +0.000 A 
ATOM      9  C   UNL     1      29.762  22.806  30.246  0.00  0.00    +0.000 A 
ATOM     10  C   UNL     1      29.831  23.034  28.886  0.00  0.00    +0.000 A 
ATOM     11  C   UNL     1      30.956  22.633  28.162  0.00  0.00    +0.000 A 
ATOM     12  C   UNL     1      31.949  22.026  28.854  0.00  0.00    +0.000 A 
ATOM     13  C   UNL     1      31.894  21.792  30.212  0.00  0.00    +0.000 A 
ATOM     14  C   UNL     1      33.025  21.112  30.934  0.00  0.00    +0.000 C 
ENDBRANCH   1  11
BRANCH   3  15
ATOM     15  C   UNL     1      30.936  24.519  24.083  0.00  0.00    +0.000 C 
ATOM     16  O   UNL     1      30.867  25.618  24.608  0.00  0.00    +0.000 OA
BRANCH  15  17
ATOM     17  O   UNL     1      30.144  24.303  23.008  0.00  0.00    +0.000 OA
BRANCH  17  18
ATOM     18  C   UNL     1      28.987  24.847  22.592  0.00  0.00    +0.000 C 
BRANCH  18  19
ATOM     19  C   UNL     1      27.699  24.334  22.954  0.00  0.00    +0.000 C 
ATOM     20  O   UNL     1      27.330  23.148  23.090  0.00  0.00    +0.000 OA
BRANCH  19  21
ATOM     21  O   UNL     1      26.687  25.261  23.197  0.00  0.00    +0.000 OA
BRANCH  21  22
ATOM     22  C   UNL     1      26.424  25.780  24.488  0.00  0.00    +0.000 C 
ATOM     23  C   UNL     1      25.104  25.162  24.930  0.00  0.00    +0.000 C 
ATOM     24  C   UNL     1      27.535  25.457  25.464  0.00  0.00    +0.000 C 
ATOM     25  C   UNL     1      26.172  27.281  24.407  0.00  0.00    +0.000 C 
ENDBRANCH  21  22
ENDBRANCH  19  21
ENDBRANCH  18  19
ENDBRANCH  17  18
ENDBRANCH  15  17
ENDBRANCH   3  15
TORSDOF 7
ENDMDL
MODEL 7
REMARK VINA RESULT:      -6.0     21.111     22.398
REMARK  Name = 
REMARK  7 active torsions:
REMARK  status: ('A' for Active; 'I' for Inactive)
REMARK    1  A    between atoms: C_5  and  N_6
REMARK    2  A    between atoms: C_8  and  C_9
REMARK    3  A    between atoms: C_9  and  O_11
REMARK    4  A    between atoms: O_11  and  C_12
REMARK    5  A    between atoms: C_12  and  C_13
REMARK    6  A    between atoms: C_13  and  O_15
REMARK    7  A    between atoms: O_15  and  C_16
REMARK                            x       y       z     vdW  Elec       q    Type
REMARK                         _______ _______ _______ _____ _____    ______ ____
ROOT
ATOM      1  N   UNL     1      28.790  26.370  21.472  0.00  0.00    +0.000 N 
ATOM      2  C   UNL     1      28.118  26.778  22.614  0.00  0.00    +0.000 C 
ATOM      3  C   UNL     1      27.092  25.613  23.024  0.00  0.00    +0.000 C 
ATOM      4  C   UNL     1      27.462  24.577  21.849  0.00  0.00    +0.000 C 
ATOM      5  C   UNL     1      28.788  24.978  21.413  0.00  0.00    +0.000 C 
ATOM      6  O   UNL     1      29.712  24.185  21.064  0.00  0.00    +0.000 OA
ENDROOT
BRANCH   1  11
ATOM      7  C   UNL     1      31.107  30.286  18.022  0.00  0.00    +0.000 C 
ATOM      8  C   UNL     1      30.503  29.270  18.925  0.00  0.00    +0.000 A 
ATOM      9  C   UNL     1      29.905  29.599  20.120  0.00  0.00    +0.000 A 
ATOM     10  C   UNL     1      29.353  28.629  20.934  0.00  0.00    +0.000 A 
ATOM     11  C   UNL     1      29.393  27.286  20.554  0.00  0.00    +0.000 A 
ATOM     12  C   UNL     1      29.988  26.999  19.371  0.00  0.00    +0.000 A 
ATOM     13  C   UNL     1      30.544  27.956  18.548  0.00  0.00    +0.000 A 
ATOM     14  C   UNL     1      31.195  27.583  17.245  0.00  0.00    +0.000 C 
ENDBRANCH   1  11
BRANCH   3  15
ATOM     15  C   UNL     1      27.989  24.983  24.148  0.00  0.00    +0.000 C 
ATOM     16  O   UNL     1      28.885  25.582  24.719  0.00  0.00    +0.000 OA
BRANCH  15  17
ATOM     17  O   UNL     1      27.775  23.701  24.521  0.00  0.00    +0.000 OA
BRANCH  17  18
ATOM     18  C   UNL     1      27.320  23.134  25.653  0.00  0.00    +0.000 C 
BRANCH  18  19
ATOM     19  C   UNL     1      28.150  22.383  26.548  0.00  0.00    +0.000 C 
ATOM     20  O   UNL     1      27.840  21.788  27.602  0.00  0.00    +0.000 OA
BRANCH  19  21
ATOM     21  O   UNL     1      29.503  22.278  26.229  0.00  0.00    +0.000 OA
BRANCH  21  22
ATOM     22  C   UNL     1      30.503  23.022  26.901  0.00  0.00    +0.000 C 
ATOM     23  C   UNL     1      31.480  23.481  25.826  0.00  0.00    +0.000 C 
ATOM     24  C   UNL     1      29.922  24.200  27.653  0.00  0.00    +0.000 C 
ATOM     25  C   UNL     1      31.302  22.109  27.824  0.00  0.00    +0.000 C 
ENDBRANCH  21  22
ENDBRANCH  19  21
ENDBRANCH  18  19
ENDBRANCH  17  18
ENDBRANCH  15  17
ENDBRANCH   3  15
TORSDOF 7
ENDMDL
MODEL 8
REMARK VINA RESULT:      -5.9     17.133     19.913
REMARK  Name = 
REMARK  7 active torsions:
REMARK  status: ('A' for Active; 'I' for Inactive)
REMARK    1  A    between atoms: C_5  and  N_6
REMARK    2  A    between atoms: C_8  and  C_9
REMARK    3  A    between atoms: C_9  and  O_11
REMARK    4  A    between atoms: O_11  and  C_12
REMARK    5  A    between atoms: C_12  and  C_13
REMARK    6  A    between atoms: C_13  and  O_15
REMARK    7  A    between atoms: O_15  and  C_16
REMARK                            x       y       z     vdW  Elec       q    Type
REMARK                         _______ _______ _______ _____ _____    ______ ____
ROOT
ATOM      1  N   UNL     1      33.767   2.186  34.924  0.00  0.00    +0.000 N 
ATOM      2  C   UNL     1      33.810   1.160  35.856  0.00  0.00    +0.000 C 
ATOM      3  C   UNL     1      32.945  -0.064  35.280  0.00  0.00    +0.000 C 
ATOM      4  C   UNL     1      32.528   0.609  33.878  0.00  0.00    +0.000 C 
ATOM      5  C   UNL     1      33.518   1.648  33.663  0.00  0.00    +0.000 C 
ATOM      6  O   UNL     1      34.017   1.960  32.542  0.00  0.00    +0.000 OA
ENDROOT
BRANCH   1  11
ATOM      7  C   UNL     1      34.421   7.752  36.018  0.00  0.00    +0.000 C 
ATOM      8  C   UNL     1      34.247   6.304  35.729  0.00  0.00    +0.000 A 
ATOM      9  C   UNL     1      33.453   5.840  34.705  0.00  0.00    +0.000 A 
ATOM     10  C   UNL     1      33.314   4.487  34.465  0.00  0.00    +0.000 A 
ATOM     11  C   UNL     1      33.983   3.558  35.265  0.00  0.00    +0.000 A 
ATOM     12  C   UNL     1      34.755   4.050  36.263  0.00  0.00    +0.000 A 
ATOM     13  C   UNL     1      34.903   5.398  36.516  0.00  0.00    +0.000 A 
ATOM     14  C   UNL     1      35.774   5.892  37.639  0.00  0.00    +0.000 C 
ENDBRANCH   1  11
BRANCH   3  15
ATOM     15  C   UNL     1      34.163  -0.902  34.755  0.00  0.00    +0.000 C 
ATOM     16  O   UNL     1      35.240  -0.967  35.323  0.00  0.00    +0.000 OA
BRANCH  15  17
ATOM     17  O   UNL     1      34.035  -1.603  33.605  0.00  0.00    +0.000 OA
BRANCH  17  18
ATOM     18  C   UNL     1      33.579  -2.836  33.322  0.00  0.00    +0.000 C 
BRANCH  18  19
ATOM     19  C   UNL     1      32.966  -3.693  34.294  0.00  0.00    +0.000 C 
ATOM     20  O   UNL     1      31.857  -3.583  34.857  0.00  0.00    +0.000 OA
BRANCH  19  21
ATOM     21  O   UNL     1      33.681  -4.822  34.691  0.00  0.00    +0.000 OA
BRANCH  21  22
ATOM     22  C   UNL     1      33.763  -5.989  33.894  0.00  0.00    +0.000 C 
ATOM     23  C   UNL     1      33.843  -7.159  34.867  0.00  0.00    +0.000 C 
ATOM     24  C   UNL     1      32.573  -6.127  32.968  0.00  0.00    +0.000 C 
ATOM     25  C   UNL     1      35.077  -6.004  33.120  0.00  0.00    +0.000 C 
ENDBRANCH  21  22
ENDBRANCH  19  21
ENDBRANCH  18  19
ENDBRANCH  17  18
ENDBRANCH  15  17
ENDBRANCH   3  15
TORSDOF 7
ENDMDL
MODEL 9
REMARK VINA RESULT:      -5.9     19.856     22.355
REMARK  Name = 
REMARK  7 active torsions:
REMARK  status: ('A' for Active; 'I' for Inactive)
REMARK    1  A    between atoms: C_5  and  N_6
REMARK    2  A    between atoms: C_8  and  C_9
REMARK    3  A    between atoms: C_9  and  O_11
REMARK    4  A    between atoms: O_11  and  C_12
REMARK    5  A    between atoms: C_12  and  C_13
REMARK    6  A    between atoms: C_13  and  O_15
REMARK    7  A    between atoms: O_15  and  C_16
REMARK                            x       y       z     vdW  Elec       q    Type
REMARK                         _______ _______ _______ _____ _____    ______ ____
ROOT
ATOM      1  N   UNL     1      31.546  23.996  25.920  0.00  0.00    +0.000 N 
ATOM      2  C   UNL     1      30.859  23.246  24.977  0.00  0.00    +0.000 C 
ATOM      3  C   UNL     1      30.175  22.008  25.736  0.00  0.00    +0.000 C 
ATOM      4  C   UNL     1      30.667  22.370  27.225  0.00  0.00    +0.000 C 
ATOM      5  C   UNL     1      30.973  23.789  27.173  0.00  0.00    +0.000 C 
ATOM      6  O   UNL     1      30.747  24.619  28.102  0.00  0.00    +0.000 OA
ENDROOT
BRANCH   1  11
ATOM      7  C   UNL     1      35.731  27.683  24.699  0.00  0.00    +0.000 C 
ATOM      8  C   UNL     1      34.638  26.727  25.020  0.00  0.00    +0.000 A 
ATOM      9  C   UNL     1      33.439  27.124  25.567  0.00  0.00    +0.000 A 
ATOM     10  C   UNL     1      32.445  26.208  25.851  0.00  0.00    +0.000 A 
ATOM     11  C   UNL     1      32.642  24.852  25.587  0.00  0.00    +0.000 A 
ATOM     12  C   UNL     1      33.833  24.497  25.048  0.00  0.00    +0.000 A 
ATOM     13  C   UNL     1      34.835  25.399  24.759  0.00  0.00    +0.000 A 
ATOM     14  C   UNL     1      36.141  24.953  24.162  0.00  0.00    +0.000 C 
ENDBRANCH   1  11
BRANCH   3  15
ATOM     15  C   UNL     1      28.741  22.637  25.831  0.00  0.00    +0.000 C 
ATOM     16  O   UNL     1      27.943  22.383  26.718  0.00  0.00    +0.000 OA
BRANCH  15  17
ATOM     17  O   UNL     1      28.342  23.516  24.883  0.00  0.00    +0.000 OA
BRANCH  17  18
ATOM     18  C   UNL     1      27.263  23.582  24.083  0.00  0.00    +0.000 C 
BRANCH  18  19
ATOM     19  C   UNL     1      27.344  23.746  22.662  0.00  0.00    +0.000 C 
ATOM     20  O   UNL     1      26.496  23.476  21.785  0.00  0.00    +0.000 OA
BRANCH  19  21
ATOM     21  O   UNL     1      28.523  24.281  22.146  0.00  0.00    +0.000 OA
BRANCH  21  22
ATOM     22  C   UNL     1      28.729  25.675  22.006  0.00  0.00    +0.000 C 
ATOM     23  C   UNL     1      29.415  25.867  20.659  0.00  0.00    +0.000 C 
ATOM     24  C   UNL     1      27.430  26.448  22.075  0.00  0.00    +0.000 C 
ATOM     25  C   UNL     1      29.725  26.164  23.051  0.00  0.00    +0.000 C 
ENDBRANCH  21  22
ENDBRANCH  19  21
ENDBRANCH  18  19
ENDBRANCH  17  18
ENDBRANCH  15  17
ENDBRANCH   3  15
TORSDOF 7
ENDMDL
MODEL 10
REMARK VINA RESULT:      -5.9     21.899     23.862
REMARK  Name = 
REMARK  7 active torsions:
REMARK  status: ('A' for Active; 'I' for Inactive)
REMARK    1  A    between atoms: C_5  and  N_6
REMARK    2  A    between atoms: C_8  and  C_9
REMARK    3  A    between atoms: C_9  and  O_11
REMARK    4  A    between atoms: O_11  and  C_12
REMARK    5  A    between atoms: C_12  and  C_13
REMARK    6  A    between atoms: C_13  and  O_15
REMARK    7  A    between atoms: O_15  and  C_16
REMARK                            x       y       z     vdW  Elec       q    Type
REMARK                         _______ _______ _______ _____ _____    ______ ____
ROOT
ATOM      1  N   UNL     1      28.467  25.067  23.706  0.00  0.00    +0.000 N 
ATOM      2  C   UNL     1      28.129  24.546  22.466  0.00  0.00    +0.000 C 
ATOM      3  C   UNL     1      27.769  25.776  21.498  0.00  0.00    +0.000 C 
ATOM      4  C   UNL     1      28.047  26.964  22.548  0.00  0.00    +0.000 C 
ATOM      5  C   UNL     1      28.922  26.374  23.545  0.00  0.00    +0.000 C 
ATOM      6  O   UNL     1      29.883  26.969  24.116  0.00  0.00    +0.000 OA
ENDROOT
BRANCH   1  11
ATOM      7  C   UNL     1      27.753  22.196  28.590  0.00  0.00    +0.000 C 
ATOM      8  C   UNL     1      27.933  22.946  27.318  0.00  0.00    +0.000 A 
ATOM      9  C   UNL     1      26.949  23.740  26.777  0.00  0.00    +0.000 A 
ATOM     10  C   UNL     1      27.151  24.423  25.593  0.00  0.00    +0.000 A 
ATOM     11  C   UNL     1      28.369  24.316  24.919  0.00  0.00    +0.000 A 
ATOM     12  C   UNL     1      29.316  23.526  25.481  0.00  0.00    +0.000 A 
ATOM     13  C   UNL     1      29.128  22.838  26.662  0.00  0.00    +0.000 A 
ATOM     14  C   UNL     1      30.212  21.972  27.242  0.00  0.00    +0.000 C 
ENDBRANCH   1  11
BRANCH   3  15
ATOM     15  C   UNL     1      29.154  25.822  20.760  0.00  0.00    +0.000 C 
ATOM     16  O   UNL     1      29.785  24.831  20.433  0.00  0.00    +0.000 OA
BRANCH  15  17
ATOM     17  O   UNL     1      29.699  27.022  20.457  0.00  0.00    +0.000 OA
BRANCH  17  18
ATOM     18  C   UNL     1      29.718  27.771  19.340  0.00  0.00    +0.000 C 
BRANCH  18  19
ATOM     19  C   UNL     1      30.525  27.463  18.197  0.00  0.00    +0.000 C 
ATOM     20  O   UNL     1      31.735  27.157  18.141  0.00  0.00    +0.000 OA
BRANCH  19  21
ATOM     21  O   UNL     1      29.905  27.499  16.949  0.00  0.00    +0.000 OA
BRANCH  21  22
ATOM     22  C   UNL     1      29.749  28.697  16.210  0.00  0.00    +0.000 C 
ATOM     23  C   UNL     1      28.279  29.080  16.334  0.00  0.00    +0.000 C 
ATOM     24  C   UNL     1      30.647  29.800  16.726  0.00  0.00    +0.000 C 
ATOM     25  C   UNL     1      29.984  28.432  14.727  0.00  0.00    +0.000 C 
ENDBRANCH  21  22
ENDBRANCH  19  21
ENDBRANCH  18  19
ENDBRANCH  17  18
ENDBRANCH  15  17
ENDBRANCH   3  15
TORSDOF 7
ENDMDL
