MODEL 1
REMARK VINA RESULT:      -8.8      0.000      0.000
REMARK  Name = 
REMARK  2 active torsions:
REMARK  status: ('A' for Active; 'I' for Inactive)
REMARK    1  A    between atoms: C_5  and  C_6
REMARK    2  A    between atoms: C_19  and  C_20
REMARK                            x       y       z     vdW  Elec       q    Type
REMARK                         _______ _______ _______ _____ _____    ______ ____
ROOT
ATOM      1  C   UNL     1      15.179  11.847  36.022  0.00  0.00    +0.000 A 
ATOM      2  N   UNL     1      16.484  11.701  36.317  0.00  0.00    +0.000 NA
ATOM      3  N   UNL     1      16.926  11.183  37.449  0.00  0.00    +0.000 N 
ATOM      4  C   UNL     1      18.364  11.065  37.681  0.00  0.00    +0.000 C 
ATOM      5  C   UNL     1      16.060  10.765  38.386  0.00  0.00    +0.000 A 
ATOM      6  O   UNL     1      16.508  10.279  39.446  0.00  0.00    +0.000 OA
ATOM      7  C   UNL     1      14.708  10.885  38.148  0.00  0.00    +0.000 A 
ATOM      8  C   UNL     1      13.818  10.453  39.115  0.00  0.00    +0.000 A 
ATOM      9  C   UNL     1      12.480  10.584  38.853  0.00  0.00    +0.000 A 
ATOM     10  C   UNL     1      12.037  11.128  37.663  0.00  0.00    +0.000 A 
ATOM     11  C   UNL     1      12.918  11.560  36.695  0.00  0.00    +0.000 A 
ATOM     12  C   UNL     1      14.264  11.428  36.961  0.00  0.00    +0.000 A 
ENDROOT
BRANCH   1  17
ATOM     13  C   UNL     1      13.721  13.989  30.883  0.00  0.00    +0.000 C 
ATOM     14  C   UNL     1      14.065  13.485  32.233  0.00  0.00    +0.000 A 
ATOM     15  C   UNL     1      13.671  14.087  33.401  0.00  0.00    +0.000 A 
ATOM     16  C   UNL     1      14.018  13.577  34.645  0.00  0.00    +0.000 A 
ATOM     17  C   UNL     1      14.782  12.430  34.744  0.00  0.00    +0.000 A 
ATOM     18  C   UNL     1      15.168  11.843  33.558  0.00  0.00    +0.000 A 
ATOM     19  C   UNL     1      14.829  12.340  32.316  0.00  0.00    +0.000 A 
BRANCH  19  20
ATOM     20  C   UNL     1      15.274  11.660  31.075  0.00  0.00    +0.000 C 
ATOM     21  O   UNL     1      15.980  10.519  31.425  0.00  0.00    +0.000 OA
ENDBRANCH  19  20
ENDBRANCH   1  17
TORSDOF 2
ENDMDL
MODEL 2
REMARK VINA RESULT:      -8.4      1.561      2.108
REMARK  Name = 
REMARK  2 active torsions:
REMARK  status: ('A' for Active; 'I' for Inactive)
REMARK    1  A    between atoms: C_5  and  C_6
REMARK    2  A    between atoms: C_19  and  C_20
REMARK                            x       y       z     vdW  Elec       q    Type
REMARK                         _______ _______ _______ _____ _____    ______ ____
ROOT
ATOM      1  C   UNL     1      15.572  11.582  35.923  0.00  0.00    +0.000 A 
ATOM      2  N   UNL     1      16.887  11.379  36.123  0.00  0.00    +0.000 NA
ATOM      3  N   UNL     1      17.393  10.911  37.249  0.00  0.00    +0.000 N 
ATOM      4  C   UNL     1      18.838  10.722  37.374  0.00  0.00    +0.000 C 
ATOM      5  C   UNL     1      16.587  10.608  38.280  0.00  0.00    +0.000 A 
ATOM      6  O   UNL     1      17.096  10.167  39.332  0.00  0.00    +0.000 OA
ATOM      7  C   UNL     1      15.229  10.792  38.142  0.00  0.00    +0.000 A 
ATOM      8  C   UNL     1      14.401  10.479  39.206  0.00  0.00    +0.000 A 
ATOM      9  C   UNL     1      13.055  10.672  39.043  0.00  0.00    +0.000 A 
ATOM     10  C   UNL     1      12.544  11.162  37.857  0.00  0.00    +0.000 A 
ATOM     11  C   UNL     1      13.362  11.475  36.793  0.00  0.00    +0.000 A 
ATOM     12  C   UNL     1      14.717  11.281  36.959  0.00  0.00    +0.000 A 
ENDROOT
BRANCH   1  17
ATOM     13  C   UNL     1      13.631  13.802  30.981  0.00  0.00    +0.000 C 
ATOM     14  C   UNL     1      14.154  13.182  32.220  0.00  0.00    +0.000 A 
ATOM     15  C   UNL     1      14.846  11.998  32.254  0.00  0.00    +0.000 A 
ATOM     16  C   UNL     1      15.317  11.455  33.442  0.00  0.00    +0.000 A 
ATOM     17  C   UNL     1      15.101  12.102  34.643  0.00  0.00    +0.000 A 
ATOM     18  C   UNL     1      14.404  13.291  34.585  0.00  0.00    +0.000 A 
ATOM     19  C   UNL     1      13.930  13.840  33.412  0.00  0.00    +0.000 A 
BRANCH  19  20
ATOM     20  C   UNL     1      13.187  15.123  33.416  0.00  0.00    +0.000 C 
ATOM     21  O   UNL     1      12.626  15.306  34.671  0.00  0.00    +0.000 OA
ENDBRANCH  19  20
ENDBRANCH   1  17
TORSDOF 2
ENDMDL
MODEL 3
REMARK VINA RESULT:      -7.0      3.125      6.453
REMARK  Name = 
REMARK  2 active torsions:
REMARK  status: ('A' for Active; 'I' for Inactive)
REMARK    1  A    between atoms: C_5  and  C_6
REMARK    2  A    between atoms: C_19  and  C_20
REMARK                            x       y       z     vdW  Elec       q    Type
REMARK                         _______ _______ _______ _____ _____    ______ ____
ROOT
ATOM      1  C   UNL     1      17.590  10.811  37.874  0.00  0.00    +0.000 A 
ATOM      2  N   UNL     1      16.809  11.481  37.007  0.00  0.00    +0.000 NA
ATOM      3  N   UNL     1      15.505  11.620  37.153  0.00  0.00    +0.000 N 
ATOM      4  C   UNL     1      14.738  12.367  36.157  0.00  0.00    +0.000 C 
ATOM      5  C   UNL     1      14.879  11.078  38.211  0.00  0.00    +0.000 A 
ATOM      6  O   UNL     1      13.644  11.227  38.321  0.00  0.00    +0.000 OA
ATOM      7  C   UNL     1      15.620  10.378  39.138  0.00  0.00    +0.000 A 
ATOM      8  C   UNL     1      14.973   9.822  40.227  0.00  0.00    +0.000 A 
ATOM      9  C   UNL     1      15.733   9.131  41.134  0.00  0.00    +0.000 A 
ATOM     10  C   UNL     1      17.097   8.997  40.965  0.00  0.00    +0.000 A 
ATOM     11  C   UNL     1      17.748   9.549  39.883  0.00  0.00    +0.000 A 
ATOM     12  C   UNL     1      16.982  10.243  38.970  0.00  0.00    +0.000 A 
ENDROOT
BRANCH   1  17
ATOM     13  C   UNL     1      23.282  10.576  37.058  0.00  0.00    +0.000 C 
ATOM     14  C   UNL     1      21.811  10.588  37.228  0.00  0.00    +0.000 A 
ATOM     15  C   UNL     1      20.957   9.725  36.590  0.00  0.00    +0.000 A 
ATOM     16  C   UNL     1      19.582   9.774  36.781  0.00  0.00    +0.000 A 
ATOM     17  C   UNL     1      19.027  10.709  37.633  0.00  0.00    +0.000 A 
ATOM     18  C   UNL     1      19.904  11.567  38.263  0.00  0.00    +0.000 A 
ATOM     19  C   UNL     1      21.270  11.528  38.081  0.00  0.00    +0.000 A 
BRANCH  19  20
ATOM     20  C   UNL     1      22.162  12.478  38.790  0.00  0.00    +0.000 C 
ATOM     21  O   UNL     1      21.749  13.771  38.502  0.00  0.00    +0.000 OA
ENDBRANCH  19  20
ENDBRANCH   1  17
TORSDOF 2
ENDMDL
MODEL 4
REMARK VINA RESULT:      -6.8      3.317      4.917
REMARK  Name = 
REMARK  2 active torsions:
REMARK  status: ('A' for Active; 'I' for Inactive)
REMARK    1  A    between atoms: C_5  and  C_6
REMARK    2  A    between atoms: C_19  and  C_20
REMARK                            x       y       z     vdW  Elec       q    Type
REMARK                         _______ _______ _______ _____ _____    ______ ____
ROOT
ATOM      1  C   UNL     1      17.318  10.421  38.315  0.00  0.00    +0.000 A 
ATOM      2  N   UNL     1      18.478  10.403  37.634  0.00  0.00    +0.000 NA
ATOM      3  N   UNL     1      19.565   9.783  38.055  0.00  0.00    +0.000 N 
ATOM      4  C   UNL     1      20.782   9.818  37.245  0.00  0.00    +0.000 C 
ATOM      5  C   UNL     1      19.558   9.121  39.224  0.00  0.00    +0.000 A 
ATOM      6  O   UNL     1      20.602   8.544  39.595  0.00  0.00    +0.000 OA
ATOM      7  C   UNL     1      18.401   9.100  39.972  0.00  0.00    +0.000 A 
ATOM      8  C   UNL     1      18.397   8.417  41.175  0.00  0.00    +0.000 A 
ATOM      9  C   UNL     1      17.234   8.411  41.900  0.00  0.00    +0.000 A 
ATOM     10  C   UNL     1      16.107   9.065  41.442  0.00  0.00    +0.000 A 
ATOM     11  C   UNL     1      16.104   9.747  40.244  0.00  0.00    +0.000 A 
ATOM     12  C   UNL     1      17.275   9.752  39.517  0.00  0.00    +0.000 A 
ENDROOT
BRANCH   1  17
ATOM     13  C   UNL     1      12.644  13.090  36.278  0.00  0.00    +0.000 C 
ATOM     14  C   UNL     1      13.882  12.444  36.770  0.00  0.00    +0.000 A 
ATOM     15  C   UNL     1      15.148  12.849  36.428  0.00  0.00    +0.000 A 
ATOM     16  C   UNL     1      16.281  12.211  36.915  0.00  0.00    +0.000 A 
ATOM     17  C   UNL     1      16.165  11.132  37.771  0.00  0.00    +0.000 A 
ATOM     18  C   UNL     1      14.884  10.742  38.100  0.00  0.00    +0.000 A 
ATOM     19  C   UNL     1      13.751  11.368  37.623  0.00  0.00    +0.000 A 
BRANCH  19  20
ATOM     20  C   UNL     1      12.399  10.901  38.015  0.00  0.00    +0.000 C 
ATOM     21  O   UNL     1      12.526  10.024  39.082  0.00  0.00    +0.000 OA
ENDBRANCH  19  20
ENDBRANCH   1  17
TORSDOF 2
ENDMDL
MODEL 5
REMARK VINA RESULT:      -6.6     21.435     23.175
REMARK  Name = 
REMARK  2 active torsions:
REMARK  status: ('A' for Active; 'I' for Inactive)
REMARK    1  A    between atoms: C_5  and  C_6
REMARK    2  A    between atoms: C_19  and  C_20
REMARK                            x       y       z     vdW  Elec       q    Type
REMARK                         _______ _______ _______ _____ _____    ______ ____
ROOT
ATOM      1  C   UNL     1      19.293  -9.072  27.128  0.00  0.00    +0.000 A 
ATOM      2  N   UNL     1      20.375  -9.760  26.721  0.00  0.00    +0.000 NA
ATOM      3  N   UNL     1      21.373  -9.224  26.043  0.00  0.00    +0.000 N 
ATOM      4  C   UNL     1      22.509 -10.053  25.644  0.00  0.00    +0.000 C 
ATOM      5  C   UNL     1      21.347  -7.921  25.717  0.00  0.00    +0.000 A 
ATOM      6  O   UNL     1      22.305  -7.442  25.074  0.00  0.00    +0.000 OA
ATOM      7  C   UNL     1      20.267  -7.157  26.103  0.00  0.00    +0.000 A 
ATOM      8  C   UNL     1      20.244  -5.816  25.766  0.00  0.00    +0.000 A 
ATOM      9  C   UNL     1      19.159  -5.079  26.161  0.00  0.00    +0.000 A 
ATOM     10  C   UNL     1      18.125  -5.658  26.872  0.00  0.00    +0.000 A 
ATOM     11  C   UNL     1      18.142  -6.994  27.211  0.00  0.00    +0.000 A 
ATOM     12  C   UNL     1      19.234  -7.734  26.811  0.00  0.00    +0.000 A 
ENDROOT
BRANCH   1  17
ATOM     13  C   UNL     1      15.226 -11.674  30.260  0.00  0.00    +0.000 C 
ATOM     14  C   UNL     1      16.244 -11.025  29.402  0.00  0.00    +0.000 A 
ATOM     15  C   UNL     1      16.233 -11.067  28.031  0.00  0.00    +0.000 A 
ATOM     16  C   UNL     1      17.210 -10.442  27.267  0.00  0.00    +0.000 A 
ATOM     17  C   UNL     1      18.238  -9.748  27.876  0.00  0.00    +0.000 A 
ATOM     18  C   UNL     1      18.230  -9.719  29.255  0.00  0.00    +0.000 A 
ATOM     19  C   UNL     1      17.265 -10.336  30.024  0.00  0.00    +0.000 A 
BRANCH  19  20
ATOM     20  C   UNL     1      17.311 -10.268  31.505  0.00  0.00    +0.000 C 
ATOM     21  O   UNL     1      18.631 -10.390  31.913  0.00  0.00    +0.000 OA
ENDBRANCH  19  20
ENDBRANCH   1  17
TORSDOF 2
ENDMDL
MODEL 6
REMARK VINA RESULT:      -6.6      5.020      8.747
REMARK  Name = 
REMARK  2 active torsions:
REMARK  status: ('A' for Active; 'I' for Inactive)
REMARK    1  A    between atoms: C_5  and  C_6
REMARK    2  A    between atoms: C_19  and  C_20
REMARK                            x       y       z     vdW  Elec       q    Type
REMARK                         _______ _______ _______ _____ _____    ______ ____
ROOT
ATOM      1  C   UNL     1      21.759  11.671  38.565  0.00  0.00    +0.000 A 
ATOM      2  N   UNL     1      22.085  12.912  38.971  0.00  0.00    +0.000 NA
ATOM      3  N   UNL     1      23.176  13.546  38.585  0.00  0.00    +0.000 N 
ATOM      4  C   UNL     1      23.446  14.896  39.079  0.00  0.00    +0.000 C 
ATOM      5  C   UNL     1      24.040  12.957  37.742  0.00  0.00    +0.000 A 
ATOM      6  O   UNL     1      25.064  13.582  37.395  0.00  0.00    +0.000 OA
ATOM      7  C   UNL     1      23.767  11.685  37.287  0.00  0.00    +0.000 A 
ATOM      8  C   UNL     1      24.658  11.081  36.419  0.00  0.00    +0.000 A 
ATOM      9  C   UNL     1      24.364   9.816  35.982  0.00  0.00    +0.000 A 
ATOM     10  C   UNL     1      23.216   9.169  36.397  0.00  0.00    +0.000 A 
ATOM     11  C   UNL     1      22.323   9.765  37.262  0.00  0.00    +0.000 A 
ATOM     12  C   UNL     1      22.622  11.038  37.700  0.00  0.00    +0.000 A 
ENDROOT
BRANCH   1  17
ATOM     13  C   UNL     1      16.812   9.271  40.266  0.00  0.00    +0.000 C 
ATOM     14  C   UNL     1      18.111   9.871  39.883  0.00  0.00    +0.000 A 
ATOM     15  C   UNL     1      19.229   9.855  40.678  0.00  0.00    +0.000 A 
ATOM     16  C   UNL     1      20.426  10.432  40.276  0.00  0.00    +0.000 A 
ATOM     17  C   UNL     1      20.529  11.047  39.043  0.00  0.00    +0.000 A 
ATOM     18  C   UNL     1      19.393  11.052  38.261  0.00  0.00    +0.000 A 
ATOM     19  C   UNL     1      18.198  10.483  38.650  0.00  0.00    +0.000 A 
BRANCH  19  20
ATOM     20  C   UNL     1      17.011  10.520  37.761  0.00  0.00    +0.000 C 
ATOM     21  O   UNL     1      17.278   9.756  36.635  0.00  0.00    +0.000 OA
ENDBRANCH  19  20
ENDBRANCH   1  17
TORSDOF 2
ENDMDL
MODEL 7
REMARK VINA RESULT:      -6.6      3.829      6.978
REMARK  Name = 
REMARK  2 active torsions:
REMARK  status: ('A' for Active; 'I' for Inactive)
REMARK    1  A    between atoms: C_5  and  C_6
REMARK    2  A    between atoms: C_19  and  C_20
REMARK                            x       y       z     vdW  Elec       q    Type
REMARK                         _______ _______ _______ _____ _____    ______ ____
ROOT
ATOM      1  C   UNL     1      20.299  11.254  37.858  0.00  0.00    +0.000 A 
ATOM      2  N   UNL     1      21.024  10.262  37.310  0.00  0.00    +0.000 NA
ATOM      3  N   UNL     1      22.340  10.288  37.205  0.00  0.00    +0.000 N 
ATOM      4  C   UNL     1      23.043   9.161  36.593  0.00  0.00    +0.000 C 
ATOM      5  C   UNL     1      23.035  11.345  37.656  0.00  0.00    +0.000 A 
ATOM      6  O   UNL     1      24.279  11.340  37.542  0.00  0.00    +0.000 OA
ATOM      7  C   UNL     1      22.354  12.397  38.229  0.00  0.00    +0.000 A 
ATOM      8  C   UNL     1      23.073  13.483  38.693  0.00  0.00    +0.000 A 
ATOM      9  C   UNL     1      22.372  14.516  39.259  0.00  0.00    +0.000 A 
ATOM     10  C   UNL     1      20.995  14.470  39.361  0.00  0.00    +0.000 A 
ATOM     11  C   UNL     1      20.272  13.390  38.901  0.00  0.00    +0.000 A 
ATOM     12  C   UNL     1      20.980  12.352  38.331  0.00  0.00    +0.000 A 
ENDROOT
BRANCH   1  17
ATOM     13  C   UNL     1      14.554  10.950  38.001  0.00  0.00    +0.000 C 
ATOM     14  C   UNL     1      16.035  10.984  38.010  0.00  0.00    +0.000 A 
ATOM     15  C   UNL     1      16.816  10.210  38.829  0.00  0.00    +0.000 A 
ATOM     16  C   UNL     1      18.203  10.277  38.801  0.00  0.00    +0.000 A 
ATOM     17  C   UNL     1      18.846  11.139  37.933  0.00  0.00    +0.000 A 
ATOM     18  C   UNL     1      18.040  11.908  37.120  0.00  0.00    +0.000 A 
ATOM     19  C   UNL     1      16.662  11.850  37.139  0.00  0.00    +0.000 A 
BRANCH  19  20
ATOM     20  C   UNL     1      15.851  12.704  36.237  0.00  0.00    +0.000 C 
ATOM     21  O   UNL     1      15.848  12.134  34.972  0.00  0.00    +0.000 OA
ENDBRANCH  19  20
ENDBRANCH   1  17
TORSDOF 2
ENDMDL
MODEL 8
REMARK VINA RESULT:      -6.5     21.567     23.386
REMARK  Name = 
REMARK  2 active torsions:
REMARK  status: ('A' for Active; 'I' for Inactive)
REMARK    1  A    between atoms: C_5  and  C_6
REMARK    2  A    between atoms: C_19  and  C_20
REMARK                            x       y       z     vdW  Elec       q    Type
REMARK                         _______ _______ _______ _____ _____    ______ ____
ROOT
ATOM      1  C   UNL     1      20.676  -8.248  25.681  0.00  0.00    +0.000 A 
ATOM      2  N   UNL     1      20.342  -9.532  25.900  0.00  0.00    +0.000 NA
ATOM      3  N   UNL     1      19.216  -9.908  26.479  0.00  0.00    +0.000 N 
ATOM      4  C   UNL     1      18.939 -11.330  26.675  0.00  0.00    +0.000 C 
ATOM      5  C   UNL     1      18.325  -8.990  26.888  0.00  0.00    +0.000 A 
ATOM      6  O   UNL     1      17.269  -9.376  27.431  0.00  0.00    +0.000 OA
ATOM      7  C   UNL     1      18.605  -7.655  26.694  0.00  0.00    +0.000 A 
ATOM      8  C   UNL     1      17.686  -6.711  27.116  0.00  0.00    +0.000 A 
ATOM      9  C   UNL     1      17.989  -5.391  26.911  0.00  0.00    +0.000 A 
ATOM     10  C   UNL     1      19.172  -5.018  26.303  0.00  0.00    +0.000 A 
ATOM     11  C   UNL     1      20.092  -5.952  25.880  0.00  0.00    +0.000 A 
ATOM     12  C   UNL     1      19.786  -7.280  26.088  0.00  0.00    +0.000 A 
ENDROOT
BRANCH   1  17
ATOM     13  C   UNL     1      25.742  -7.177  23.168  0.00  0.00    +0.000 C 
ATOM     14  C   UNL     1      24.420  -7.393  23.801  0.00  0.00    +0.000 A 
ATOM     15  C   UNL     1      23.440  -6.437  23.880  0.00  0.00    +0.000 A 
ATOM     16  C   UNL     1      22.216  -6.686  24.485  0.00  0.00    +0.000 A 
ATOM     17  C   UNL     1      21.944  -7.925  25.032  0.00  0.00    +0.000 A 
ATOM     18  C   UNL     1      22.943  -8.871  24.942  0.00  0.00    +0.000 A 
ATOM     19  C   UNL     1      24.164  -8.635  24.345  0.00  0.00    +0.000 A 
BRANCH  19  20
ATOM     20  C   UNL     1      25.199  -9.696  24.278  0.00  0.00    +0.000 C 
ATOM     21  O   UNL     1      25.042 -10.535  25.371  0.00  0.00    +0.000 OA
ENDBRANCH  19  20
ENDBRANCH   1  17
TORSDOF 2
ENDMDL
MODEL 9
REMARK VINA RESULT:      -6.5     20.590     22.778
REMARK  Name = 
REMARK  2 active torsions:
REMARK  status: ('A' for Active; 'I' for Inactive)
REMARK    1  A    between atoms: C_5  and  C_6
REMARK    2  A    between atoms: C_19  and  C_20
REMARK                            x       y       z     vdW  Elec       q    Type
REMARK                         _______ _______ _______ _____ _____    ______ ____
ROOT
ATOM      1  C   UNL     1      24.156   3.345  17.768  0.00  0.00    +0.000 A 
ATOM      2  N   UNL     1      22.879   3.713  17.976  0.00  0.00    +0.000 NA
ATOM      3  N   UNL     1      21.863   2.869  17.977  0.00  0.00    +0.000 N 
ATOM      4  C   UNL     1      20.507   3.363  18.212  0.00  0.00    +0.000 C 
ATOM      5  C   UNL     1      22.070   1.560  17.762  0.00  0.00    +0.000 A 
ATOM      6  O   UNL     1      21.090   0.786  17.768  0.00  0.00    +0.000 OA
ATOM      7  C   UNL     1      23.356   1.114  17.542  0.00  0.00    +0.000 A 
ATOM      8  C   UNL     1      23.566  -0.235  17.321  0.00  0.00    +0.000 A 
ATOM      9  C   UNL     1      24.853  -0.652  17.105  0.00  0.00    +0.000 A 
ATOM     10  C   UNL     1      25.903   0.246  17.108  0.00  0.00    +0.000 A 
ATOM     11  C   UNL     1      25.700   1.592  17.328  0.00  0.00    +0.000 A 
ATOM     12  C   UNL     1      24.404   2.010  17.545  0.00  0.00    +0.000 A 
ENDROOT
BRANCH   1  17
ATOM     13  C   UNL     1      28.284   7.352  17.635  0.00  0.00    +0.000 C 
ATOM     14  C   UNL     1      27.239   6.307  17.729  0.00  0.00    +0.000 A 
ATOM     15  C   UNL     1      27.018   5.539  18.844  0.00  0.00    +0.000 A 
ATOM     16  C   UNL     1      26.024   4.570  18.885  0.00  0.00    +0.000 A 
ATOM     17  C   UNL     1      25.216   4.348  17.786  0.00  0.00    +0.000 A 
ATOM     18  C   UNL     1      25.456   5.131  16.676  0.00  0.00    +0.000 A 
ATOM     19  C   UNL     1      26.440   6.096  16.624  0.00  0.00    +0.000 A 
BRANCH  19  20
ATOM     20  C   UNL     1      26.648   6.908  15.400  0.00  0.00    +0.000 C 
ATOM     21  O   UNL     1      27.277   6.120  14.448  0.00  0.00    +0.000 OA
ENDBRANCH  19  20
ENDBRANCH   1  17
TORSDOF 2
ENDMDL
MODEL 10
REMARK VINA RESULT:      -6.5     17.577     19.458
REMARK  Name = 
REMARK  2 active torsions:
REMARK  status: ('A' for Active; 'I' for Inactive)
REMARK    1  A    between atoms: C_5  and  C_6
REMARK    2  A    between atoms: C_19  and  C_20
REMARK                            x       y       z     vdW  Elec       q    Type
REMARK                         _______ _______ _______ _____ _____    ______ ____
ROOT
ATOM      1  C   UNL     1      26.414  23.934  27.285  0.00  0.00    +0.000 A 
ATOM      2  N   UNL     1      26.996  23.041  28.106  0.00  0.00    +0.000 NA
ATOM      3  N   UNL     1      26.846  23.046  29.418  0.00  0.00    +0.000 N 
ATOM      4  C   UNL     1      27.519  22.032  30.230  0.00  0.00    +0.000 C 
ATOM      5  C   UNL     1      26.080  23.977  30.010  0.00  0.00    +0.000 A 
ATOM      6  O   UNL     1      25.958  23.955  31.252  0.00  0.00    +0.000 OA
ATOM      7  C   UNL     1      25.454  24.922  29.227  0.00  0.00    +0.000 A 
ATOM      8  C   UNL     1      24.666  25.880  29.839  0.00  0.00    +0.000 A 
ATOM      9  C   UNL     1      24.055  26.808  29.038  0.00  0.00    +0.000 A 
ATOM     10  C   UNL     1      24.223  26.787  27.667  0.00  0.00    +0.000 A 
ATOM     11  C   UNL     1      25.007  25.836  27.051  0.00  0.00    +0.000 A 
ATOM     12  C   UNL     1      25.621  24.902  27.858  0.00  0.00    +0.000 A 
ENDROOT
BRANCH   1  17
ATOM     13  C   UNL     1      27.475  23.708  21.633  0.00  0.00    +0.000 C 
ATOM     14  C   UNL     1      27.147  23.738  23.078  0.00  0.00    +0.000 A 
ATOM     15  C   UNL     1      25.987  23.236  23.612  0.00  0.00    +0.000 A 
ATOM     16  C   UNL     1      25.723  23.286  24.974  0.00  0.00    +0.000 A 
ATOM     17  C   UNL     1      26.635  23.852  25.845  0.00  0.00    +0.000 A 
ATOM     18  C   UNL     1      27.793  24.350  25.286  0.00  0.00    +0.000 A 
ATOM     19  C   UNL     1      28.066  24.306  23.934  0.00  0.00    +0.000 A 
BRANCH  19  20
ATOM     20  C   UNL     1      29.332  24.859  23.394  0.00  0.00    +0.000 C 
ATOM     21  O   UNL     1      30.285  23.851  23.382  0.00  0.00    +0.000 OA
ENDBRANCH  19  20
ENDBRANCH   1  17
TORSDOF 2
ENDMDL
