MODEL 1
REMARK VINA RESULT:      -6.5      0.000      0.000
REMARK  Name = 
REMARK  3 active torsions:
REMARK  status: ('A' for Active; 'I' for Inactive)
REMARK    1  A    between atoms: O_2  and  C_3
REMARK    2  A    between atoms: C_7  and  C_8
REMARK    3  A    between atoms: C_19  and  O_20
REMARK                            x       y       z     vdW  Elec       q    Type
REMARK                         _______ _______ _______ _____ _____    ______ ____
ROOT
ATOM      1  C   UNL     1      26.146  23.487  29.694  0.00  0.00    +0.000 A 
ATOM      2  C   UNL     1      26.672  23.093  28.501  0.00  0.00    +0.000 A 
ATOM      3  C   UNL     1      26.842  24.017  27.465  0.00  0.00    +0.000 A 
ATOM      4  C   UNL     1      27.344  23.761  26.250  0.00  0.00    +0.000 A 
ATOM      5  C   UNL     1      27.447  24.753  25.355  0.00  0.00    +0.000 A 
ATOM      6  S   UNL     1      26.814  26.088  26.264  0.00  0.00    +0.000 S 
ATOM      7  C   UNL     1      26.455  25.299  27.731  0.00  0.00    +0.000 A 
ATOM      8  C   UNL     1      25.923  25.696  28.939  0.00  0.00    +0.000 A 
ATOM      9  C   UNL     1      25.750  24.776  29.981  0.00  0.00    +0.000 A 
ENDROOT
BRANCH   5  10
ATOM     10  C   UNL     1      27.924  24.847  23.996  0.00  0.00    +0.000 C 
ATOM     11  N   UNL     1      27.242  24.490  23.031  0.00  0.00    +0.000 NA
ATOM     12  N   UNL     1      27.622  24.544  21.673  0.00  0.00    +0.000 NA
ATOM     13  C   UNL     1      28.949  25.084  21.527  0.00  0.00    +0.000 C 
ATOM     14  O   UNL     1      29.727  24.632  20.648  0.00  0.00    +0.000 OA
ATOM     15  C   UNL     1      29.249  26.160  22.480  0.00  0.00    +0.000 C 
ATOM     16  C   UNL     1      29.372  25.432  23.906  0.00  0.00    +0.000 C 
ATOM     17  C   UNL     1      30.078  24.081  23.355  0.00  0.00    +0.000 C 
ENDBRANCH   5  10
BRANCH   1  19
ATOM     18  C   UNL     1      26.313  21.194  30.585  0.00  0.00    +0.000 C 
ATOM     19  O   UNL     1      25.969  22.564  30.748  0.00  0.00    +0.000 OA
ENDBRANCH   1  19
BRANCH   9  20
ATOM     20  O   UNL     1      25.223  25.110  31.213  0.00  0.00    +0.000 OA
ATOM     21  C   UNL     1      26.011  25.872  32.110  0.00  0.00    +0.000 C 
ENDBRANCH   9  20
TORSDOF 3
ENDMDL
MODEL 2
REMARK VINA RESULT:      -6.0      4.005      4.577
REMARK  Name = 
REMARK  3 active torsions:
REMARK  status: ('A' for Active; 'I' for Inactive)
REMARK    1  A    between atoms: O_2  and  C_3
REMARK    2  A    between atoms: C_7  and  C_8
REMARK    3  A    between atoms: C_19  and  O_20
REMARK                            x       y       z     vdW  Elec       q    Type
REMARK                         _______ _______ _______ _____ _____    ______ ____
ROOT
ATOM      1  C   UNL     1      31.789  22.032  29.960  0.00  0.00    +0.000 A 
ATOM      2  C   UNL     1      31.506  22.107  28.630  0.00  0.00    +0.000 A 
ATOM      3  C   UNL     1      30.236  22.505  28.201  0.00  0.00    +0.000 A 
ATOM      4  C   UNL     1      29.831  22.619  26.930  0.00  0.00    +0.000 A 
ATOM      5  C   UNL     1      28.577  23.015  26.669  0.00  0.00    +0.000 A 
ATOM      6  S   UNL     1      27.956  23.232  28.274  0.00  0.00    +0.000 S 
ATOM      7  C   UNL     1      29.334  22.805  29.181  0.00  0.00    +0.000 A 
ATOM      8  C   UNL     1      29.623  22.729  30.526  0.00  0.00    +0.000 A 
ATOM      9  C   UNL     1      30.892  22.330  30.964  0.00  0.00    +0.000 A 
ENDROOT
BRANCH   5  10
ATOM     10  C   UNL     1      27.816  23.244  25.464  0.00  0.00    +0.000 C 
ATOM     11  N   UNL     1      26.693  22.762  25.291  0.00  0.00    +0.000 NA
ATOM     12  N   UNL     1      25.877  22.929  24.152  0.00  0.00    +0.000 NA
ATOM     13  C   UNL     1      26.523  23.759  23.169  0.00  0.00    +0.000 C 
ATOM     14  O   UNL     1      26.390  23.515  21.943  0.00  0.00    +0.000 OA
ATOM     15  C   UNL     1      27.305  24.855  23.755  0.00  0.00    +0.000 C 
ATOM     16  C   UNL     1      28.574  24.145  24.435  0.00  0.00    +0.000 C 
ATOM     17  C   UNL     1      28.765  23.002  23.302  0.00  0.00    +0.000 C 
ENDBRANCH   5  10
BRANCH   1  19
ATOM     18  C   UNL     1      34.231  22.364  30.047  0.00  0.00    +0.000 C 
ATOM     19  O   UNL     1      33.067  21.631  30.408  0.00  0.00    +0.000 OA
ENDBRANCH   1  19
BRANCH   9  20
ATOM     20  O   UNL     1      31.244  22.233  32.296  0.00  0.00    +0.000 OA
ATOM     21  C   UNL     1      30.496  21.377  33.140  0.00  0.00    +0.000 C 
ENDBRANCH   9  20
TORSDOF 3
ENDMDL
MODEL 3
REMARK VINA RESULT:      -5.9      4.566      7.774
REMARK  Name = 
REMARK  3 active torsions:
REMARK  status: ('A' for Active; 'I' for Inactive)
REMARK    1  A    between atoms: O_2  and  C_3
REMARK    2  A    between atoms: C_7  and  C_8
REMARK    3  A    between atoms: C_19  and  O_20
REMARK                            x       y       z     vdW  Elec       q    Type
REMARK                         _______ _______ _______ _____ _____    ______ ____
ROOT
ATOM      1  C   UNL     1      27.967  23.344  23.554  0.00  0.00    +0.000 A 
ATOM      2  C   UNL     1      27.885  23.044  24.880  0.00  0.00    +0.000 A 
ATOM      3  C   UNL     1      29.034  23.049  25.677  0.00  0.00    +0.000 A 
ATOM      4  C   UNL     1      29.090  22.774  26.986  0.00  0.00    +0.000 A 
ATOM      5  C   UNL     1      30.270  22.820  27.621  0.00  0.00    +0.000 A 
ATOM      6  S   UNL     1      31.329  23.266  26.322  0.00  0.00    +0.000 S 
ATOM      7  C   UNL     1      30.203  23.368  25.047  0.00  0.00    +0.000 A 
ATOM      8  C   UNL     1      30.284  23.671  23.705  0.00  0.00    +0.000 A 
ATOM      9  C   UNL     1      29.138  23.668  22.901  0.00  0.00    +0.000 A 
ENDROOT
BRANCH   5  10
ATOM     10  C   UNL     1      30.699  22.592  28.980  0.00  0.00    +0.000 C 
ATOM     11  N   UNL     1      29.906  22.547  29.925  0.00  0.00    +0.000 NA
ATOM     12  N   UNL     1      30.230  22.330  31.280  0.00  0.00    +0.000 NA
ATOM     13  C   UNL     1      31.650  22.161  31.453  0.00  0.00    +0.000 C 
ATOM     14  O   UNL     1      32.228  22.625  32.468  0.00  0.00    +0.000 OA
ATOM     15  C   UNL     1      32.286  21.422  30.355  0.00  0.00    +0.000 C 
ATOM     16  C   UNL     1      32.249  22.424  29.101  0.00  0.00    +0.000 C 
ATOM     17  C   UNL     1      32.512  23.779  29.950  0.00  0.00    +0.000 C 
ENDBRANCH   5  10
BRANCH   1  19
ATOM     18  C   UNL     1      25.519  23.184  23.303  0.00  0.00    +0.000 C 
ATOM     19  O   UNL     1      26.815  23.342  22.737  0.00  0.00    +0.000 OA
ENDBRANCH   1  19
BRANCH   9  20
ATOM     20  O   UNL     1      29.152  23.962  21.552  0.00  0.00    +0.000 OA
ATOM     21  C   UNL     1      29.316  25.309  21.147  0.00  0.00    +0.000 C 
ENDBRANCH   9  20
TORSDOF 3
ENDMDL
MODEL 4
REMARK VINA RESULT:      -5.9      4.799      7.861
REMARK  Name = 
REMARK  3 active torsions:
REMARK  status: ('A' for Active; 'I' for Inactive)
REMARK    1  A    between atoms: O_2  and  C_3
REMARK    2  A    between atoms: C_7  and  C_8
REMARK    3  A    between atoms: C_19  and  O_20
REMARK                            x       y       z     vdW  Elec       q    Type
REMARK                         _______ _______ _______ _____ _____    ______ ____
ROOT
ATOM      1  C   UNL     1      29.247  23.482  23.298  0.00  0.00    +0.000 A 
ATOM      2  C   UNL     1      30.319  23.431  24.137  0.00  0.00    +0.000 A 
ATOM      3  C   UNL     1      30.149  23.072  25.478  0.00  0.00    +0.000 A 
ATOM      4  C   UNL     1      31.114  22.984  26.402  0.00  0.00    +0.000 A 
ATOM      5  C   UNL     1      30.799  22.626  27.654  0.00  0.00    +0.000 A 
ATOM      6  S   UNL     1      29.084  22.409  27.517  0.00  0.00    +0.000 S 
ATOM      7  C   UNL     1      28.872  22.787  25.869  0.00  0.00    +0.000 A 
ATOM      8  C   UNL     1      27.788  22.840  25.019  0.00  0.00    +0.000 A 
ATOM      9  C   UNL     1      27.951  23.198  23.675  0.00  0.00    +0.000 A 
ENDROOT
BRANCH   5  10
ATOM     10  C   UNL     1      31.549  22.432  28.873  0.00  0.00    +0.000 C 
ATOM     11  N   UNL     1      32.432  21.576  28.975  0.00  0.00    +0.000 NA
ATOM     12  N   UNL     1      33.215  21.315  30.119  0.00  0.00    +0.000 NA
ATOM     13  C   UNL     1      32.857  22.192  31.204  0.00  0.00    +0.000 C 
ATOM     14  O   UNL     1      32.854  21.772  32.388  0.00  0.00    +0.000 OA
ATOM     15  C   UNL     1      32.519  23.552  30.765  0.00  0.00    +0.000 C 
ATOM     16  C   UNL     1      31.108  23.409  30.012  0.00  0.00    +0.000 C 
ATOM     17  C   UNL     1      30.497  22.274  30.995  0.00  0.00    +0.000 C 
ENDBRANCH   5  10
BRANCH   1  19
ATOM     18  C   UNL     1      29.396  25.208  21.544  0.00  0.00    +0.000 C 
ATOM     19  O   UNL     1      29.404  23.843  21.942  0.00  0.00    +0.000 OA
ENDBRANCH   1  19
BRANCH   9  20
ATOM     20  O   UNL     1      26.907  23.270  22.773  0.00  0.00    +0.000 OA
ATOM     21  C   UNL     1      25.579  23.267  23.263  0.00  0.00    +0.000 C 
ENDBRANCH   9  20
TORSDOF 3
ENDMDL
MODEL 5
REMARK VINA RESULT:      -5.8      1.457      2.376
REMARK  Name = 
REMARK  3 active torsions:
REMARK  status: ('A' for Active; 'I' for Inactive)
REMARK    1  A    between atoms: O_2  and  C_3
REMARK    2  A    between atoms: C_7  and  C_8
REMARK    3  A    between atoms: C_19  and  O_20
REMARK                            x       y       z     vdW  Elec       q    Type
REMARK                         _______ _______ _______ _____ _____    ______ ____
ROOT
ATOM      1  C   UNL     1      24.570  25.853  29.202  0.00  0.00    +0.000 A 
ATOM      2  C   UNL     1      24.678  25.953  27.848  0.00  0.00    +0.000 A 
ATOM      3  C   UNL     1      25.757  25.364  27.180  0.00  0.00    +0.000 A 
ATOM      4  C   UNL     1      25.980  25.389  25.860  0.00  0.00    +0.000 A 
ATOM      5  C   UNL     1      27.062  24.776  25.361  0.00  0.00    +0.000 A 
ATOM      6  S   UNL     1      27.784  24.146  26.807  0.00  0.00    +0.000 S 
ATOM      7  C   UNL     1      26.661  24.702  27.961  0.00  0.00    +0.000 A 
ATOM      8  C   UNL     1      26.550  24.602  29.331  0.00  0.00    +0.000 A 
ATOM      9  C   UNL     1      25.473  25.189  30.006  0.00  0.00    +0.000 A 
ENDROOT
BRANCH   5  10
ATOM     10  C   UNL     1      27.607  24.600  24.036  0.00  0.00    +0.000 C 
ATOM     11  N   UNL     1      27.633  23.501  23.473  0.00  0.00    +0.000 NA
ATOM     12  N   UNL     1      28.142  23.234  22.185  0.00  0.00    +0.000 NA
ATOM     13  C   UNL     1      28.652  24.432  21.569  0.00  0.00    +0.000 C 
ATOM     14  O   UNL     1      29.682  24.389  20.849  0.00  0.00    +0.000 OA
ATOM     15  C   UNL     1      27.858  25.628  21.878  0.00  0.00    +0.000 C 
ATOM     16  C   UNL     1      28.149  25.934  23.427  0.00  0.00    +0.000 C 
ATOM     17  C   UNL     1      29.711  25.498  23.403  0.00  0.00    +0.000 C 
ENDBRANCH   5  10
BRANCH   1  19
ATOM     18  C   UNL     1      22.268  26.733  29.216  0.00  0.00    +0.000 C 
ATOM     19  O   UNL     1      23.487  26.443  29.889  0.00  0.00    +0.000 OA
ENDBRANCH   1  19
BRANCH   9  20
ATOM     20  O   UNL     1      25.305  25.125  31.375  0.00  0.00    +0.000 OA
ATOM     21  C   UNL     1      26.396  25.454  32.215  0.00  0.00    +0.000 C 
ENDBRANCH   9  20
TORSDOF 3
ENDMDL
MODEL 6
REMARK VINA RESULT:      -5.8     31.122     32.997
REMARK  Name = 
REMARK  3 active torsions:
REMARK  status: ('A' for Active; 'I' for Inactive)
REMARK    1  A    between atoms: O_2  and  C_3
REMARK    2  A    between atoms: C_7  and  C_8
REMARK    3  A    between atoms: C_19  and  O_20
REMARK                            x       y       z     vdW  Elec       q    Type
REMARK                         _______ _______ _______ _____ _____    ______ ____
ROOT
ATOM      1  C   UNL     1      19.405  -6.853  26.213  0.00  0.00    +0.000 A 
ATOM      2  C   UNL     1      20.487  -6.427  25.505  0.00  0.00    +0.000 A 
ATOM      3  C   UNL     1      21.541  -7.305  25.233  0.00  0.00    +0.000 A 
ATOM      4  C   UNL     1      22.657  -7.015  24.552  0.00  0.00    +0.000 A 
ATOM      5  C   UNL     1      23.585  -7.964  24.368  0.00  0.00    +0.000 A 
ATOM      6  S   UNL     1      22.853  -9.307  25.186  0.00  0.00    +0.000 S 
ATOM      7  C   UNL     1      21.407  -8.577  25.712  0.00  0.00    +0.000 A 
ATOM      8  C   UNL     1      20.310  -9.005  26.428  0.00  0.00    +0.000 A 
ATOM      9  C   UNL     1      19.251  -8.132  26.705  0.00  0.00    +0.000 A 
ENDROOT
BRANCH   5  10
ATOM     10  C   UNL     1      24.868  -8.014  23.708  0.00  0.00    +0.000 C 
ATOM     11  N   UNL     1      25.432  -7.001  23.283  0.00  0.00    +0.000 NA
ATOM     12  N   UNL     1      26.680  -6.952  22.628  0.00  0.00    +0.000 NA
ATOM     13  C   UNL     1      27.252  -8.268  22.501  0.00  0.00    +0.000 C 
ATOM     14  O   UNL     1      27.895  -8.585  21.469  0.00  0.00    +0.000 OA
ATOM     15  C   UNL     1      26.997  -9.128  23.664  0.00  0.00    +0.000 C 
ATOM     16  C   UNL     1      25.430  -9.469  23.595  0.00  0.00    +0.000 C 
ATOM     17  C   UNL     1      25.342  -9.571  21.980  0.00  0.00    +0.000 C 
ENDBRANCH   5  10
BRANCH   1  19
ATOM     18  C   UNL     1      18.564  -4.594  26.735  0.00  0.00    +0.000 C 
ATOM     19  O   UNL     1      18.333  -5.977  26.496  0.00  0.00    +0.000 OA
ENDBRANCH   1  19
BRANCH   9  20
ATOM     20  O   UNL     1      18.126  -8.499  27.417  0.00  0.00    +0.000 OA
ATOM     21  C   UNL     1      18.286  -9.206  28.633  0.00  0.00    +0.000 C 
ENDBRANCH   9  20
TORSDOF 3
ENDMDL
MODEL 7
REMARK VINA RESULT:      -5.7     26.608     29.426
REMARK  Name = 
REMARK  3 active torsions:
REMARK  status: ('A' for Active; 'I' for Inactive)
REMARK    1  A    between atoms: O_2  and  C_3
REMARK    2  A    between atoms: C_7  and  C_8
REMARK    3  A    between atoms: C_19  and  O_20
REMARK                            x       y       z     vdW  Elec       q    Type
REMARK                         _______ _______ _______ _____ _____    ______ ____
ROOT
ATOM      1  C   UNL     1      33.529   0.788  34.379  0.00  0.00    +0.000 A 
ATOM      2  C   UNL     1      33.421  -0.230  33.482  0.00  0.00    +0.000 A 
ATOM      3  C   UNL     1      33.630  -1.553  33.888  0.00  0.00    +0.000 A 
ATOM      4  C   UNL     1      33.555  -2.640  33.110  0.00  0.00    +0.000 A 
ATOM      5  C   UNL     1      33.781  -3.850  33.641  0.00  0.00    +0.000 A 
ATOM      6  S   UNL     1      34.110  -3.432  35.292  0.00  0.00    +0.000 S 
ATOM      7  C   UNL     1      33.938  -1.738  35.205  0.00  0.00    +0.000 A 
ATOM      8  C   UNL     1      34.047  -0.706  36.112  0.00  0.00    +0.000 A 
ATOM      9  C   UNL     1      33.839   0.620  35.713  0.00  0.00    +0.000 A 
ENDROOT
BRANCH   5  10
ATOM     10  C   UNL     1      33.787  -5.198  33.126  0.00  0.00    +0.000 C 
ATOM     11  N   UNL     1      33.882  -6.185  33.862  0.00  0.00    +0.000 NA
ATOM     12  N   UNL     1      33.896  -7.535  33.452  0.00  0.00    +0.000 NA
ATOM     13  C   UNL     1      33.784  -7.644  32.020  0.00  0.00    +0.000 C 
ATOM     14  O   UNL     1      34.419  -8.532  31.397  0.00  0.00    +0.000 OA
ATOM     15  C   UNL     1      32.887  -6.642  31.429  0.00  0.00    +0.000 C 
ATOM     16  C   UNL     1      33.670  -5.247  31.568  0.00  0.00    +0.000 C 
ATOM     17  C   UNL     1      35.151  -5.848  31.295  0.00  0.00    +0.000 C 
ENDBRANCH   5  10
BRANCH   1  19
ATOM     18  C   UNL     1      33.930   2.644  32.807  0.00  0.00    +0.000 C 
ATOM     19  O   UNL     1      33.321   2.128  33.984  0.00  0.00    +0.000 OA
ENDBRANCH   1  19
BRANCH   9  20
ATOM     20  O   UNL     1      33.933   1.698  36.571  0.00  0.00    +0.000 OA
ATOM     21  C   UNL     1      34.879   1.653  37.624  0.00  0.00    +0.000 C 
ENDBRANCH   9  20
TORSDOF 3
ENDMDL
MODEL 8
REMARK VINA RESULT:      -5.7     24.571     27.617
REMARK  Name = 
REMARK  3 active torsions:
REMARK  status: ('A' for Active; 'I' for Inactive)
REMARK    1  A    between atoms: O_2  and  C_3
REMARK    2  A    between atoms: C_7  and  C_8
REMARK    3  A    between atoms: C_19  and  O_20
REMARK                            x       y       z     vdW  Elec       q    Type
REMARK                         _______ _______ _______ _____ _____    ______ ____
ROOT
ATOM      1  C   UNL     1      33.795   3.090  34.605  0.00  0.00    +0.000 A 
ATOM      2  C   UNL     1      33.475   1.962  33.913  0.00  0.00    +0.000 A 
ATOM      3  C   UNL     1      33.444   0.723  34.561  0.00  0.00    +0.000 A 
ATOM      4  C   UNL     1      33.148  -0.456  33.999  0.00  0.00    +0.000 A 
ATOM      5  C   UNL     1      33.158  -1.567  34.750  0.00  0.00    +0.000 A 
ATOM      6  S   UNL     1      33.602  -0.919  36.296  0.00  0.00    +0.000 S 
ATOM      7  C   UNL     1      33.747   0.730  35.892  0.00  0.00    +0.000 A 
ATOM      8  C   UNL     1      34.070   1.873  36.590  0.00  0.00    +0.000 A 
ATOM      9  C   UNL     1      34.103   3.118  35.948  0.00  0.00    +0.000 A 
ENDROOT
BRANCH   5  10
ATOM     10  C   UNL     1      32.899  -2.964  34.497  0.00  0.00    +0.000 C 
ATOM     11  N   UNL     1      31.966  -3.571  35.032  0.00  0.00    +0.000 NA
ATOM     12  N   UNL     1      31.636  -4.930  34.847  0.00  0.00    +0.000 NA
ATOM     13  C   UNL     1      32.544  -5.563  33.925  0.00  0.00    +0.000 C 
ATOM     14  O   UNL     1      32.907  -6.752  34.106  0.00  0.00    +0.000 OA
ATOM     15  C   UNL     1      32.958  -4.687  32.822  0.00  0.00    +0.000 C 
ATOM     16  C   UNL     1      33.922  -3.594  33.495  0.00  0.00    +0.000 C 
ATOM     17  C   UNL     1      34.616  -4.601  34.558  0.00  0.00    +0.000 C 
ENDBRANCH   5  10
BRANCH   1  19
ATOM     18  C   UNL     1      32.654   5.138  33.841  0.00  0.00    +0.000 C 
ATOM     19  O   UNL     1      33.830   4.348  33.963  0.00  0.00    +0.000 OA
ENDBRANCH   1  19
BRANCH   9  20
ATOM     20  O   UNL     1      34.420   4.299  36.591  0.00  0.00    +0.000 OA
ATOM     21  C   UNL     1      33.707   4.652  37.762  0.00  0.00    +0.000 C 
ENDBRANCH   9  20
TORSDOF 3
ENDMDL
MODEL 9
REMARK VINA RESULT:      -5.7     23.102     26.236
REMARK  Name = 
REMARK  3 active torsions:
REMARK  status: ('A' for Active; 'I' for Inactive)
REMARK    1  A    between atoms: O_2  and  C_3
REMARK    2  A    between atoms: C_7  and  C_8
REMARK    3  A    between atoms: C_19  and  O_20
REMARK                            x       y       z     vdW  Elec       q    Type
REMARK                         _______ _______ _______ _____ _____    ______ ____
ROOT
ATOM      1  C   UNL     1      33.521  -2.113  36.270  0.00  0.00    +0.000 A 
ATOM      2  C   UNL     1      33.707  -0.903  36.867  0.00  0.00    +0.000 A 
ATOM      3  C   UNL     1      33.761   0.263  36.096  0.00  0.00    +0.000 A 
ATOM      4  C   UNL     1      33.938   1.508  36.556  0.00  0.00    +0.000 A 
ATOM      5  C   UNL     1      33.968   2.533  35.693  0.00  0.00    +0.000 A 
ATOM      6  S   UNL     1      33.738   1.706  34.186  0.00  0.00    +0.000 S 
ATOM      7  C   UNL     1      33.616   0.102  34.748  0.00  0.00    +0.000 A 
ATOM      8  C   UNL     1      33.428  -1.123  34.146  0.00  0.00    +0.000 A 
ATOM      9  C   UNL     1      33.373  -2.295  34.911  0.00  0.00    +0.000 A 
ENDROOT
BRANCH   5  10
ATOM     10  C   UNL     1      34.134   3.962  35.821  0.00  0.00    +0.000 C 
ATOM     11  N   UNL     1      34.105   4.534  36.914  0.00  0.00    +0.000 NA
ATOM     12  N   UNL     1      34.257   5.919  37.137  0.00  0.00    +0.000 NA
ATOM     13  C   UNL     1      34.457   6.625  35.897  0.00  0.00    +0.000 C 
ATOM     14  O   UNL     1      33.955   7.764  35.725  0.00  0.00    +0.000 OA
ATOM     15  C   UNL     1      35.273   5.881  34.929  0.00  0.00    +0.000 C 
ATOM     16  C   UNL     1      34.339   4.669  34.441  0.00  0.00    +0.000 C 
ATOM     17  C   UNL     1      32.948   5.500  34.457  0.00  0.00    +0.000 C 
ENDBRANCH   5  10
BRANCH   1  19
ATOM     18  C   UNL     1      34.581  -3.722  37.807  0.00  0.00    +0.000 C 
ATOM     19  O   UNL     1      33.464  -3.298  37.036  0.00  0.00    +0.000 OA
ENDBRANCH   1  19
BRANCH   9  20
ATOM     20  O   UNL     1      33.187  -3.551  34.369  0.00  0.00    +0.000 OA
ATOM     21  C   UNL     1      33.552  -3.775  33.019  0.00  0.00    +0.000 C 
ENDBRANCH   9  20
TORSDOF 3
ENDMDL
MODEL 10
REMARK VINA RESULT:      -5.6     23.190     26.311
REMARK  Name = 
REMARK  3 active torsions:
REMARK  status: ('A' for Active; 'I' for Inactive)
REMARK    1  A    between atoms: O_2  and  C_3
REMARK    2  A    between atoms: C_7  and  C_8
REMARK    3  A    between atoms: C_19  and  O_20
REMARK                            x       y       z     vdW  Elec       q    Type
REMARK                         _______ _______ _______ _____ _____    ______ ____
ROOT
ATOM      1  C   UNL     1      33.076  -1.985  34.768  0.00  0.00    +0.000 A 
ATOM      2  C   UNL     1      33.148  -0.691  34.350  0.00  0.00    +0.000 A 
ATOM      3  C   UNL     1      33.502   0.321  35.247  0.00  0.00    +0.000 A 
ATOM      4  C   UNL     1      33.608   1.626  34.966  0.00  0.00    +0.000 A 
ATOM      5  C   UNL     1      33.959   2.484  35.934  0.00  0.00    +0.000 A 
ATOM      6  S   UNL     1      34.144   1.409  37.281  0.00  0.00    +0.000 S 
ATOM      7  C   UNL     1      33.763  -0.072  36.528  0.00  0.00    +0.000 A 
ATOM      8  C   UNL     1      33.690  -1.382  36.949  0.00  0.00    +0.000 A 
ATOM      9  C   UNL     1      33.336  -2.401  36.057  0.00  0.00    +0.000 A 
ENDROOT
BRANCH   5  10
ATOM     10  C   UNL     1      34.166   3.912  35.997  0.00  0.00    +0.000 C 
ATOM     11  N   UNL     1      34.181   4.530  37.065  0.00  0.00    +0.000 NA
ATOM     12  N   UNL     1      34.375   5.918  37.226  0.00  0.00    +0.000 NA
ATOM     13  C   UNL     1      34.563   6.566  35.953  0.00  0.00    +0.000 C 
ATOM     14  O   UNL     1      34.088   7.711  35.745  0.00  0.00    +0.000 OA
ATOM     15  C   UNL     1      35.334   5.759  34.998  0.00  0.00    +0.000 C 
ATOM     16  C   UNL     1      34.356   4.555  34.584  0.00  0.00    +0.000 C 
ATOM     17  C   UNL     1      32.988   5.425  34.598  0.00  0.00    +0.000 C 
ENDBRANCH   5  10
BRANCH   1  19
ATOM     18  C   UNL     1      33.708  -3.687  33.099  0.00  0.00    +0.000 C 
ATOM     19  O   UNL     1      32.720  -3.018  33.873  0.00  0.00    +0.000 OA
ENDBRANCH   1  19
BRANCH   9  20
ATOM     20  O   UNL     1      33.245  -3.732  36.416  0.00  0.00    +0.000 OA
ATOM     21  C   UNL     1      34.317  -4.323  37.127  0.00  0.00    +0.000 C 
ENDBRANCH   9  20
TORSDOF 3
ENDMDL
