MODEL 1
REMARK VINA RESULT:      -6.3      0.000      0.000
REMARK  Name = 
REMARK  4 active torsions:
REMARK  status: ('A' for Active; 'I' for Inactive)
REMARK    1  A    between atoms: O_2  and  C_3
REMARK    2  A    between atoms: C_6  and  C_7
REMARK    3  A    between atoms: C_8  and  C_9
REMARK    4  A    between atoms: C_20  and  O_21
REMARK                            x       y       z     vdW  Elec       q    Type
REMARK                         _______ _______ _______ _____ _____    ______ ____
ROOT
ATOM      1  C   UNL     1      28.986  23.945  23.312  0.00  0.00    +0.000 A 
ATOM      2  C   UNL     1      27.842  23.440  23.914  0.00  0.00    +0.000 A 
ATOM      3  N   UNL     1      26.959  23.166  22.939  0.00  0.00    +0.000 NA
ATOM      4  O   UNL     1      27.483  23.469  21.789  0.00  0.00    +0.000 OA
ATOM      5  C   UNL     1      28.715  23.947  21.961  0.00  0.00    +0.000 A 
ATOM      6  N   UNL     1      29.595  24.382  20.938  0.00  0.00    +0.000 NA
ENDROOT
BRANCH   1  10
ATOM      7  C   UNL     1      32.499  25.324  25.316  0.00  0.00    +0.000 A 
ATOM      8  C   UNL     1      32.383  24.019  24.912  0.00  0.00    +0.000 A 
ATOM      9  C   UNL     1      31.249  23.537  24.255  0.00  0.00    +0.000 A 
ATOM     10  C   UNL     1      30.200  24.378  23.991  0.00  0.00    +0.000 A 
ATOM     11  C   UNL     1      30.312  25.704  24.397  0.00  0.00    +0.000 A 
ATOM     12  C   UNL     1      31.422  26.169  25.039  0.00  0.00    +0.000 A 
BRANCH   7  14
ATOM     13  C   UNL     1      34.284  25.308  27.028  0.00  0.00    +0.000 C 
ATOM     14  O   UNL     1      33.568  25.879  25.963  0.00  0.00    +0.000 OA
ENDBRANCH   7  14
BRANCH  12  15
ATOM     15  O   UNL     1      31.475  27.505  25.422  0.00  0.00    +0.000 OA
ATOM     16  C   UNL     1      30.507  28.395  24.914  0.00  0.00    +0.000 C 
ENDBRANCH  12  15
ENDBRANCH   1  10
BRANCH   2  17
ATOM     17  C   UNL     1      27.705  23.267  25.349  0.00  0.00    +0.000 A 
ATOM     18  C   UNL     1      28.432  22.375  26.084  0.00  0.00    +0.000 A 
ATOM     19  C   UNL     1      28.246  22.262  27.457  0.00  0.00    +0.000 A 
ATOM     20  C   UNL     1      27.326  23.050  28.083  0.00  0.00    +0.000 A 
ATOM     21  C   UNL     1      26.566  23.971  27.362  0.00  0.00    +0.000 A 
ATOM     22  C   UNL     1      26.778  24.057  25.995  0.00  0.00    +0.000 A 
ENDBRANCH   2  17
TORSDOF 4
ENDMDL
MODEL 2
REMARK VINA RESULT:      -6.3      2.245      4.918
REMARK  Name = 
REMARK  4 active torsions:
REMARK  status: ('A' for Active; 'I' for Inactive)
REMARK    1  A    between atoms: O_2  and  C_3
REMARK    2  A    between atoms: C_6  and  C_7
REMARK    3  A    between atoms: C_8  and  C_9
REMARK    4  A    between atoms: C_20  and  O_21
REMARK                            x       y       z     vdW  Elec       q    Type
REMARK                         _______ _______ _______ _____ _____    ______ ____
ROOT
ATOM      1  C   UNL     1      28.275  23.715  23.717  0.00  0.00    +0.000 A 
ATOM      2  C   UNL     1      29.480  24.158  23.190  0.00  0.00    +0.000 A 
ATOM      3  N   UNL     1      29.348  24.189  21.853  0.00  0.00    +0.000 NA
ATOM      4  O   UNL     1      28.152  23.795  21.531  0.00  0.00    +0.000 OA
ATOM      5  C   UNL     1      27.460  23.495  22.629  0.00  0.00    +0.000 A 
ATOM      6  N   UNL     1      26.121  23.031  22.674  0.00  0.00    +0.000 NA
ENDROOT
BRANCH   1  10
ATOM      7  C   UNL     1      27.305  23.259  27.854  0.00  0.00    +0.000 A 
ATOM      8  C   UNL     1      28.098  22.345  27.211  0.00  0.00    +0.000 A 
ATOM      9  C   UNL     1      28.435  22.466  25.860  0.00  0.00    +0.000 A 
ATOM     10  C   UNL     1      27.968  23.526  25.129  0.00  0.00    +0.000 A 
ATOM     11  C   UNL     1      27.162  24.457  25.777  0.00  0.00    +0.000 A 
ATOM     12  C   UNL     1      26.837  24.335  27.096  0.00  0.00    +0.000 A 
BRANCH   7  14
ATOM     13  C   UNL     1      27.127  22.155  30.060  0.00  0.00    +0.000 C 
ATOM     14  O   UNL     1      26.926  23.220  29.167  0.00  0.00    +0.000 OA
ENDBRANCH   7  14
BRANCH  12  15
ATOM     15  O   UNL     1      26.026  25.298  27.687  0.00  0.00    +0.000 OA
ATOM     16  C   UNL     1      24.646  25.294  27.398  0.00  0.00    +0.000 C 
ENDBRANCH  12  15
ENDBRANCH   1  10
BRANCH   2  17
ATOM     17  C   UNL     1      30.628  24.510  24.006  0.00  0.00    +0.000 A 
ATOM     18  C   UNL     1      31.597  23.625  24.383  0.00  0.00    +0.000 A 
ATOM     19  C   UNL     1      32.669  24.033  25.169  0.00  0.00    +0.000 A 
ATOM     20  C   UNL     1      32.758  25.332  25.572  0.00  0.00    +0.000 A 
ATOM     21  C   UNL     1      31.785  26.262  25.205  0.00  0.00    +0.000 A 
ATOM     22  C   UNL     1      30.730  25.820  24.421  0.00  0.00    +0.000 A 
ENDBRANCH   2  17
TORSDOF 4
ENDMDL
MODEL 3
REMARK VINA RESULT:      -6.2     33.347     35.949
REMARK  Name = 
REMARK  4 active torsions:
REMARK  status: ('A' for Active; 'I' for Inactive)
REMARK    1  A    between atoms: O_2  and  C_3
REMARK    2  A    between atoms: C_6  and  C_7
REMARK    3  A    between atoms: C_8  and  C_9
REMARK    4  A    between atoms: C_20  and  O_21
REMARK                            x       y       z     vdW  Elec       q    Type
REMARK                         _______ _______ _______ _____ _____    ______ ____
ROOT
ATOM      1  C   UNL     1      17.019  -9.573  27.417  0.00  0.00    +0.000 A 
ATOM      2  C   UNL     1      18.020  -8.766  27.939  0.00  0.00    +0.000 A 
ATOM      3  N   UNL     1      18.293  -9.210  29.177  0.00  0.00    +0.000 NA
ATOM      4  O   UNL     1      17.530 -10.227  29.445  0.00  0.00    +0.000 OA
ATOM      5  C   UNL     1      16.737 -10.489  28.408  0.00  0.00    +0.000 A 
ATOM      6  N   UNL     1      15.771 -11.523  28.331  0.00  0.00    +0.000 NA
ENDROOT
BRANCH   1  10
ATOM      7  C   UNL     1      15.145  -9.157  23.599  0.00  0.00    +0.000 A 
ATOM      8  C   UNL     1      16.363  -9.774  23.724  0.00  0.00    +0.000 A 
ATOM      9  C   UNL     1      17.001  -9.927  24.957  0.00  0.00    +0.000 A 
ATOM     10  C   UNL     1      16.411  -9.452  26.098  0.00  0.00    +0.000 A 
ATOM     11  C   UNL     1      15.175  -8.825  25.978  0.00  0.00    +0.000 A 
ATOM     12  C   UNL     1      14.556  -8.678  24.771  0.00  0.00    +0.000 A 
BRANCH   7  14
ATOM     13  C   UNL     1      14.996  -8.622  21.189  0.00  0.00    +0.000 C 
ATOM     14  O   UNL     1      14.451  -8.964  22.437  0.00  0.00    +0.000 OA
ENDBRANCH   7  14
BRANCH  12  15
ATOM     15  O   UNL     1      13.321  -8.041  24.715  0.00  0.00    +0.000 OA
ATOM     16  C   UNL     1      12.364  -8.328  25.710  0.00  0.00    +0.000 C 
ENDBRANCH  12  15
ENDBRANCH   1  10
BRANCH   2  17
ATOM     17  C   UNL     1      18.615  -7.660  27.209  0.00  0.00    +0.000 A 
ATOM     18  C   UNL     1      19.703  -7.781  26.393  0.00  0.00    +0.000 A 
ATOM     19  C   UNL     1      20.221  -6.675  25.728  0.00  0.00    +0.000 A 
ATOM     20  C   UNL     1      19.640  -5.453  25.888  0.00  0.00    +0.000 A 
ATOM     21  C   UNL     1      18.528  -5.295  26.716  0.00  0.00    +0.000 A 
ATOM     22  C   UNL     1      18.037  -6.418  27.364  0.00  0.00    +0.000 A 
ENDBRANCH   2  17
TORSDOF 4
ENDMDL
MODEL 4
REMARK VINA RESULT:      -5.8     32.843     35.388
REMARK  Name = 
REMARK  4 active torsions:
REMARK  status: ('A' for Active; 'I' for Inactive)
REMARK    1  A    between atoms: O_2  and  C_3
REMARK    2  A    between atoms: C_6  and  C_7
REMARK    3  A    between atoms: C_8  and  C_9
REMARK    4  A    between atoms: C_20  and  O_21
REMARK                            x       y       z     vdW  Elec       q    Type
REMARK                         _______ _______ _______ _____ _____    ______ ____
ROOT
ATOM      1  C   UNL     1      19.093  -7.144  26.315  0.00  0.00    +0.000 A 
ATOM      2  C   UNL     1      20.259  -7.320  25.583  0.00  0.00    +0.000 A 
ATOM      3  N   UNL     1      20.680  -6.105  25.195  0.00  0.00    +0.000 NA
ATOM      4  O   UNL     1      19.854  -5.204  25.636  0.00  0.00    +0.000 OA
ATOM      5  C   UNL     1      18.871  -5.784  26.324  0.00  0.00    +0.000 A 
ATOM      6  N   UNL     1      17.787  -5.124  26.954  0.00  0.00    +0.000 NA
ENDROOT
BRANCH   1  10
ATOM      7  C   UNL     1      16.794 -10.201  28.220  0.00  0.00    +0.000 A 
ATOM      8  C   UNL     1      16.614  -9.906  26.893  0.00  0.00    +0.000 A 
ATOM      9  C   UNL     1      17.349  -8.914  26.241  0.00  0.00    +0.000 A 
ATOM     10  C   UNL     1      18.292  -8.195  26.929  0.00  0.00    +0.000 A 
ATOM     11  C   UNL     1      18.480  -8.490  28.275  0.00  0.00    +0.000 A 
ATOM     12  C   UNL     1      17.758  -9.460  28.907  0.00  0.00    +0.000 A 
BRANCH   7  14
ATOM     13  C   UNL     1      16.326 -12.540  28.874  0.00  0.00    +0.000 C 
ATOM     14  O   UNL     1      16.122 -11.152  28.936  0.00  0.00    +0.000 OA
ENDBRANCH   7  14
BRANCH  12  15
ATOM     15  O   UNL     1      17.991  -9.709  30.255  0.00  0.00    +0.000 OA
ATOM     16  C   UNL     1      19.319  -9.695  30.728  0.00  0.00    +0.000 C 
ENDBRANCH  12  15
ENDBRANCH   1  10
BRANCH   2  17
ATOM     17  C   UNL     1      20.855  -8.620  25.331  0.00  0.00    +0.000 A 
ATOM     18  C   UNL     1      21.679  -9.267  26.207  0.00  0.00    +0.000 A 
ATOM     19  C   UNL     1      22.216 -10.511  25.896  0.00  0.00    +0.000 A 
ATOM     20  C   UNL     1      21.919 -11.098  24.703  0.00  0.00    +0.000 A 
ATOM     21  C   UNL     1      21.081 -10.465  23.784  0.00  0.00    +0.000 A 
ATOM     22  C   UNL     1      20.564  -9.225  24.127  0.00  0.00    +0.000 A 
ENDBRANCH   2  17
TORSDOF 4
ENDMDL
MODEL 5
REMARK VINA RESULT:      -5.7      4.829      7.512
REMARK  Name = 
REMARK  4 active torsions:
REMARK  status: ('A' for Active; 'I' for Inactive)
REMARK    1  A    between atoms: O_2  and  C_3
REMARK    2  A    between atoms: C_6  and  C_7
REMARK    3  A    between atoms: C_8  and  C_9
REMARK    4  A    between atoms: C_20  and  O_21
REMARK                            x       y       z     vdW  Elec       q    Type
REMARK                         _______ _______ _______ _____ _____    ______ ____
ROOT
ATOM      1  C   UNL     1      30.812  22.431  30.063  0.00  0.00    +0.000 A 
ATOM      2  C   UNL     1      31.524  22.111  28.915  0.00  0.00    +0.000 A 
ATOM      3  N   UNL     1      32.575  21.362  29.288  0.00  0.00    +0.000 NA
ATOM      4  O   UNL     1      32.555  21.205  30.578  0.00  0.00    +0.000 OA
ATOM      5  C   UNL     1      31.502  21.835  31.096  0.00  0.00    +0.000 A 
ATOM      6  N   UNL     1      31.150  21.888  32.468  0.00  0.00    +0.000 NA
ENDROOT
BRANCH   1  10
ATOM      7  C   UNL     1      27.186  24.682  30.283  0.00  0.00    +0.000 A 
ATOM      8  C   UNL     1      28.392  25.303  30.082  0.00  0.00    +0.000 A 
ATOM      9  C   UNL     1      29.594  24.596  30.004  0.00  0.00    +0.000 A 
ATOM     10  C   UNL     1      29.597  23.232  30.130  0.00  0.00    +0.000 A 
ATOM     11  C   UNL     1      28.377  22.596  30.334  0.00  0.00    +0.000 A 
ATOM     12  C   UNL     1      27.206  23.291  30.410  0.00  0.00    +0.000 A 
BRANCH   7  14
ATOM     13  C   UNL     1      25.143  25.667  29.298  0.00  0.00    +0.000 C 
ATOM     14  O   UNL     1      25.966  25.291  30.372  0.00  0.00    +0.000 OA
ENDBRANCH   7  14
BRANCH  12  15
ATOM     15  O   UNL     1      26.017  22.598  30.616  0.00  0.00    +0.000 OA
ATOM     16  C   UNL     1      26.055  21.190  30.677  0.00  0.00    +0.000 C 
ENDBRANCH  12  15
ENDBRANCH   1  10
BRANCH   2  17
ATOM     17  C   UNL     1      31.132  22.545  27.586  0.00  0.00    +0.000 A 
ATOM     18  C   UNL     1      30.159  21.943  26.841  0.00  0.00    +0.000 A 
ATOM     19  C   UNL     1      29.838  22.412  25.572  0.00  0.00    +0.000 A 
ATOM     20  C   UNL     1      30.502  23.487  25.060  0.00  0.00    +0.000 A 
ATOM     21  C   UNL     1      31.503  24.124  25.793  0.00  0.00    +0.000 A 
ATOM     22  C   UNL     1      31.796  23.630  27.055  0.00  0.00    +0.000 A 
ENDBRANCH   2  17
TORSDOF 4
ENDMDL
MODEL 6
REMARK VINA RESULT:      -5.7     19.347     22.148
REMARK  Name = 
REMARK  4 active torsions:
REMARK  status: ('A' for Active; 'I' for Inactive)
REMARK    1  A    between atoms: O_2  and  C_3
REMARK    2  A    between atoms: C_6  and  C_7
REMARK    3  A    between atoms: C_8  and  C_9
REMARK    4  A    between atoms: C_20  and  O_21
REMARK                            x       y       z     vdW  Elec       q    Type
REMARK                         _______ _______ _______ _____ _____    ______ ____
ROOT
ATOM      1  C   UNL     1      18.023  10.725  37.946  0.00  0.00    +0.000 A 
ATOM      2  C   UNL     1      17.361   9.982  38.913  0.00  0.00    +0.000 A 
ATOM      3  N   UNL     1      16.049  10.254  38.803  0.00  0.00    +0.000 NA
ATOM      4  O   UNL     1      15.868  11.108  37.841  0.00  0.00    +0.000 OA
ATOM      5  C   UNL     1      17.037  11.426  37.287  0.00  0.00    +0.000 A 
ATOM      6  N   UNL     1      17.237  12.327  36.211  0.00  0.00    +0.000 NA
ENDROOT
BRANCH   1  10
ATOM      7  C   UNL     1      22.247  10.868  37.313  0.00  0.00    +0.000 A 
ATOM      8  C   UNL     1      21.477   9.898  36.724  0.00  0.00    +0.000 A 
ATOM      9  C   UNL     1      20.095   9.825  36.910  0.00  0.00    +0.000 A 
ATOM     10  C   UNL     1      19.460  10.742  37.705  0.00  0.00    +0.000 A 
ATOM     11  C   UNL     1      20.236  11.728  38.305  0.00  0.00    +0.000 A 
ATOM     12  C   UNL     1      21.586  11.796  38.120  0.00  0.00    +0.000 A 
BRANCH   7  14
ATOM     13  C   UNL     1      24.377  10.653  36.074  0.00  0.00    +0.000 C 
ATOM     14  O   UNL     1      23.600  11.015  37.187  0.00  0.00    +0.000 OA
ENDBRANCH   7  14
BRANCH  12  15
ATOM     15  O   UNL     1      22.307  12.806  38.748  0.00  0.00    +0.000 OA
ATOM     16  C   UNL     1      21.748  14.098  38.816  0.00  0.00    +0.000 C 
ENDBRANCH  12  15
ENDBRANCH   1  10
BRANCH   2  17
ATOM     17  C   UNL     1      18.037   9.091  39.839  0.00  0.00    +0.000 A 
ATOM     18  C   UNL     1      18.428   7.820  39.528  0.00  0.00    +0.000 A 
ATOM     19  C   UNL     1      19.070   7.022  40.468  0.00  0.00    +0.000 A 
ATOM     20  C   UNL     1      19.315   7.509  41.717  0.00  0.00    +0.000 A 
ATOM     21  C   UNL     1      18.929   8.803  42.068  0.00  0.00    +0.000 A 
ATOM     22  C   UNL     1      18.291   9.571  41.106  0.00  0.00    +0.000 A 
ENDBRANCH   2  17
TORSDOF 4
ENDMDL
MODEL 7
REMARK VINA RESULT:      -5.7     33.379     35.995
REMARK  Name = 
REMARK  4 active torsions:
REMARK  status: ('A' for Active; 'I' for Inactive)
REMARK    1  A    between atoms: O_2  and  C_3
REMARK    2  A    between atoms: C_6  and  C_7
REMARK    3  A    between atoms: C_8  and  C_9
REMARK    4  A    between atoms: C_20  and  O_21
REMARK                            x       y       z     vdW  Elec       q    Type
REMARK                         _______ _______ _______ _____ _____    ______ ____
ROOT
ATOM      1  C   UNL     1      16.980  -9.553  27.412  0.00  0.00    +0.000 A 
ATOM      2  C   UNL     1      17.959  -8.728  27.948  0.00  0.00    +0.000 A 
ATOM      3  N   UNL     1      18.258  -9.197  29.171  0.00  0.00    +0.000 NA
ATOM      4  O   UNL     1      17.531 -10.245  29.417  0.00  0.00    +0.000 OA
ATOM      5  C   UNL     1      16.737 -10.504  28.379  0.00  0.00    +0.000 A 
ATOM      6  N   UNL     1      15.805 -11.568  28.282  0.00  0.00    +0.000 NA
ENDROOT
BRANCH   1  10
ATOM      7  C   UNL     1      15.240  -9.214  23.524  0.00  0.00    +0.000 A 
ATOM      8  C   UNL     1      14.617  -8.686  24.625  0.00  0.00    +0.000 A 
ATOM      9  C   UNL     1      15.159  -8.778  25.908  0.00  0.00    +0.000 A 
ATOM     10  C   UNL     1      16.356  -9.416  26.102  0.00  0.00    +0.000 A 
ATOM     11  C   UNL     1      16.994  -9.954  24.989  0.00  0.00    +0.000 A 
ATOM     12  C   UNL     1      16.460  -9.860  23.738  0.00  0.00    +0.000 A 
BRANCH   7  14
ATOM     13  C   UNL     1      14.289  -8.039  21.566  0.00  0.00    +0.000 C 
ATOM     14  O   UNL     1      14.784  -9.170  22.236  0.00  0.00    +0.000 OA
ENDBRANCH   7  14
BRANCH  12  15
ATOM     15  O   UNL     1      17.145 -10.419  22.664  0.00  0.00    +0.000 OA
ATOM     16  C   UNL     1      18.546 -10.552  22.748  0.00  0.00    +0.000 C 
ENDBRANCH  12  15
ENDBRANCH   1  10
BRANCH   2  17
ATOM     17  C   UNL     1      18.511  -7.583  27.245  0.00  0.00    +0.000 A 
ATOM     18  C   UNL     1      18.009  -6.317  27.333  0.00  0.00    +0.000 A 
ATOM     19  C   UNL     1      18.590  -5.268  26.628  0.00  0.00    +0.000 A 
ATOM     20  C   UNL     1      19.674  -5.502  25.837  0.00  0.00    +0.000 A 
ATOM     21  C   UNL     1      20.212  -6.785  25.722  0.00  0.00    +0.000 A 
ATOM     22  C   UNL     1      19.608  -7.806  26.440  0.00  0.00    +0.000 A 
ENDBRANCH   2  17
TORSDOF 4
ENDMDL
MODEL 8
REMARK VINA RESULT:      -5.7      3.725      6.154
REMARK  Name = 
REMARK  4 active torsions:
REMARK  status: ('A' for Active; 'I' for Inactive)
REMARK    1  A    between atoms: O_2  and  C_3
REMARK    2  A    between atoms: C_6  and  C_7
REMARK    3  A    between atoms: C_8  and  C_9
REMARK    4  A    between atoms: C_20  and  O_21
REMARK                            x       y       z     vdW  Elec       q    Type
REMARK                         _______ _______ _______ _____ _____    ______ ____
ROOT
ATOM      1  C   UNL     1      26.214  23.891  28.355  0.00  0.00    +0.000 A 
ATOM      2  C   UNL     1      25.461  24.973  28.790  0.00  0.00    +0.000 A 
ATOM      3  N   UNL     1      25.268  24.825  30.111  0.00  0.00    +0.000 NA
ATOM      4  O   UNL     1      25.847  23.732  30.509  0.00  0.00    +0.000 OA
ATOM      5  C   UNL     1      26.437  23.128  29.480  0.00  0.00    +0.000 A 
ATOM      6  N   UNL     1      27.166  21.913  29.527  0.00  0.00    +0.000 NA
ENDROOT
BRANCH   1  10
ATOM      7  C   UNL     1      27.625  23.172  24.386  0.00  0.00    +0.000 A 
ATOM      8  C   UNL     1      26.291  23.080  24.688  0.00  0.00    +0.000 A 
ATOM      9  C   UNL     1      25.798  23.310  25.974  0.00  0.00    +0.000 A 
ATOM     10  C   UNL     1      26.657  23.641  26.989  0.00  0.00    +0.000 A 
ATOM     11  C   UNL     1      28.011  23.735  26.689  0.00  0.00    +0.000 A 
ATOM     12  C   UNL     1      28.488  23.509  25.431  0.00  0.00    +0.000 A 
BRANCH   7  14
ATOM     13  C   UNL     1      28.183  23.857  22.076  0.00  0.00    +0.000 C 
ATOM     14  O   UNL     1      28.194  22.964  23.160  0.00  0.00    +0.000 OA
ENDBRANCH   7  14
BRANCH  12  15
ATOM     15  O   UNL     1      29.854  23.619  25.193  0.00  0.00    +0.000 OA
ATOM     16  C   UNL     1      30.717  22.646  25.737  0.00  0.00    +0.000 C 
ENDBRANCH  12  15
ENDBRANCH   1  10
BRANCH   2  17
ATOM     17  C   UNL     1      25.006  26.035  27.910  0.00  0.00    +0.000 A 
ATOM     18  C   UNL     1      25.760  27.120  27.568  0.00  0.00    +0.000 A 
ATOM     19  C   UNL     1      25.256  28.101  26.721  0.00  0.00    +0.000 A 
ATOM     20  C   UNL     1      23.994  27.982  26.222  0.00  0.00    +0.000 A 
ATOM     21  C   UNL     1      23.195  26.886  26.551  0.00  0.00    +0.000 A 
ATOM     22  C   UNL     1      23.730  25.927  27.399  0.00  0.00    +0.000 A 
ENDBRANCH   2  17
TORSDOF 4
ENDMDL
MODEL 9
REMARK VINA RESULT:      -5.6     33.077     35.380
REMARK  Name = 
REMARK  4 active torsions:
REMARK  status: ('A' for Active; 'I' for Inactive)
REMARK    1  A    between atoms: O_2  and  C_3
REMARK    2  A    between atoms: C_6  and  C_7
REMARK    3  A    between atoms: C_8  and  C_9
REMARK    4  A    between atoms: C_20  and  O_21
REMARK                            x       y       z     vdW  Elec       q    Type
REMARK                         _______ _______ _______ _____ _____    ______ ____
ROOT
ATOM      1  C   UNL     1      18.746  -7.388  26.277  0.00  0.00    +0.000 A 
ATOM      2  C   UNL     1      17.563  -7.580  26.978  0.00  0.00    +0.000 A 
ATOM      3  N   UNL     1      17.059  -6.366  27.258  0.00  0.00    +0.000 NA
ATOM      4  O   UNL     1      17.851  -5.452  26.780  0.00  0.00    +0.000 OA
ATOM      5  C   UNL     1      18.891  -6.022  26.173  0.00  0.00    +0.000 A 
ATOM      6  N   UNL     1      19.961  -5.347  25.534  0.00  0.00    +0.000 NA
ENDROOT
BRANCH   1  10
ATOM      7  C   UNL     1      21.403 -10.437  24.898  0.00  0.00    +0.000 A 
ATOM      8  C   UNL     1      20.289 -10.093  24.176  0.00  0.00    +0.000 A 
ATOM      9  C   UNL     1      19.402  -9.100  24.599  0.00  0.00    +0.000 A 
ATOM     10  C   UNL     1      19.629  -8.432  25.773  0.00  0.00    +0.000 A 
ATOM     11  C   UNL     1      20.758  -8.777  26.509  0.00  0.00    +0.000 A 
ATOM     12  C   UNL     1      21.621  -9.747  26.092  0.00  0.00    +0.000 A 
BRANCH   7  14
ATOM     13  C   UNL     1      22.133 -12.783  24.613  0.00  0.00    +0.000 C 
ATOM     14  O   UNL     1      22.322 -11.392  24.561  0.00  0.00    +0.000 OA
ENDBRANCH   7  14
BRANCH  12  15
ATOM     15  O   UNL     1      22.733 -10.048  26.873  0.00  0.00    +0.000 OA
ATOM     16  C   UNL     1      22.572 -10.905  27.981  0.00  0.00    +0.000 C 
ENDBRANCH  12  15
ENDBRANCH   1  10
BRANCH   2  17
ATOM     17  C   UNL     1      17.032  -8.891  27.306  0.00  0.00    +0.000 A 
ATOM     18  C   UNL     1      17.423  -9.624  28.389  0.00  0.00    +0.000 A 
ATOM     19  C   UNL     1      16.871 -10.875  28.640  0.00  0.00    +0.000 A 
ATOM     20  C   UNL     1      15.928 -11.381  27.797  0.00  0.00    +0.000 A 
ATOM     21  C   UNL     1      15.507 -10.659  26.680  0.00  0.00    +0.000 A 
ATOM     22  C   UNL     1      16.078  -9.414  26.460  0.00  0.00    +0.000 A 
ENDBRANCH   2  17
TORSDOF 4
ENDMDL
MODEL 10
REMARK VINA RESULT:      -5.6      1.503      2.751
REMARK  Name = 
REMARK  4 active torsions:
REMARK  status: ('A' for Active; 'I' for Inactive)
REMARK    1  A    between atoms: O_2  and  C_3
REMARK    2  A    between atoms: C_6  and  C_7
REMARK    3  A    between atoms: C_8  and  C_9
REMARK    4  A    between atoms: C_20  and  O_21
REMARK                            x       y       z     vdW  Elec       q    Type
REMARK                         _______ _______ _______ _____ _____    ______ ____
ROOT
ATOM      1  C   UNL     1      28.150  24.587  23.180  0.00  0.00    +0.000 A 
ATOM      2  C   UNL     1      26.918  24.061  23.545  0.00  0.00    +0.000 A 
ATOM      3  N   UNL     1      26.507  23.264  22.544  0.00  0.00    +0.000 NA
ATOM      4  O   UNL     1      27.398  23.270  21.598  0.00  0.00    +0.000 OA
ATOM      5  C   UNL     1      28.417  24.059  21.936  0.00  0.00    +0.000 A 
ATOM      6  N   UNL     1      29.573  24.313  21.157  0.00  0.00    +0.000 NA
ENDROOT
BRANCH   1  10
ATOM      7  C   UNL     1      30.597  27.186  25.529  0.00  0.00    +0.000 A 
ATOM      8  C   UNL     1      29.642  27.689  24.683  0.00  0.00    +0.000 A 
ATOM      9  C   UNL     1      28.825  26.867  23.904  0.00  0.00    +0.000 A 
ATOM     10  C   UNL     1      28.964  25.505  23.966  0.00  0.00    +0.000 A 
ATOM     11  C   UNL     1      29.931  24.989  24.822  0.00  0.00    +0.000 A 
ATOM     12  C   UNL     1      30.726  25.796  25.582  0.00  0.00    +0.000 A 
BRANCH   7  14
ATOM     13  C   UNL     1      32.518  28.701  25.895  0.00  0.00    +0.000 C 
ATOM     14  O   UNL     1      31.437  27.913  26.325  0.00  0.00    +0.000 OA
ENDBRANCH   7  14
BRANCH  12  15
ATOM     15  O   UNL     1      31.676  25.220  26.419  0.00  0.00    +0.000 OA
ATOM     16  C   UNL     1      31.722  23.816  26.528  0.00  0.00    +0.000 C 
ENDBRANCH  12  15
ENDBRANCH   1  10
BRANCH   2  17
ATOM     17  C   UNL     1      26.261  24.364  24.804  0.00  0.00    +0.000 A 
ATOM     18  C   UNL     1      25.372  25.385  24.975  0.00  0.00    +0.000 A 
ATOM     19  C   UNL     1      24.783  25.618  26.213  0.00  0.00    +0.000 A 
ATOM     20  C   UNL     1      25.093  24.820  27.273  0.00  0.00    +0.000 A 
ATOM     21  C   UNL     1      25.999  23.768  27.133  0.00  0.00    +0.000 A 
ATOM     22  C   UNL     1      26.568  23.564  25.884  0.00  0.00    +0.000 A 
ENDBRANCH   2  17
TORSDOF 4
ENDMDL
