MODEL 1
REMARK VINA RESULT:      -8.0      0.000      0.000
REMARK  Name = 
REMARK  9 active torsions:
REMARK  status: ('A' for Active; 'I' for Inactive)
REMARK    1  A    between atoms: C_2  and  O_3
REMARK    2  A    between atoms: O_3  and  C_4
REMARK    3  A    between atoms: C_4  and  C_6
REMARK    4  A    between atoms: N_14  and  C_15
REMARK    5  A    between atoms: C_15  and  C_16
REMARK    6  A    between atoms: N_18  and  C_19
REMARK    7  A    between atoms: C_22  and  O_23
REMARK    8  A    between atoms: O_23  and  C_24
REMARK    9  A    between atoms: C_24  and  C_25
REMARK                            x       y       z     vdW  Elec       q    Type
REMARK                         _______ _______ _______ _____ _____    ______ ____
ROOT
ATOM      1  C   UNL     1      13.165   1.155  27.709  0.00  0.00    +0.000 C 
ATOM      2  O   UNL     1      13.609   2.181  27.137  0.00  0.00    +0.000 OA
ATOM      3  N   UNL     1      13.976   0.000  27.790  0.00  0.00    +0.000 NA
ENDROOT
BRANCH   3   4
ATOM      4  C   UNL     1      15.285   0.052  27.204  0.00  0.00    +0.000 A 
ATOM      5  C   UNL     1      15.550  -0.255  25.904  0.00  0.00    +0.000 A 
ATOM      6  C   UNL     1      16.833  -0.198  25.428  0.00  0.00    +0.000 A 
ATOM      7  C   UNL     1      17.901   0.169  26.244  0.00  0.00    +0.000 A 
ATOM      8  C   UNL     1      17.630   0.478  27.556  0.00  0.00    +0.000 A 
ATOM      9  C   UNL     1      16.343   0.421  28.030  0.00  0.00    +0.000 A 
BRANCH   7  10
ATOM     10  O   UNL     1      19.187   0.222  25.742  0.00  0.00    +0.000 OA
BRANCH  10  11
ATOM     11  C   UNL     1      19.772  -0.835  25.048  0.00  0.00    +0.000 C 
BRANCH  11  12
ATOM     12  C   UNL     1      19.982  -0.543  23.627  0.00  0.00    +0.000 A 
ATOM     13  C   UNL     1      20.304  -1.554  22.755  0.00  0.00    +0.000 A 
ATOM     14  C   UNL     1      20.513  -1.294  21.389  0.00  0.00    +0.000 A 
ATOM     15  C   UNL     1      20.400  -0.027  20.916  0.00  0.00    +0.000 A 
ATOM     16  C   UNL     1      20.077   0.987  21.790  0.00  0.00    +0.000 A 
ATOM     17  C   UNL     1      19.861   0.765  23.153  0.00  0.00    +0.000 A 
ENDBRANCH  11  12
ENDBRANCH  10  11
ENDBRANCH   7  10
ENDBRANCH   3   4
BRANCH   1  18
ATOM     18  C   UNL     1      11.811   1.178  28.279  0.00  0.00    +0.000 C 
BRANCH  18  27
ATOM     19  C   UNL     1      10.242   2.285  26.716  0.00  0.00    +0.000 A 
ATOM     20  C   UNL     1       9.393   1.841  25.693  0.00  0.00    +0.000 A 
ATOM     21  C   UNL     1       9.497   0.477  25.547  0.00  0.00    +0.000 A 
ATOM     22  C   UNL     1      10.419   0.082  26.490  0.00  0.00    +0.000 A 
ATOM     23  C   UNL     1      10.592  -1.290  26.419  0.00  0.00    +0.000 A 
ATOM     24  C   UNL     1       9.737  -1.709  25.394  0.00  0.00    +0.000 A 
ATOM     25  N   UNL     1       9.105  -0.648  24.897  0.00  0.00    +0.000 N 
ATOM     26  C   UNL     1       8.141  -0.660  23.825  0.00  0.00    +0.000 C 
ATOM     27  N   UNL     1      10.849   1.187  27.176  0.00  0.00    +0.000 N 
BRANCH  19  28
ATOM     28  C   UNL     1      10.350   3.693  27.138  0.00  0.00    +0.000 C 
ATOM     29  O   UNL     1      10.988   4.488  26.444  0.00  0.00    +0.000 OA
BRANCH  28  30
ATOM     30  O   UNL     1       9.745   4.128  28.303  0.00  0.00    +0.000 OA
BRANCH  30  32
ATOM     31  C   UNL     1       7.775   5.319  27.792  0.00  0.00    +0.000 C 
ATOM     32  C   UNL     1       8.352   4.113  28.552  0.00  0.00    +0.000 C 
ENDBRANCH  30  32
ENDBRANCH  28  30
ENDBRANCH  19  28
ENDBRANCH  18  27
ENDBRANCH   1  18
TORSDOF 9
ENDMDL
MODEL 2
REMARK VINA RESULT:      -7.9      1.423      2.193
REMARK  Name = 
REMARK  9 active torsions:
REMARK  status: ('A' for Active; 'I' for Inactive)
REMARK    1  A    between atoms: C_2  and  O_3
REMARK    2  A    between atoms: O_3  and  C_4
REMARK    3  A    between atoms: C_4  and  C_6
REMARK    4  A    between atoms: N_14  and  C_15
REMARK    5  A    between atoms: C_15  and  C_16
REMARK    6  A    between atoms: N_18  and  C_19
REMARK    7  A    between atoms: C_22  and  O_23
REMARK    8  A    between atoms: O_23  and  C_24
REMARK    9  A    between atoms: C_24  and  C_25
REMARK                            x       y       z     vdW  Elec       q    Type
REMARK                         _______ _______ _______ _____ _____    ______ ____
ROOT
ATOM      1  C   UNL     1      13.539   0.293  27.566  0.00  0.00    +0.000 C 
ATOM      2  O   UNL     1      13.765   1.512  27.367  0.00  0.00    +0.000 OA
ATOM      3  N   UNL     1      14.555  -0.654  27.300  0.00  0.00    +0.000 NA
ENDROOT
BRANCH   3   4
ATOM      4  C   UNL     1      15.812  -0.174  26.804  0.00  0.00    +0.000 A 
ATOM      5  C   UNL     1      16.793   0.346  27.593  0.00  0.00    +0.000 A 
ATOM      6  C   UNL     1      17.959   0.801  27.036  0.00  0.00    +0.000 A 
ATOM      7  C   UNL     1      18.184   0.749  25.662  0.00  0.00    +0.000 A 
ATOM      8  C   UNL     1      17.191   0.223  24.869  0.00  0.00    +0.000 A 
ATOM      9  C   UNL     1      16.023  -0.232  25.430  0.00  0.00    +0.000 A 
BRANCH   7  10
ATOM     10  O   UNL     1      19.369   1.212  25.122  0.00  0.00    +0.000 OA
BRANCH  10  11
ATOM     11  C   UNL     1      20.477   0.393  24.919  0.00  0.00    +0.000 C 
BRANCH  11  12
ATOM     12  C   UNL     1      20.484  -0.247  23.600  0.00  0.00    +0.000 A 
ATOM     13  C   UNL     1      20.841   0.471  22.486  0.00  0.00    +0.000 A 
ATOM     14  C   UNL     1      20.850  -0.125  21.212  0.00  0.00    +0.000 A 
ATOM     15  C   UNL     1      20.500  -1.427  21.071  0.00  0.00    +0.000 A 
ATOM     16  C   UNL     1      20.140  -2.148  22.188  0.00  0.00    +0.000 A 
ATOM     17  C   UNL     1      20.122  -1.590  23.469  0.00  0.00    +0.000 A 
ENDBRANCH  11  12
ENDBRANCH  10  11
ENDBRANCH   7  10
ENDBRANCH   3   4
BRANCH   1  18
ATOM     18  C   UNL     1      12.223  -0.121  28.071  0.00  0.00    +0.000 C 
BRANCH  18  27
ATOM     19  C   UNL     1      10.513   0.427  26.365  0.00  0.00    +0.000 A 
ATOM     20  C   UNL     1       9.890  -0.284  25.331  0.00  0.00    +0.000 A 
ATOM     21  C   UNL     1      10.377  -1.569  25.275  0.00  0.00    +0.000 A 
ATOM     22  C   UNL     1      11.308  -1.646  26.286  0.00  0.00    +0.000 A 
ATOM     23  C   UNL     1      11.860  -2.916  26.310  0.00  0.00    +0.000 A 
ATOM     24  C   UNL     1      11.224  -3.604  25.271  0.00  0.00    +0.000 A 
ATOM     25  N   UNL     1      10.356  -2.787  24.679  0.00  0.00    +0.000 N 
ATOM     26  C   UNL     1       9.505  -3.119  23.563  0.00  0.00    +0.000 C 
ATOM     27  N   UNL     1      11.369  -0.433  26.922  0.00  0.00    +0.000 N 
BRANCH  19  28
ATOM     28  C   UNL     1      10.199   1.827  26.703  0.00  0.00    +0.000 C 
ATOM     29  O   UNL     1       9.354   2.069  27.568  0.00  0.00    +0.000 OA
BRANCH  28  30
ATOM     30  O   UNL     1      10.842   2.869  26.058  0.00  0.00    +0.000 OA
BRANCH  30  32
ATOM     31  C   UNL     1      12.144   4.502  27.151  0.00  0.00    +0.000 C 
ATOM     32  C   UNL     1      10.799   4.225  26.459  0.00  0.00    +0.000 C 
ENDBRANCH  30  32
ENDBRANCH  28  30
ENDBRANCH  19  28
ENDBRANCH  18  27
ENDBRANCH   1  18
TORSDOF 9
ENDMDL
MODEL 3
REMARK VINA RESULT:      -7.7      2.216      4.026
REMARK  Name = 
REMARK  9 active torsions:
REMARK  status: ('A' for Active; 'I' for Inactive)
REMARK    1  A    between atoms: C_2  and  O_3
REMARK    2  A    between atoms: O_3  and  C_4
REMARK    3  A    between atoms: C_4  and  C_6
REMARK    4  A    between atoms: N_14  and  C_15
REMARK    5  A    between atoms: C_15  and  C_16
REMARK    6  A    between atoms: N_18  and  C_19
REMARK    7  A    between atoms: C_22  and  O_23
REMARK    8  A    between atoms: O_23  and  C_24
REMARK    9  A    between atoms: C_24  and  C_25
REMARK                            x       y       z     vdW  Elec       q    Type
REMARK                         _______ _______ _______ _____ _____    ______ ____
ROOT
ATOM      1  C   UNL     1      13.323   0.516  27.656  0.00  0.00    +0.000 C 
ATOM      2  O   UNL     1      13.555   1.695  27.293  0.00  0.00    +0.000 OA
ATOM      3  N   UNL     1      14.339  -0.459  27.539  0.00  0.00    +0.000 NA
ENDROOT
BRANCH   3   4
ATOM      4  C   UNL     1      15.605  -0.054  27.000  0.00  0.00    +0.000 A 
ATOM      5  C   UNL     1      16.611   0.488  27.742  0.00  0.00    +0.000 A 
ATOM      6  C   UNL     1      17.783   0.866  27.144  0.00  0.00    +0.000 A 
ATOM      7  C   UNL     1      17.991   0.714  25.775  0.00  0.00    +0.000 A 
ATOM      8  C   UNL     1      16.974   0.166  25.029  0.00  0.00    +0.000 A 
ATOM      9  C   UNL     1      15.799  -0.214  25.630  0.00  0.00    +0.000 A 
BRANCH   7  10
ATOM     10  O   UNL     1      19.183   1.100  25.193  0.00  0.00    +0.000 OA
BRANCH  10  11
ATOM     11  C   UNL     1      20.259   0.232  25.025  0.00  0.00    +0.000 C 
BRANCH  11  12
ATOM     12  C   UNL     1      20.365  -0.294  23.661  0.00  0.00    +0.000 A 
ATOM     13  C   UNL     1      20.742   0.531  22.630  0.00  0.00    +0.000 A 
ATOM     14  C   UNL     1      20.846   0.045  21.315  0.00  0.00    +0.000 A 
ATOM     15  C   UNL     1      20.569  -1.256  21.049  0.00  0.00    +0.000 A 
ATOM     16  C   UNL     1      20.189  -2.084  22.082  0.00  0.00    +0.000 A 
ATOM     17  C   UNL     1      20.078  -1.636  23.401  0.00  0.00    +0.000 A 
ENDBRANCH  11  12
ENDBRANCH  10  11
ENDBRANCH   7  10
ENDBRANCH   3   4
BRANCH   1  18
ATOM     18  C   UNL     1      11.998   0.177  28.194  0.00  0.00    +0.000 C 
BRANCH  18  27
ATOM     19  C   UNL     1      11.182   1.851  29.826  0.00  0.00    +0.000 A 
ATOM     20  C   UNL     1      11.371   2.063  31.199  0.00  0.00    +0.000 A 
ATOM     21  C   UNL     1      12.190   1.089  31.722  0.00  0.00    +0.000 A 
ATOM     22  C   UNL     1      12.505   0.274  30.660  0.00  0.00    +0.000 A 
ATOM     23  C   UNL     1      13.335  -0.747  31.093  0.00  0.00    +0.000 A 
ATOM     24  C   UNL     1      13.508  -0.515  32.461  0.00  0.00    +0.000 A 
ATOM     25  N   UNL     1      12.822   0.573  32.805  0.00  0.00    +0.000 N 
ATOM     26  C   UNL     1      12.743   1.142  34.128  0.00  0.00    +0.000 C 
ATOM     27  N   UNL     1      11.886   0.754  29.535  0.00  0.00    +0.000 N 
BRANCH  19  28
ATOM     28  C   UNL     1      10.372   2.732  28.965  0.00  0.00    +0.000 C 
ATOM     29  O   UNL     1       9.151   2.574  28.911  0.00  0.00    +0.000 OA
BRANCH  28  30
ATOM     30  O   UNL     1      10.971   3.731  28.218  0.00  0.00    +0.000 OA
BRANCH  30  32
ATOM     31  C   UNL     1      10.603   2.899  26.043  0.00  0.00    +0.000 C 
ATOM     32  C   UNL     1      10.552   4.151  26.934  0.00  0.00    +0.000 C 
ENDBRANCH  30  32
ENDBRANCH  28  30
ENDBRANCH  19  28
ENDBRANCH  18  27
ENDBRANCH   1  18
TORSDOF 9
ENDMDL
MODEL 4
REMARK VINA RESULT:      -7.5      2.493      4.434
REMARK  Name = 
REMARK  9 active torsions:
REMARK  status: ('A' for Active; 'I' for Inactive)
REMARK    1  A    between atoms: C_2  and  O_3
REMARK    2  A    between atoms: O_3  and  C_4
REMARK    3  A    between atoms: C_4  and  C_6
REMARK    4  A    between atoms: N_14  and  C_15
REMARK    5  A    between atoms: C_15  and  C_16
REMARK    6  A    between atoms: N_18  and  C_19
REMARK    7  A    between atoms: C_22  and  O_23
REMARK    8  A    between atoms: O_23  and  C_24
REMARK    9  A    between atoms: C_24  and  C_25
REMARK                            x       y       z     vdW  Elec       q    Type
REMARK                         _______ _______ _______ _____ _____    ______ ____
ROOT
ATOM      1  C   UNL     1      12.941   0.332  27.680  0.00  0.00    +0.000 C 
ATOM      2  O   UNL     1      12.916   1.254  26.828  0.00  0.00    +0.000 OA
ATOM      3  N   UNL     1      14.159  -0.336  27.944  0.00  0.00    +0.000 NA
ENDROOT
BRANCH   3   4
ATOM      4  C   UNL     1      15.325   0.072  27.214  0.00  0.00    +0.000 A 
ATOM      5  C   UNL     1      16.218   0.998  27.662  0.00  0.00    +0.000 A 
ATOM      6  C   UNL     1      17.296   1.346  26.893  0.00  0.00    +0.000 A 
ATOM      7  C   UNL     1      17.519   0.774  25.642  0.00  0.00    +0.000 A 
ATOM      8  C   UNL     1      16.616  -0.160  25.194  0.00  0.00    +0.000 A 
ATOM      9  C   UNL     1      15.535  -0.508  25.966  0.00  0.00    +0.000 A 
BRANCH   7  10
ATOM     10  O   UNL     1      18.616   1.138  24.884  0.00  0.00    +0.000 OA
BRANCH  10  11
ATOM     11  C   UNL     1      19.814   0.429  24.898  0.00  0.00    +0.000 C 
BRANCH  11  12
ATOM     12  C   UNL     1      20.120  -0.209  23.615  0.00  0.00    +0.000 A 
ATOM     13  C   UNL     1      20.574   0.545  22.560  0.00  0.00    +0.000 A 
ATOM     14  C   UNL     1      20.869  -0.048  21.320  0.00  0.00    +0.000 A 
ATOM     15  C   UNL     1      20.703  -1.384  21.151  0.00  0.00    +0.000 A 
ATOM     16  C   UNL     1      20.247  -2.141  22.208  0.00  0.00    +0.000 A 
ATOM     17  C   UNL     1      19.947  -1.585  23.455  0.00  0.00    +0.000 A 
ENDBRANCH  11  12
ENDBRANCH  10  11
ENDBRANCH   7  10
ENDBRANCH   3   4
BRANCH   1  18
ATOM     18  C   UNL     1      11.703  -0.032  28.383  0.00  0.00    +0.000 C 
BRANCH  18  27
ATOM     19  C   UNL     1      11.867   1.091  30.584  0.00  0.00    +0.000 A 
ATOM     20  C   UNL     1      11.294   2.238  31.149  0.00  0.00    +0.000 A 
ATOM     21  C   UNL     1      10.474   2.860  30.237  0.00  0.00    +0.000 A 
ATOM     22  C   UNL     1      10.545   2.085  29.101  0.00  0.00    +0.000 A 
ATOM     23  C   UNL     1       9.743   2.637  28.116  0.00  0.00    +0.000 A 
ATOM     24  C   UNL     1       9.184   3.778  28.703  0.00  0.00    +0.000 A 
ATOM     25  N   UNL     1       9.632   3.885  29.952  0.00  0.00    +0.000 N 
ATOM     26  C   UNL     1       9.292   4.927  30.888  0.00  0.00    +0.000 C 
ATOM     27  N   UNL     1      11.388   1.032  29.338  0.00  0.00    +0.000 N 
BRANCH  19  28
ATOM     28  C   UNL     1      12.780   0.188  31.308  0.00  0.00    +0.000 C 
ATOM     29  O   UNL     1      12.421  -0.965  31.560  0.00  0.00    +0.000 OA
BRANCH  28  30
ATOM     30  O   UNL     1      14.031   0.622  31.706  0.00  0.00    +0.000 OA
BRANCH  30  32
ATOM     31  C   UNL     1      14.572   2.352  33.214  0.00  0.00    +0.000 C 
ATOM     32  C   UNL     1      14.434   0.829  33.046  0.00  0.00    +0.000 C 
ENDBRANCH  30  32
ENDBRANCH  28  30
ENDBRANCH  19  28
ENDBRANCH  18  27
ENDBRANCH   1  18
TORSDOF 9
ENDMDL
MODEL 5
REMARK VINA RESULT:      -7.5      1.917      3.809
REMARK  Name = 
REMARK  9 active torsions:
REMARK  status: ('A' for Active; 'I' for Inactive)
REMARK    1  A    between atoms: C_2  and  O_3
REMARK    2  A    between atoms: O_3  and  C_4
REMARK    3  A    between atoms: C_4  and  C_6
REMARK    4  A    between atoms: N_14  and  C_15
REMARK    5  A    between atoms: C_15  and  C_16
REMARK    6  A    between atoms: N_18  and  C_19
REMARK    7  A    between atoms: C_22  and  O_23
REMARK    8  A    between atoms: O_23  and  C_24
REMARK    9  A    between atoms: C_24  and  C_25
REMARK                            x       y       z     vdW  Elec       q    Type
REMARK                         _______ _______ _______ _____ _____    ______ ____
ROOT
ATOM      1  C   UNL     1      13.154   0.609  27.901  0.00  0.00    +0.000 C 
ATOM      2  O   UNL     1      13.292   1.705  27.304  0.00  0.00    +0.000 OA
ATOM      3  N   UNL     1      14.225  -0.313  27.917  0.00  0.00    +0.000 NA
ENDROOT
BRANCH   3   4
ATOM      4  C   UNL     1      15.436   0.048  27.238  0.00  0.00    +0.000 A 
ATOM      5  C   UNL     1      16.433   0.787  27.799  0.00  0.00    +0.000 A 
ATOM      6  C   UNL     1      17.550   1.104  27.073  0.00  0.00    +0.000 A 
ATOM      7  C   UNL     1      17.709   0.689  25.753  0.00  0.00    +0.000 A 
ATOM      8  C   UNL     1      16.701  -0.057  25.190  0.00  0.00    +0.000 A 
ATOM      9  C   UNL     1      15.581  -0.375  25.919  0.00  0.00    +0.000 A 
BRANCH   7  10
ATOM     10  O   UNL     1      18.846   1.019  25.041  0.00  0.00    +0.000 OA
BRANCH  10  11
ATOM     11  C   UNL     1      19.959   0.186  24.966  0.00  0.00    +0.000 C 
BRANCH  11  12
ATOM     12  C   UNL     1      20.142  -0.412  23.641  0.00  0.00    +0.000 A 
ATOM     13  C   UNL     1      20.490   0.374  22.570  0.00  0.00    +0.000 A 
ATOM     14  C   UNL     1      20.666  -0.181  21.290  0.00  0.00    +0.000 A 
ATOM     15  C   UNL     1      20.489  -1.512  21.099  0.00  0.00    +0.000 A 
ATOM     16  C   UNL     1      20.139  -2.301  22.172  0.00  0.00    +0.000 A 
ATOM     17  C   UNL     1      19.958  -1.784  23.458  0.00  0.00    +0.000 A 
ENDBRANCH  11  12
ENDBRANCH  10  11
ENDBRANCH   7  10
ENDBRANCH   3   4
BRANCH   1  18
ATOM     18  C   UNL     1      11.880   0.309  28.570  0.00  0.00    +0.000 C 
BRANCH  18  27
ATOM     19  C   UNL     1      10.618  -0.662  26.672  0.00  0.00    +0.000 A 
ATOM     20  C   UNL     1       9.536  -0.238  25.889  0.00  0.00    +0.000 A 
ATOM     21  C   UNL     1       9.095   0.994  26.313  0.00  0.00    +0.000 A 
ATOM     22  C   UNL     1       9.915   1.328  27.367  0.00  0.00    +0.000 A 
ATOM     23  C   UNL     1       9.544   2.565  27.865  0.00  0.00    +0.000 A 
ATOM     24  C   UNL     1       8.465   2.966  27.070  0.00  0.00    +0.000 A 
ATOM     25  N   UNL     1       8.222   2.021  26.165  0.00  0.00    +0.000 N 
ATOM     26  C   UNL     1       7.187   2.056  25.160  0.00  0.00    +0.000 C 
ATOM     27  N   UNL     1      10.819   0.316  27.560  0.00  0.00    +0.000 N 
BRANCH  19  28
ATOM     28  C   UNL     1      11.335  -1.932  26.461  0.00  0.00    +0.000 C 
ATOM     29  O   UNL     1      12.044  -2.072  25.462  0.00  0.00    +0.000 OA
BRANCH  28  30
ATOM     30  O   UNL     1      11.219  -2.966  27.373  0.00  0.00    +0.000 OA
BRANCH  30  32
ATOM     31  C   UNL     1      12.624  -4.832  27.692  0.00  0.00    +0.000 C 
ATOM     32  C   UNL     1      12.258  -3.432  28.213  0.00  0.00    +0.000 C 
ENDBRANCH  30  32
ENDBRANCH  28  30
ENDBRANCH  19  28
ENDBRANCH  18  27
ENDBRANCH   1  18
TORSDOF 9
ENDMDL
MODEL 6
REMARK VINA RESULT:      -7.3     23.818     27.330
REMARK  Name = 
REMARK  9 active torsions:
REMARK  status: ('A' for Active; 'I' for Inactive)
REMARK    1  A    between atoms: C_2  and  O_3
REMARK    2  A    between atoms: O_3  and  C_4
REMARK    3  A    between atoms: C_4  and  C_6
REMARK    4  A    between atoms: N_14  and  C_15
REMARK    5  A    between atoms: C_15  and  C_16
REMARK    6  A    between atoms: N_18  and  C_19
REMARK    7  A    between atoms: C_22  and  O_23
REMARK    8  A    between atoms: O_23  and  C_24
REMARK    9  A    between atoms: C_24  and  C_25
REMARK                            x       y       z     vdW  Elec       q    Type
REMARK                         _______ _______ _______ _____ _____    ______ ____
ROOT
ATOM      1  C   UNL     1      38.208   2.846  14.691  0.00  0.00    +0.000 C 
ATOM      2  O   UNL     1      39.311   2.363  15.046  0.00  0.00    +0.000 OA
ATOM      3  N   UNL     1      37.799   4.096  15.207  0.00  0.00    +0.000 NA
ENDROOT
BRANCH   3   4
ATOM      4  C   UNL     1      38.672   4.764  16.129  0.00  0.00    +0.000 A 
ATOM      5  C   UNL     1      39.753   5.503  15.754  0.00  0.00    +0.000 A 
ATOM      6  C   UNL     1      40.547   6.093  16.702  0.00  0.00    +0.000 A 
ATOM      7  C   UNL     1      40.284   5.963  18.063  0.00  0.00    +0.000 A 
ATOM      8  C   UNL     1      39.191   5.217  18.437  0.00  0.00    +0.000 A 
ATOM      9  C   UNL     1      38.396   4.627  17.486  0.00  0.00    +0.000 A 
BRANCH   7  10
ATOM     10  O   UNL     1      41.098   6.570  19.001  0.00  0.00    +0.000 OA
BRANCH  10  11
ATOM     11  C   UNL     1      40.672   6.867  20.293  0.00  0.00    +0.000 C 
BRANCH  11  12
ATOM     12  C   UNL     1      39.994   8.163  20.391  0.00  0.00    +0.000 A 
ATOM     13  C   UNL     1      38.631   8.219  20.548  0.00  0.00    +0.000 A 
ATOM     14  C   UNL     1      37.963   9.453  20.640  0.00  0.00    +0.000 A 
ATOM     15  C   UNL     1      38.667  10.611  20.572  0.00  0.00    +0.000 A 
ATOM     16  C   UNL     1      40.034  10.555  20.414  0.00  0.00    +0.000 A 
ATOM     17  C   UNL     1      40.731   9.347  20.321  0.00  0.00    +0.000 A 
ENDBRANCH  11  12
ENDBRANCH  10  11
ENDBRANCH   7  10
ENDBRANCH   3   4
BRANCH   1  18
ATOM     18  C   UNL     1      37.366   2.098  13.746  0.00  0.00    +0.000 C 
BRANCH  18  27
ATOM     19  C   UNL     1      37.578  -0.359  13.977  0.00  0.00    +0.000 A 
ATOM     20  C   UNL     1      36.967  -1.329  14.783  0.00  0.00    +0.000 A 
ATOM     21  C   UNL     1      36.062  -0.739  15.634  0.00  0.00    +0.000 A 
ATOM     22  C   UNL     1      36.119   0.606  15.347  0.00  0.00    +0.000 A 
ATOM     23  C   UNL     1      35.234   1.289  16.162  0.00  0.00    +0.000 A 
ATOM     24  C   UNL     1      34.638   0.303  16.955  0.00  0.00    +0.000 A 
ATOM     25  N   UNL     1      35.145  -0.883  16.623  0.00  0.00    +0.000 N 
ATOM     26  C   UNL     1      34.791  -2.151  17.212  0.00  0.00    +0.000 C 
ATOM     27  N   UNL     1      37.037   0.805  14.349  0.00  0.00    +0.000 N 
BRANCH  19  28
ATOM     28  C   UNL     1      38.582  -0.666  12.942  0.00  0.00    +0.000 C 
ATOM     29  O   UNL     1      38.281  -0.556  11.751  0.00  0.00    +0.000 OA
BRANCH  28  30
ATOM     30  O   UNL     1      39.855  -1.077  13.295  0.00  0.00    +0.000 OA
BRANCH  30  32
ATOM     31  C   UNL     1      40.632  -2.603  14.916  0.00  0.00    +0.000 C 
ATOM     32  C   UNL     1      40.268  -2.423  13.432  0.00  0.00    +0.000 C 
ENDBRANCH  30  32
ENDBRANCH  28  30
ENDBRANCH  19  28
ENDBRANCH  18  27
ENDBRANCH   1  18
TORSDOF 9
ENDMDL
MODEL 7
REMARK VINA RESULT:      -7.3     23.674     26.829
REMARK  Name = 
REMARK  9 active torsions:
REMARK  status: ('A' for Active; 'I' for Inactive)
REMARK    1  A    between atoms: C_2  and  O_3
REMARK    2  A    between atoms: O_3  and  C_4
REMARK    3  A    between atoms: C_4  and  C_6
REMARK    4  A    between atoms: N_14  and  C_15
REMARK    5  A    between atoms: C_15  and  C_16
REMARK    6  A    between atoms: N_18  and  C_19
REMARK    7  A    between atoms: C_22  and  O_23
REMARK    8  A    between atoms: O_23  and  C_24
REMARK    9  A    between atoms: C_24  and  C_25
REMARK                            x       y       z     vdW  Elec       q    Type
REMARK                         _______ _______ _______ _____ _____    ______ ____
ROOT
ATOM      1  C   UNL     1      37.687   3.230  15.258  0.00  0.00    +0.000 C 
ATOM      2  O   UNL     1      38.796   2.668  15.436  0.00  0.00    +0.000 OA
ATOM      3  N   UNL     1      37.421   4.461  15.901  0.00  0.00    +0.000 NA
ENDROOT
BRANCH   3   4
ATOM      4  C   UNL     1      38.442   5.017  16.742  0.00  0.00    +0.000 A 
ATOM      5  C   UNL     1      38.541   4.775  18.079  0.00  0.00    +0.000 A 
ATOM      6  C   UNL     1      39.536   5.362  18.814  0.00  0.00    +0.000 A 
ATOM      7  C   UNL     1      40.471   6.217  18.233  0.00  0.00    +0.000 A 
ATOM      8  C   UNL     1      40.367   6.458  16.884  0.00  0.00    +0.000 A 
ATOM      9  C   UNL     1      39.369   5.868  16.148  0.00  0.00    +0.000 A 
BRANCH   7  10
ATOM     10  O   UNL     1      41.468   6.796  18.995  0.00  0.00    +0.000 OA
BRANCH  10  11
ATOM     11  C   UNL     1      41.218   7.441  20.203  0.00  0.00    +0.000 C 
BRANCH  11  12
ATOM     12  C   UNL     1      40.170   8.461  20.105  0.00  0.00    +0.000 A 
ATOM     13  C   UNL     1      40.409   9.635  19.434  0.00  0.00    +0.000 A 
ATOM     14  C   UNL     1      39.418  10.627  19.332  0.00  0.00    +0.000 A 
ATOM     15  C   UNL     1      38.204  10.432  19.904  0.00  0.00    +0.000 A 
ATOM     16  C   UNL     1      37.963   9.255  20.578  0.00  0.00    +0.000 A 
ATOM     17  C   UNL     1      38.923   8.247  20.697  0.00  0.00    +0.000 A 
ENDBRANCH  11  12
ENDBRANCH  10  11
ENDBRANCH   7  10
ENDBRANCH   3   4
BRANCH   1  18
ATOM     18  C   UNL     1      36.690   2.594  14.385  0.00  0.00    +0.000 C 
BRANCH  18  27
ATOM     19  C   UNL     1      36.286   0.515  15.668  0.00  0.00    +0.000 A 
ATOM     20  C   UNL     1      36.584  -0.840  15.467  0.00  0.00    +0.000 A 
ATOM     21  C   UNL     1      37.235  -1.012  14.267  0.00  0.00    +0.000 A 
ATOM     22  C   UNL     1      37.336   0.250  13.728  0.00  0.00    +0.000 A 
ATOM     23  C   UNL     1      37.984   0.178  12.506  0.00  0.00    +0.000 A 
ATOM     24  C   UNL     1      38.269  -1.180  12.328  0.00  0.00    +0.000 A 
ATOM     25  N   UNL     1      37.816  -1.858  13.381  0.00  0.00    +0.000 N 
ATOM     26  C   UNL     1      37.915  -3.283  13.577  0.00  0.00    +0.000 C 
ATOM     27  N   UNL     1      36.759   1.146  14.589  0.00  0.00    +0.000 N 
BRANCH  19  28
ATOM     28  C   UNL     1      35.610   1.037  16.869  0.00  0.00    +0.000 C 
ATOM     29  O   UNL     1      34.472   1.500  16.773  0.00  0.00    +0.000 OA
BRANCH  28  30
ATOM     30  O   UNL     1      36.241   1.011  18.100  0.00  0.00    +0.000 OA
BRANCH  30  32
ATOM     31  C   UNL     1      36.779  -1.065  19.080  0.00  0.00    +0.000 C 
ATOM     32  C   UNL     1      35.879   0.178  19.184  0.00  0.00    +0.000 C 
ENDBRANCH  30  32
ENDBRANCH  28  30
ENDBRANCH  19  28
ENDBRANCH  18  27
ENDBRANCH   1  18
TORSDOF 9
ENDMDL
MODEL 8
REMARK VINA RESULT:      -7.3      2.347      3.863
REMARK  Name = 
REMARK  9 active torsions:
REMARK  status: ('A' for Active; 'I' for Inactive)
REMARK    1  A    between atoms: C_2  and  O_3
REMARK    2  A    between atoms: O_3  and  C_4
REMARK    3  A    between atoms: C_4  and  C_6
REMARK    4  A    between atoms: N_14  and  C_15
REMARK    5  A    between atoms: C_15  and  C_16
REMARK    6  A    between atoms: N_18  and  C_19
REMARK    7  A    between atoms: C_22  and  O_23
REMARK    8  A    between atoms: O_23  and  C_24
REMARK    9  A    between atoms: C_24  and  C_25
REMARK                            x       y       z     vdW  Elec       q    Type
REMARK                         _______ _______ _______ _____ _____    ______ ____
ROOT
ATOM      1  C   UNL     1      13.252   0.736  27.920  0.00  0.00    +0.000 C 
ATOM      2  O   UNL     1      13.407   1.796  27.267  0.00  0.00    +0.000 OA
ATOM      3  N   UNL     1      14.310  -0.200  27.985  0.00  0.00    +0.000 NA
ENDROOT
BRANCH   3   4
ATOM      4  C   UNL     1      15.526   0.106  27.289  0.00  0.00    +0.000 A 
ATOM      5  C   UNL     1      16.579   0.763  27.849  0.00  0.00    +0.000 A 
ATOM      6  C   UNL     1      17.698   1.033  27.107  0.00  0.00    +0.000 A 
ATOM      7  C   UNL     1      17.801   0.651  25.771  0.00  0.00    +0.000 A 
ATOM      8  C   UNL     1      16.736  -0.013  25.209  0.00  0.00    +0.000 A 
ATOM      9  C   UNL     1      15.615  -0.283  25.955  0.00  0.00    +0.000 A 
BRANCH   7  10
ATOM     10  O   UNL     1      18.941   0.932  25.042  0.00  0.00    +0.000 OA
BRANCH  10  11
ATOM     11  C   UNL     1      20.023   0.058  24.964  0.00  0.00    +0.000 C 
BRANCH  11  12
ATOM     12  C   UNL     1      20.167  -0.562  23.644  0.00  0.00    +0.000 A 
ATOM     13  C   UNL     1      20.546   0.195  22.563  0.00  0.00    +0.000 A 
ATOM     14  C   UNL     1      20.686  -0.382  21.288  0.00  0.00    +0.000 A 
ATOM     15  C   UNL     1      20.442  -1.704  21.112  0.00  0.00    +0.000 A 
ATOM     16  C   UNL     1      20.061  -2.464  22.196  0.00  0.00    +0.000 A 
ATOM     17  C   UNL     1      19.914  -1.925  23.477  0.00  0.00    +0.000 A 
ENDBRANCH  11  12
ENDBRANCH  10  11
ENDBRANCH   7  10
ENDBRANCH   3   4
BRANCH   1  18
ATOM     18  C   UNL     1      11.974   0.491  28.603  0.00  0.00    +0.000 C 
BRANCH  18  27
ATOM     19  C   UNL     1      11.519  -1.870  29.195  0.00  0.00    +0.000 A 
ATOM     20  C   UNL     1      11.084  -2.998  28.485  0.00  0.00    +0.000 A 
ATOM     21  C   UNL     1      10.856  -2.672  27.168  0.00  0.00    +0.000 A 
ATOM     22  C   UNL     1      11.153  -1.332  27.071  0.00  0.00    +0.000 A 
ATOM     23  C   UNL     1      10.951  -0.909  25.768  0.00  0.00    +0.000 A 
ATOM     24  C   UNL     1      10.519  -2.048  25.081  0.00  0.00    +0.000 A 
ATOM     25  N   UNL     1      10.471  -3.072  25.931  0.00  0.00    +0.000 N 
ATOM     26  C   UNL     1      10.072  -4.421  25.611  0.00  0.00    +0.000 C 
ATOM     27  N   UNL     1      11.548  -0.877  28.302  0.00  0.00    +0.000 N 
BRANCH  19  28
ATOM     28  C   UNL     1      11.871  -1.887  30.626  0.00  0.00    +0.000 C 
ATOM     29  O   UNL     1      11.050  -2.298  31.450  0.00  0.00    +0.000 OA
BRANCH  28  30
ATOM     30  O   UNL     1      13.111  -1.446  31.052  0.00  0.00    +0.000 OA
BRANCH  30  32
ATOM     31  C   UNL     1      14.701   0.224  31.543  0.00  0.00    +0.000 C 
ATOM     32  C   UNL     1      13.332  -0.360  31.931  0.00  0.00    +0.000 C 
ENDBRANCH  30  32
ENDBRANCH  28  30
ENDBRANCH  19  28
ENDBRANCH  18  27
ENDBRANCH   1  18
TORSDOF 9
ENDMDL
MODEL 9
REMARK VINA RESULT:      -7.2     24.052     27.972
REMARK  Name = 
REMARK  9 active torsions:
REMARK  status: ('A' for Active; 'I' for Inactive)
REMARK    1  A    between atoms: C_2  and  O_3
REMARK    2  A    between atoms: O_3  and  C_4
REMARK    3  A    between atoms: C_4  and  C_6
REMARK    4  A    between atoms: N_14  and  C_15
REMARK    5  A    between atoms: C_15  and  C_16
REMARK    6  A    between atoms: N_18  and  C_19
REMARK    7  A    between atoms: C_22  and  O_23
REMARK    8  A    between atoms: O_23  and  C_24
REMARK    9  A    between atoms: C_24  and  C_25
REMARK                            x       y       z     vdW  Elec       q    Type
REMARK                         _______ _______ _______ _____ _____    ______ ____
ROOT
ATOM      1  C   UNL     1      38.256   2.700  14.750  0.00  0.00    +0.000 C 
ATOM      2  O   UNL     1      39.406   2.356  15.118  0.00  0.00    +0.000 OA
ATOM      3  N   UNL     1      37.671   3.864  15.301  0.00  0.00    +0.000 NA
ENDROOT
BRANCH   3   4
ATOM      4  C   UNL     1      38.425   4.605  16.270  0.00  0.00    +0.000 A 
ATOM      5  C   UNL     1      38.282   4.464  17.617  0.00  0.00    +0.000 A 
ATOM      6  C   UNL     1      39.030   5.226  18.474  0.00  0.00    +0.000 A 
ATOM      7  C   UNL     1      39.952   6.161  18.010  0.00  0.00    +0.000 A 
ATOM      8  C   UNL     1      40.094   6.301  16.650  0.00  0.00    +0.000 A 
ATOM      9  C   UNL     1      39.344   5.535  15.791  0.00  0.00    +0.000 A 
BRANCH   7  10
ATOM     10  O   UNL     1      40.697   6.918  18.894  0.00  0.00    +0.000 OA
BRANCH  10  11
ATOM     11  C   UNL     1      41.142   6.428  20.119  0.00  0.00    +0.000 C 
BRANCH  11  12
ATOM     12  C   UNL     1      42.603   6.405  20.233  0.00  0.00    +0.000 A 
ATOM     13  C   UNL     1      43.384   6.825  19.185  0.00  0.00    +0.000 A 
ATOM     14  C   UNL     1      44.787   6.807  19.274  0.00  0.00    +0.000 A 
ATOM     15  C   UNL     1      45.389   6.367  20.407  0.00  0.00    +0.000 A 
ATOM     16  C   UNL     1      44.606   5.944  21.459  0.00  0.00    +0.000 A 
ATOM     17  C   UNL     1      43.210   5.951  21.407  0.00  0.00    +0.000 A 
ENDBRANCH  11  12
ENDBRANCH  10  11
ENDBRANCH   7  10
ENDBRANCH   3   4
BRANCH   1  18
ATOM     18  C   UNL     1      37.544   1.885  13.757  0.00  0.00    +0.000 C 
BRANCH  18  27
ATOM     19  C   UNL     1      37.961  -0.547  13.976  0.00  0.00    +0.000 A 
ATOM     20  C   UNL     1      37.405  -1.576  14.748  0.00  0.00    +0.000 A 
ATOM     21  C   UNL     1      36.419  -1.077  15.568  0.00  0.00    +0.000 A 
ATOM     22  C   UNL     1      36.370   0.271  15.294  0.00  0.00    +0.000 A 
ATOM     23  C   UNL     1      35.397   0.865  16.079  0.00  0.00    +0.000 A 
ATOM     24  C   UNL     1      34.859  -0.178  16.839  0.00  0.00    +0.000 A 
ATOM     25  N   UNL     1      35.481  -1.311  16.518  0.00  0.00    +0.000 N 
ATOM     26  C   UNL     1      35.216  -2.612  17.081  0.00  0.00    +0.000 C 
ATOM     27  N   UNL     1      37.306   0.561  14.336  0.00  0.00    +0.000 N 
BRANCH  19  28
ATOM     28  C   UNL     1      39.027  -0.753  12.980  0.00  0.00    +0.000 C 
ATOM     29  O   UNL     1      38.747  -1.235  11.880  0.00  0.00    +0.000 OA
BRANCH  28  30
ATOM     30  O   UNL     1      40.336  -0.411  13.268  0.00  0.00    +0.000 OA
BRANCH  30  32
ATOM     31  C   UNL     1      41.224  -2.285  14.392  0.00  0.00    +0.000 C 
ATOM     32  C   UNL     1      41.027  -0.761  14.452  0.00  0.00    +0.000 C 
ENDBRANCH  30  32
ENDBRANCH  28  30
ENDBRANCH  19  28
ENDBRANCH  18  27
ENDBRANCH   1  18
TORSDOF 9
ENDMDL
MODEL 10
REMARK VINA RESULT:      -7.2     24.954     27.506
REMARK  Name = 
REMARK  9 active torsions:
REMARK  status: ('A' for Active; 'I' for Inactive)
REMARK    1  A    between atoms: C_2  and  O_3
REMARK    2  A    between atoms: O_3  and  C_4
REMARK    3  A    between atoms: C_4  and  C_6
REMARK    4  A    between atoms: N_14  and  C_15
REMARK    5  A    between atoms: C_15  and  C_16
REMARK    6  A    between atoms: N_18  and  C_19
REMARK    7  A    between atoms: C_22  and  O_23
REMARK    8  A    between atoms: O_23  and  C_24
REMARK    9  A    between atoms: C_24  and  C_25
REMARK                            x       y       z     vdW  Elec       q    Type
REMARK                         _______ _______ _______ _____ _____    ______ ____
ROOT
ATOM      1  C   UNL     1      37.150   0.879  15.450  0.00  0.00    +0.000 C 
ATOM      2  O   UNL     1      38.370   1.057  15.213  0.00  0.00    +0.000 OA
ATOM      3  N   UNL     1      36.371   1.957  15.930  0.00  0.00    +0.000 NA
ENDROOT
BRANCH   3   4
ATOM      4  C   UNL     1      37.020   3.221  16.132  0.00  0.00    +0.000 A 
ATOM      5  C   UNL     1      37.131   4.181  15.172  0.00  0.00    +0.000 A 
ATOM      6  C   UNL     1      37.784   5.354  15.443  0.00  0.00    +0.000 A 
ATOM      7  C   UNL     1      38.351   5.607  16.690  0.00  0.00    +0.000 A 
ATOM      8  C   UNL     1      38.236   4.636  17.656  0.00  0.00    +0.000 A 
ATOM      9  C   UNL     1      37.580   3.460  17.383  0.00  0.00    +0.000 A 
BRANCH   7  10
ATOM     10  O   UNL     1      39.003   6.800  16.941  0.00  0.00    +0.000 OA
BRANCH  10  11
ATOM     11  C   UNL     1      39.217   7.288  18.227  0.00  0.00    +0.000 C 
BRANCH  11  12
ATOM     12  C   UNL     1      40.563   7.004  18.733  0.00  0.00    +0.000 A 
ATOM     13  C   UNL     1      40.753   6.702  20.059  0.00  0.00    +0.000 A 
ATOM     14  C   UNL     1      42.037   6.431  20.564  0.00  0.00    +0.000 A 
ATOM     15  C   UNL     1      43.112   6.468  19.737  0.00  0.00    +0.000 A 
ATOM     16  C   UNL     1      42.922   6.772  18.407  0.00  0.00    +0.000 A 
ATOM     17  C   UNL     1      41.661   7.045  17.870  0.00  0.00    +0.000 A 
ENDBRANCH  11  12
ENDBRANCH  10  11
ENDBRANCH   7  10
ENDBRANCH   3   4
BRANCH   1  18
ATOM     18  C   UNL     1      36.559  -0.447  15.223  0.00  0.00    +0.000 C 
BRANCH  18  27
ATOM     19  C   UNL     1      38.145  -2.340  15.411  0.00  0.00    +0.000 A 
ATOM     20  C   UNL     1      38.666  -3.087  16.476  0.00  0.00    +0.000 A 
ATOM     21  C   UNL     1      38.170  -2.621  17.672  0.00  0.00    +0.000 A 
ATOM     22  C   UNL     1      37.337  -1.578  17.335  0.00  0.00    +0.000 A 
ATOM     23  C   UNL     1      36.786  -1.039  18.485  0.00  0.00    +0.000 A 
ATOM     24  C   UNL     1      37.320  -1.798  19.532  0.00  0.00    +0.000 A 
ATOM     25  N   UNL     1      38.132  -2.723  19.023  0.00  0.00    +0.000 N 
ATOM     26  C   UNL     1      38.878  -3.702  19.776  0.00  0.00    +0.000 C 
ATOM     27  N   UNL     1      37.342  -1.432  15.972  0.00  0.00    +0.000 N 
BRANCH  19  28
ATOM     28  C   UNL     1      38.461  -2.600  13.995  0.00  0.00    +0.000 C 
ATOM     29  O   UNL     1      37.822  -3.453  13.376  0.00  0.00    +0.000 OA
BRANCH  28  30
ATOM     30  O   UNL     1      39.468  -1.897  13.358  0.00  0.00    +0.000 OA
BRANCH  30  32
ATOM     31  C   UNL     1      41.339  -3.211  12.782  0.00  0.00    +0.000 C 
ATOM     32  C   UNL     1      40.190  -2.351  12.229  0.00  0.00    +0.000 C 
ENDBRANCH  30  32
ENDBRANCH  28  30
ENDBRANCH  19  28
ENDBRANCH  18  27
ENDBRANCH   1  18
TORSDOF 9
ENDMDL
