MODEL 1
REMARK VINA RESULT:      -7.9      0.000      0.000
REMARK  Name = 
REMARK  2 active torsions:
REMARK  status: ('A' for Active; 'I' for Inactive)
REMARK    1  A    between atoms: C_2  and  C_5
REMARK    2  A    between atoms: C_7  and  C_8
REMARK                            x       y       z     vdW  Elec       q    Type
REMARK                         _______ _______ _______ _____ _____    ______ ____
ROOT
ATOM      1  C   UNL     1      26.190  24.470  29.768  0.00  0.00    +0.000 A 
ATOM      2  C   UNL     1      27.143  24.243  28.799  0.00  0.00    +0.000 A 
ATOM      3  C   UNL     1      27.673  22.992  28.566  0.00  0.00    +0.000 A 
ATOM      4  N   UNL     1      27.260  21.945  29.298  0.00  0.00    +0.000 NA
ATOM      5  C   UNL     1      26.321  22.177  30.249  0.00  0.00    +0.000 A 
ATOM      6  N   UNL     1      25.823  21.114  31.079  0.00  0.00    +0.000 NA
ATOM      7  N   UNL     1      25.805  23.398  30.476  0.00  0.00    +0.000 NA
ENDROOT
BRANCH   3   8
ATOM      8  C   UNL     1      28.679  22.853  27.513  0.00  0.00    +0.000 A 
ATOM      9  C   UNL     1      30.005  22.600  27.796  0.00  0.00    +0.000 A 
ATOM     10  C   UNL     1      30.940  22.473  26.771  0.00  0.00    +0.000 A 
ATOM     11  C   UNL     1      30.592  22.592  25.447  0.00  0.00    +0.000 A 
ATOM     12  F   UNL     1      31.509  22.467  24.444  0.00  0.00    +0.000 F 
ATOM     13  C   UNL     1      29.267  22.845  25.157  0.00  0.00    +0.000 A 
ATOM     14  C   UNL     1      28.914  22.966  23.816  0.00  0.00    +0.000 A 
ATOM     15  C   UNL     1      27.587  23.220  23.517  0.00  0.00    +0.000 A 
ATOM     16  C   UNL     1      26.676  23.343  24.553  0.00  0.00    +0.000 A 
ATOM     17  C   UNL     1      27.025  23.224  25.868  0.00  0.00    +0.000 A 
ATOM     18  C   UNL     1      28.342  22.970  26.183  0.00  0.00    +0.000 A 
ENDBRANCH   3   8
BRANCH   1  20
ATOM     19  C   UNL     1      26.731  26.879  29.836  0.00  0.00    +0.000 C 
ATOM     20  C   UNL     1      25.643  25.837  29.988  0.00  0.00    +0.000 C 
ATOM     21  C   UNL     1      24.940  25.928  31.326  0.00  0.00    +0.000 C 
ATOM     22  C   UNL     1      24.586  26.123  28.931  0.00  0.00    +0.000 C 
ENDBRANCH   1  20
TORSDOF 2
ENDMDL
MODEL 2
REMARK VINA RESULT:      -7.2      1.116      2.452
REMARK  Name = 
REMARK  2 active torsions:
REMARK  status: ('A' for Active; 'I' for Inactive)
REMARK    1  A    between atoms: C_2  and  C_5
REMARK    2  A    between atoms: C_7  and  C_8
REMARK                            x       y       z     vdW  Elec       q    Type
REMARK                         _______ _______ _______ _____ _____    ______ ____
ROOT
ATOM      1  C   UNL     1      25.713  24.909  29.727  0.00  0.00    +0.000 A 
ATOM      2  C   UNL     1      26.102  24.722  28.418  0.00  0.00    +0.000 A 
ATOM      3  C   UNL     1      26.516  23.497  27.941  0.00  0.00    +0.000 A 
ATOM      4  N   UNL     1      26.550  22.436  28.763  0.00  0.00    +0.000 NA
ATOM      5  C   UNL     1      26.165  22.628  30.050  0.00  0.00    +0.000 A 
ATOM      6  N   UNL     1      26.170  21.549  30.999  0.00  0.00    +0.000 NA
ATOM      7  N   UNL     1      25.761  23.824  30.515  0.00  0.00    +0.000 NA
ENDROOT
BRANCH   3   8
ATOM      8  C   UNL     1      26.908  23.399  26.535  0.00  0.00    +0.000 A 
ATOM      9  C   UNL     1      26.002  23.562  25.509  0.00  0.00    +0.000 A 
ATOM     10  C   UNL     1      26.406  23.462  24.179  0.00  0.00    +0.000 A 
ATOM     11  C   UNL     1      27.709  23.200  23.830  0.00  0.00    +0.000 A 
ATOM     12  F   UNL     1      28.104  23.103  22.527  0.00  0.00    +0.000 F 
ATOM     13  C   UNL     1      28.621  23.036  24.852  0.00  0.00    +0.000 A 
ATOM     14  C   UNL     1      29.942  22.770  24.500  0.00  0.00    +0.000 A 
ATOM     15  C   UNL     1      30.862  22.603  25.518  0.00  0.00    +0.000 A 
ATOM     16  C   UNL     1      30.437  22.707  26.832  0.00  0.00    +0.000 A 
ATOM     17  C   UNL     1      29.141  22.968  27.176  0.00  0.00    +0.000 A 
ATOM     18  C   UNL     1      28.211  23.137  26.173  0.00  0.00    +0.000 A 
ENDBRANCH   3   8
BRANCH   1  20
ATOM     19  C   UNL     1      26.437  27.215  30.230  0.00  0.00    +0.000 C 
ATOM     20  C   UNL     1      25.273  26.249  30.203  0.00  0.00    +0.000 C 
ATOM     21  C   UNL     1      24.578  26.144  31.544  0.00  0.00    +0.000 C 
ATOM     22  C   UNL     1      24.241  26.804  29.231  0.00  0.00    +0.000 C 
ENDBRANCH   1  20
TORSDOF 2
ENDMDL
MODEL 3
REMARK VINA RESULT:      -7.2      3.515      6.595
REMARK  Name = 
REMARK  2 active torsions:
REMARK  status: ('A' for Active; 'I' for Inactive)
REMARK    1  A    between atoms: C_2  and  C_5
REMARK    2  A    between atoms: C_7  and  C_8
REMARK                            x       y       z     vdW  Elec       q    Type
REMARK                         _______ _______ _______ _____ _____    ______ ____
ROOT
ATOM      1  C   UNL     1      27.993  24.579  23.803  0.00  0.00    +0.000 A 
ATOM      2  C   UNL     1      27.516  24.833  25.072  0.00  0.00    +0.000 A 
ATOM      3  C   UNL     1      26.287  24.379  25.500  0.00  0.00    +0.000 A 
ATOM      4  N   UNL     1      25.511  23.665  24.669  0.00  0.00    +0.000 NA
ATOM      5  C   UNL     1      25.987  23.421  23.423  0.00  0.00    +0.000 A 
ATOM      6  N   UNL     1      25.223  22.665  22.468  0.00  0.00    +0.000 NA
ATOM      7  N   UNL     1      27.187  23.863  23.005  0.00  0.00    +0.000 NA
ENDROOT
BRANCH   3   8
ATOM      8  C   UNL     1      25.871  24.699  26.866  0.00  0.00    +0.000 A 
ATOM      9  C   UNL     1      25.000  25.732  27.144  0.00  0.00    +0.000 A 
ATOM     10  C   UNL     1      24.623  26.012  28.455  0.00  0.00    +0.000 A 
ATOM     11  C   UNL     1      25.094  25.283  29.522  0.00  0.00    +0.000 A 
ATOM     12  F   UNL     1      24.723  25.558  30.806  0.00  0.00    +0.000 F 
ATOM     13  C   UNL     1      25.965  24.248  29.250  0.00  0.00    +0.000 A 
ATOM     14  C   UNL     1      26.442  23.509  30.330  0.00  0.00    +0.000 A 
ATOM     15  C   UNL     1      27.316  22.470  30.067  0.00  0.00    +0.000 A 
ATOM     16  C   UNL     1      27.676  22.211  28.755  0.00  0.00    +0.000 A 
ATOM     17  C   UNL     1      27.207  22.937  27.697  0.00  0.00    +0.000 A 
ATOM     18  C   UNL     1      26.335  23.975  27.942  0.00  0.00    +0.000 A 
ENDBRANCH   3   8
BRANCH   1  20
ATOM     19  C   UNL     1      29.636  26.406  24.054  0.00  0.00    +0.000 C 
ATOM     20  C   UNL     1      29.326  25.087  23.379  0.00  0.00    +0.000 C 
ATOM     21  C   UNL     1      29.415  25.176  21.870  0.00  0.00    +0.000 C 
ATOM     22  C   UNL     1      30.394  24.092  23.810  0.00  0.00    +0.000 C 
ENDBRANCH   1  20
TORSDOF 2
ENDMDL
MODEL 4
REMARK VINA RESULT:      -7.2     18.554     21.734
REMARK  Name = 
REMARK  2 active torsions:
REMARK  status: ('A' for Active; 'I' for Inactive)
REMARK    1  A    between atoms: C_2  and  C_5
REMARK    2  A    between atoms: C_7  and  C_8
REMARK                            x       y       z     vdW  Elec       q    Type
REMARK                         _______ _______ _______ _____ _____    ______ ____
ROOT
ATOM      1  C   UNL     1      20.502   9.871  37.669  0.00  0.00    +0.000 A 
ATOM      2  C   UNL     1      19.726   9.528  38.755  0.00  0.00    +0.000 A 
ATOM      3  C   UNL     1      18.396   9.188  38.632  0.00  0.00    +0.000 A 
ATOM      4  N   UNL     1      17.816   9.184  37.421  0.00  0.00    +0.000 NA
ATOM      5  C   UNL     1      18.587   9.523  36.357  0.00  0.00    +0.000 A 
ATOM      6  N   UNL     1      18.048   9.546  35.025  0.00  0.00    +0.000 NA
ATOM      7  N   UNL     1      19.884   9.855  36.478  0.00  0.00    +0.000 NA
ENDROOT
BRANCH   3   8
ATOM      8  C   UNL     1      17.658   8.837  39.845  0.00  0.00    +0.000 A 
ATOM      9  C   UNL     1      16.769   9.708  40.439  0.00  0.00    +0.000 A 
ATOM     10  C   UNL     1      16.081   9.344  41.595  0.00  0.00    +0.000 A 
ATOM     11  C   UNL     1      16.252   8.118  42.192  0.00  0.00    +0.000 A 
ATOM     12  F   UNL     1      15.577   7.764  43.324  0.00  0.00    +0.000 F 
ATOM     13  C   UNL     1      17.140   7.242  41.603  0.00  0.00    +0.000 A 
ATOM     14  C   UNL     1      17.315   6.000  42.206  0.00  0.00    +0.000 A 
ATOM     15  C   UNL     1      18.203   5.116  41.622  0.00  0.00    +0.000 A 
ATOM     16  C   UNL     1      18.876   5.499  40.473  0.00  0.00    +0.000 A 
ATOM     17  C   UNL     1      18.703   6.718  39.883  0.00  0.00    +0.000 A 
ATOM     18  C   UNL     1      17.821   7.611  40.452  0.00  0.00    +0.000 A 
ENDBRANCH   3   8
BRANCH   1  20
ATOM     19  C   UNL     1      22.583   9.357  38.894  0.00  0.00    +0.000 C 
ATOM     20  C   UNL     1      21.935  10.233  37.844  0.00  0.00    +0.000 C 
ATOM     21  C   UNL     1      22.086  11.708  38.150  0.00  0.00    +0.000 C 
ATOM     22  C   UNL     1      22.669   9.993  36.532  0.00  0.00    +0.000 C 
ENDBRANCH   1  20
TORSDOF 2
ENDMDL
MODEL 5
REMARK VINA RESULT:      -7.0     16.181     18.765
REMARK  Name = 
REMARK  2 active torsions:
REMARK  status: ('A' for Active; 'I' for Inactive)
REMARK    1  A    between atoms: C_2  and  C_5
REMARK    2  A    between atoms: C_7  and  C_8
REMARK                            x       y       z     vdW  Elec       q    Type
REMARK                         _______ _______ _______ _____ _____    ______ ____
ROOT
ATOM      1  C   UNL     1      17.619   9.695  39.481  0.00  0.00    +0.000 A 
ATOM      2  C   UNL     1      18.926   9.843  39.069  0.00  0.00    +0.000 A 
ATOM      3  C   UNL     1      19.259  10.466  37.885  0.00  0.00    +0.000 A 
ATOM      4  N   UNL     1      18.291  10.951  37.090  0.00  0.00    +0.000 NA
ATOM      5  C   UNL     1      17.008  10.801  37.503  0.00  0.00    +0.000 A 
ATOM      6  N   UNL     1      15.910  11.290  36.715  0.00  0.00    +0.000 NA
ATOM      7  N   UNL     1      16.684  10.193  38.658  0.00  0.00    +0.000 NA
ENDROOT
BRANCH   3   8
ATOM      8  C   UNL     1      20.675  10.575  37.536  0.00  0.00    +0.000 A 
ATOM      9  C   UNL     1      21.297   9.668  36.704  0.00  0.00    +0.000 A 
ATOM     10  C   UNL     1      22.648   9.799  36.391  0.00  0.00    +0.000 A 
ATOM     11  C   UNL     1      23.417  10.824  36.888  0.00  0.00    +0.000 A 
ATOM     12  F   UNL     1      24.740  10.951  36.580  0.00  0.00    +0.000 F 
ATOM     13  C   UNL     1      22.801  11.735  37.721  0.00  0.00    +0.000 A 
ATOM     14  C   UNL     1      23.578  12.774  38.226  0.00  0.00    +0.000 A 
ATOM     15  C   UNL     1      22.969  13.691  39.062  0.00  0.00    +0.000 A 
ATOM     16  C   UNL     1      21.624  13.540  39.359  0.00  0.00    +0.000 A 
ATOM     17  C   UNL     1      20.863  12.521  38.863  0.00  0.00    +0.000 A 
ATOM     18  C   UNL     1      21.455  11.598  38.028  0.00  0.00    +0.000 A 
ENDBRANCH   3   8
BRANCH   1  20
ATOM     19  C   UNL     1      17.547   7.526  40.659  0.00  0.00    +0.000 C 
ATOM     20  C   UNL     1      17.302   9.015  40.767  0.00  0.00    +0.000 C 
ATOM     21  C   UNL     1      15.892   9.338  41.214  0.00  0.00    +0.000 C 
ATOM     22  C   UNL     1      18.226   9.553  41.851  0.00  0.00    +0.000 C 
ENDBRANCH   1  20
TORSDOF 2
ENDMDL
MODEL 6
REMARK VINA RESULT:      -7.0     31.244     32.863
REMARK  Name = 
REMARK  2 active torsions:
REMARK  status: ('A' for Active; 'I' for Inactive)
REMARK    1  A    between atoms: C_2  and  C_5
REMARK    2  A    between atoms: C_7  and  C_8
REMARK                            x       y       z     vdW  Elec       q    Type
REMARK                         _______ _______ _______ _____ _____    ______ ____
ROOT
ATOM      1  C   UNL     1      22.505  -8.338  22.287  0.00  0.00    +0.000 A 
ATOM      2  C   UNL     1      21.602  -8.566  23.303  0.00  0.00    +0.000 A 
ATOM      3  C   UNL     1      21.829  -8.147  24.596  0.00  0.00    +0.000 A 
ATOM      4  N   UNL     1      22.962  -7.493  24.898  0.00  0.00    +0.000 NA
ATOM      5  C   UNL     1      23.846  -7.274  23.892  0.00  0.00    +0.000 A 
ATOM      6  N   UNL     1      25.084  -6.583  24.125  0.00  0.00    +0.000 NA
ATOM      7  N   UNL     1      23.624  -7.683  22.630  0.00  0.00    +0.000 NA
ENDROOT
BRANCH   3   8
ATOM      8  C   UNL     1      20.809  -8.434  25.605  0.00  0.00    +0.000 A 
ATOM      9  C   UNL     1      20.619  -9.702  26.114  0.00  0.00    +0.000 A 
ATOM     10  C   UNL     1      19.638  -9.944  27.073  0.00  0.00    +0.000 A 
ATOM     11  C   UNL     1      18.824  -8.946  27.553  0.00  0.00    +0.000 A 
ATOM     12  F   UNL     1      17.864  -9.185  28.493  0.00  0.00    +0.000 F 
ATOM     13  C   UNL     1      19.009  -7.676  27.048  0.00  0.00    +0.000 A 
ATOM     14  C   UNL     1      18.185  -6.664  27.533  0.00  0.00    +0.000 A 
ATOM     15  C   UNL     1      18.364  -5.387  27.032  0.00  0.00    +0.000 A 
ATOM     16  C   UNL     1      19.345  -5.171  26.079  0.00  0.00    +0.000 A 
ATOM     17  C   UNL     1      20.153  -6.165  25.604  0.00  0.00    +0.000 A 
ATOM     18  C   UNL     1      19.988  -7.442  26.093  0.00  0.00    +0.000 A 
ENDBRANCH   3   8
BRANCH   1  20
ATOM     19  C   UNL     1      23.173  -9.919  20.511  0.00  0.00    +0.000 C 
ATOM     20  C   UNL     1      22.222  -8.808  20.902  0.00  0.00    +0.000 C 
ATOM     21  C   UNL     1      22.250  -7.654  19.924  0.00  0.00    +0.000 C 
ATOM     22  C   UNL     1      20.811  -9.376  20.852  0.00  0.00    +0.000 C 
ENDBRANCH   1  20
TORSDOF 2
ENDMDL
MODEL 7
REMARK VINA RESULT:      -6.9     18.870     21.967
REMARK  Name = 
REMARK  2 active torsions:
REMARK  status: ('A' for Active; 'I' for Inactive)
REMARK    1  A    between atoms: C_2  and  C_5
REMARK    2  A    between atoms: C_7  and  C_8
REMARK                            x       y       z     vdW  Elec       q    Type
REMARK                         _______ _______ _______ _____ _____    ______ ____
ROOT
ATOM      1  C   UNL     1      17.611  10.996  37.837  0.00  0.00    +0.000 A 
ATOM      2  C   UNL     1      17.459   9.870  38.617  0.00  0.00    +0.000 A 
ATOM      3  C   UNL     1      18.434   9.445  39.494  0.00  0.00    +0.000 A 
ATOM      4  N   UNL     1      19.579  10.136  39.607  0.00  0.00    +0.000 NA
ATOM      5  C   UNL     1      19.720  11.243  38.835  0.00  0.00    +0.000 A 
ATOM      6  N   UNL     1      20.913  12.043  38.892  0.00  0.00    +0.000 NA
ATOM      7  N   UNL     1      18.769  11.658  37.980  0.00  0.00    +0.000 NA
ENDROOT
BRANCH   3   8
ATOM      8  C   UNL     1      18.178   8.238  40.279  0.00  0.00    +0.000 A 
ATOM      9  C   UNL     1      18.598   6.991  39.867  0.00  0.00    +0.000 A 
ATOM     10  C   UNL     1      18.338   5.860  40.637  0.00  0.00    +0.000 A 
ATOM     11  C   UNL     1      17.659   5.930  41.830  0.00  0.00    +0.000 A 
ATOM     12  F   UNL     1      17.405   4.821  42.584  0.00  0.00    +0.000 F 
ATOM     13  C   UNL     1      17.235   7.174  42.249  0.00  0.00    +0.000 A 
ATOM     14  C   UNL     1      16.547   7.246  43.457  0.00  0.00    +0.000 A 
ATOM     15  C   UNL     1      16.118   8.489  43.884  0.00  0.00    +0.000 A 
ATOM     16  C   UNL     1      16.388   9.599  43.101  0.00  0.00    +0.000 A 
ATOM     17  C   UNL     1      17.064   9.527  41.917  0.00  0.00    +0.000 A 
ATOM     18  C   UNL     1      17.498   8.295  41.476  0.00  0.00    +0.000 A 
ENDBRANCH   3   8
BRANCH   1  20
ATOM     19  C   UNL     1      15.171  11.226  37.530  0.00  0.00    +0.000 C 
ATOM     20  C   UNL     1      16.534  11.421  36.901  0.00  0.00    +0.000 C 
ATOM     21  C   UNL     1      16.662  10.710  35.571  0.00  0.00    +0.000 C 
ATOM     22  C   UNL     1      16.693  12.906  36.607  0.00  0.00    +0.000 C 
ENDBRANCH   1  20
TORSDOF 2
ENDMDL
MODEL 8
REMARK VINA RESULT:      -6.8      2.252      3.445
REMARK  Name = 
REMARK  2 active torsions:
REMARK  status: ('A' for Active; 'I' for Inactive)
REMARK    1  A    between atoms: C_2  and  C_5
REMARK    2  A    between atoms: C_7  and  C_8
REMARK                            x       y       z     vdW  Elec       q    Type
REMARK                         _______ _______ _______ _____ _____    ______ ____
ROOT
ATOM      1  C   UNL     1      29.467  22.642  30.478  0.00  0.00    +0.000 A 
ATOM      2  C   UNL     1      29.569  22.766  29.109  0.00  0.00    +0.000 A 
ATOM      3  C   UNL     1      28.509  22.507  28.266  0.00  0.00    +0.000 A 
ATOM      4  N   UNL     1      27.330  22.119  28.775  0.00  0.00    +0.000 NA
ATOM      5  C   UNL     1      27.238  21.999  30.123  0.00  0.00    +0.000 A 
ATOM      6  N   UNL     1      26.014  21.587  30.754  0.00  0.00    +0.000 NA
ATOM      7  N   UNL     1      28.273  22.251  30.946  0.00  0.00    +0.000 NA
ENDROOT
BRANCH   3   8
ATOM      8  C   UNL     1      28.716  22.670  26.827  0.00  0.00    +0.000 A 
ATOM      9  C   UNL     1      29.901  22.325  26.213  0.00  0.00    +0.000 A 
ATOM     10  C   UNL     1      30.067  22.493  24.840  0.00  0.00    +0.000 A 
ATOM     11  C   UNL     1      29.072  23.003  24.041  0.00  0.00    +0.000 A 
ATOM     12  F   UNL     1      29.236  23.167  22.696  0.00  0.00    +0.000 F 
ATOM     13  C   UNL     1      27.883  23.351  24.649  0.00  0.00    +0.000 A 
ATOM     14  C   UNL     1      26.875  23.868  23.841  0.00  0.00    +0.000 A 
ATOM     15  C   UNL     1      25.680  24.219  24.442  0.00  0.00    +0.000 A 
ATOM     16  C   UNL     1      25.538  24.044  25.809  0.00  0.00    +0.000 A 
ATOM     17  C   UNL     1      26.529  23.536  26.600  0.00  0.00    +0.000 A 
ATOM     18  C   UNL     1      27.726  23.181  26.017  0.00  0.00    +0.000 A 
ENDBRANCH   3   8
BRANCH   1  20
ATOM     19  C   UNL     1      30.218  23.761  32.547  0.00  0.00    +0.000 C 
ATOM     20  C   UNL     1      30.636  22.931  31.354  0.00  0.00    +0.000 C 
ATOM     21  C   UNL     1      31.756  23.576  30.565  0.00  0.00    +0.000 C 
ATOM     22  C   UNL     1      31.192  21.616  31.884  0.00  0.00    +0.000 C 
ENDBRANCH   1  20
TORSDOF 2
ENDMDL
MODEL 9
REMARK VINA RESULT:      -6.7     20.736     22.861
REMARK  Name = 
REMARK  2 active torsions:
REMARK  status: ('A' for Active; 'I' for Inactive)
REMARK    1  A    between atoms: C_2  and  C_5
REMARK    2  A    between atoms: C_7  and  C_8
REMARK                            x       y       z     vdW  Elec       q    Type
REMARK                         _______ _______ _______ _____ _____    ______ ____
ROOT
ATOM      1  C   UNL     1      27.076   6.291  15.883  0.00  0.00    +0.000 A 
ATOM      2  C   UNL     1      26.151   5.314  16.182  0.00  0.00    +0.000 A 
ATOM      3  C   UNL     1      25.857   4.951  17.479  0.00  0.00    +0.000 A 
ATOM      4  N   UNL     1      26.482   5.557  18.500  0.00  0.00    +0.000 NA
ATOM      5  C   UNL     1      27.391   6.517  18.198  0.00  0.00    +0.000 A 
ATOM      6  N   UNL     1      28.108   7.217  19.229  0.00  0.00    +0.000 NA
ATOM      7  N   UNL     1      27.678   6.871  16.932  0.00  0.00    +0.000 NA
ENDROOT
BRANCH   3   8
ATOM      8  C   UNL     1      24.858   3.904  17.694  0.00  0.00    +0.000 A 
ATOM      9  C   UNL     1      23.569   4.191  18.090  0.00  0.00    +0.000 A 
ATOM     10  C   UNL     1      22.641   3.171  18.287  0.00  0.00    +0.000 A 
ATOM     11  C   UNL     1      22.960   1.847  18.100  0.00  0.00    +0.000 A 
ATOM     12  F   UNL     1      22.049   0.849  18.293  0.00  0.00    +0.000 F 
ATOM     13  C   UNL     1      24.248   1.553  17.703  0.00  0.00    +0.000 A 
ATOM     14  C   UNL     1      24.572   0.212  17.513  0.00  0.00    +0.000 A 
ATOM     15  C   UNL     1      25.862  -0.091  17.116  0.00  0.00    +0.000 A 
ATOM     16  C   UNL     1      26.767   0.939  16.926  0.00  0.00    +0.000 A 
ATOM     17  C   UNL     1      26.447   2.254  17.113  0.00  0.00    +0.000 A 
ATOM     18  C   UNL     1      25.167   2.574  17.509  0.00  0.00    +0.000 A 
ENDBRANCH   3   8
BRANCH   1  20
ATOM     19  C   UNL     1      26.088   6.987  13.729  0.00  0.00    +0.000 C 
ATOM     20  C   UNL     1      27.366   6.653  14.468  0.00  0.00    +0.000 C 
ATOM     21  C   UNL     1      28.161   5.562  13.783  0.00  0.00    +0.000 C 
ATOM     22  C   UNL     1      28.244   7.896  14.447  0.00  0.00    +0.000 C 
ENDBRANCH   1  20
TORSDOF 2
ENDMDL
MODEL 10
REMARK VINA RESULT:      -6.7     32.378     34.027
REMARK  Name = 
REMARK  2 active torsions:
REMARK  status: ('A' for Active; 'I' for Inactive)
REMARK    1  A    between atoms: C_2  and  C_5
REMARK    2  A    between atoms: C_7  and  C_8
REMARK                            x       y       z     vdW  Elec       q    Type
REMARK                         _______ _______ _______ _____ _____    ______ ____
ROOT
ATOM      1  C   UNL     1      18.382 -11.159  29.491  0.00  0.00    +0.000 A 
ATOM      2  C   UNL     1      18.592  -9.911  28.945  0.00  0.00    +0.000 A 
ATOM      3  C   UNL     1      18.300  -9.625  27.629  0.00  0.00    +0.000 A 
ATOM      4  N   UNL     1      17.794 -10.581  26.834  0.00  0.00    +0.000 NA
ATOM      5  C   UNL     1      17.591 -11.806  27.379  0.00  0.00    +0.000 A 
ATOM      6  N   UNL     1      17.053 -12.888  26.600  0.00  0.00    +0.000 NA
ATOM      7  N   UNL     1      17.876 -12.085  28.663  0.00  0.00    +0.000 NA
ENDROOT
BRANCH   3   8
ATOM      8  C   UNL     1      18.557  -8.269  27.143  0.00  0.00    +0.000 A 
ATOM      9  C   UNL     1      17.676  -7.232  27.366  0.00  0.00    +0.000 A 
ATOM     10  C   UNL     1      17.948  -5.951  26.889  0.00  0.00    +0.000 A 
ATOM     11  C   UNL     1      19.092  -5.663  26.184  0.00  0.00    +0.000 A 
ATOM     12  F   UNL     1      19.358  -4.408  25.719  0.00  0.00    +0.000 F 
ATOM     13  C   UNL     1      19.978  -6.696  25.959  0.00  0.00    +0.000 A 
ATOM     14  C   UNL     1      21.137  -6.404  25.245  0.00  0.00    +0.000 A 
ATOM     15  C   UNL     1      22.031  -7.434  25.013  0.00  0.00    +0.000 A 
ATOM     16  C   UNL     1      21.738  -8.699  25.497  0.00  0.00    +0.000 A 
ATOM     17  C   UNL     1      20.601  -8.983  26.197  0.00  0.00    +0.000 A 
ATOM     18  C   UNL     1      19.700  -7.968  26.436  0.00  0.00    +0.000 A 
ENDBRANCH   3   8
BRANCH   1  20
ATOM     19  C   UNL     1      19.836 -12.436  31.026  0.00  0.00    +0.000 C 
ATOM     20  C   UNL     1      18.712 -11.428  30.918  0.00  0.00    +0.000 C 
ATOM     21  C   UNL     1      17.479 -11.853  31.686  0.00  0.00    +0.000 C 
ATOM     22  C   UNL     1      19.193 -10.137  31.566  0.00  0.00    +0.000 C 
ENDBRANCH   1  20
TORSDOF 2
ENDMDL
