MODEL 1
REMARK VINA RESULT:      -7.0      0.000      0.000
REMARK  Name = 
REMARK  2 active torsions:
REMARK  status: ('A' for Active; 'I' for Inactive)
REMARK    1  A    between atoms: C_6  and  C_7
REMARK    2  A    between atoms: C_7  and  C_8
REMARK                            x       y       z     vdW  Elec       q    Type
REMARK                         _______ _______ _______ _____ _____    ______ ____
ROOT
ATOM      1  C   UNL     1      23.795  -9.705  24.628  0.00  0.00    +0.000 C 
ATOM      2  C   UNL     1      22.809  -8.606  24.893  0.00  0.00    +0.000 A 
ATOM      3  C   UNL     1      21.640  -8.835  25.583  0.00  0.00    +0.000 A 
ATOM      4  C   UNL     1      20.745  -7.797  25.814  0.00  0.00    +0.000 A 
ATOM      5  N   UNL     1      19.619  -8.062  26.491  0.00  0.00    +0.000 NA
ATOM      6  C   UNL     1      18.759  -7.040  26.708  0.00  0.00    +0.000 A 
ATOM      7  C   UNL     1      19.005  -5.754  26.261  0.00  0.00    +0.000 A 
ATOM      8  O   UNL     1      18.121  -4.890  26.529  0.00  0.00    +0.000 OA
ATOM      9  N   UNL     1      20.122  -5.506  25.592  0.00  0.00    +0.000 NA
ATOM     10  C   UNL     1      21.006  -6.508  25.358  0.00  0.00    +0.000 A 
ATOM     11  C   UNL     1      22.187  -6.318  24.671  0.00  0.00    +0.000 A 
ATOM     12  C   UNL     1      23.084  -7.335  24.433  0.00  0.00    +0.000 A 
ATOM     13  C   UNL     1      24.363  -7.112  23.684  0.00  0.00    +0.000 C 
ENDROOT
BRANCH   6  14
ATOM     14  C   UNL     1      17.522  -7.363  27.462  0.00  0.00    +0.000 C 
BRANCH  14  15
ATOM     15  C   UNL     1      16.724  -8.421  26.781  0.00  0.00    +0.000 A 
ATOM     16  C   UNL     1      16.063  -8.114  25.593  0.00  0.00    +0.000 A 
ATOM     17  C   UNL     1      15.321  -9.087  24.959  0.00  0.00    +0.000 A 
ATOM     18  C   UNL     1      15.197 -10.378  25.454  0.00  0.00    +0.000 A 
ATOM     19  C   UNL     1      15.855 -10.665  26.628  0.00  0.00    +0.000 A 
ATOM     20  C   UNL     1      16.601  -9.705  27.276  0.00  0.00    +0.000 A 
ATOM     21  F   UNL     1      17.252  -9.988  28.437  0.00  0.00    +0.000 F 
ENDBRANCH  14  15
ENDBRANCH   6  14
TORSDOF 2
ENDMDL
MODEL 2
REMARK VINA RESULT:      -6.8     34.921     37.175
REMARK  Name = 
REMARK  2 active torsions:
REMARK  status: ('A' for Active; 'I' for Inactive)
REMARK    1  A    between atoms: C_6  and  C_7
REMARK    2  A    between atoms: C_7  and  C_8
REMARK                            x       y       z     vdW  Elec       q    Type
REMARK                         _______ _______ _______ _____ _____    ______ ____
ROOT
ATOM      1  C   UNL     1      28.495  24.457  14.321  0.00  0.00    +0.000 C 
ATOM      2  C   UNL     1      28.848  23.606  13.136  0.00  0.00    +0.000 A 
ATOM      3  C   UNL     1      30.149  23.463  12.711  0.00  0.00    +0.000 A 
ATOM      4  C   UNL     1      30.445  22.669  11.610  0.00  0.00    +0.000 A 
ATOM      5  N   UNL     1      31.726  22.555  11.229  0.00  0.00    +0.000 NA
ATOM      6  C   UNL     1      31.997  21.776  10.156  0.00  0.00    +0.000 A 
ATOM      7  C   UNL     1      31.010  21.106   9.455  0.00  0.00    +0.000 A 
ATOM      8  O   UNL     1      31.397  20.412   8.471  0.00  0.00    +0.000 OA
ATOM      9  N   UNL     1      29.748  21.228   9.843  0.00  0.00    +0.000 NA
ATOM     10  C   UNL     1      29.442  22.000  10.914  0.00  0.00    +0.000 A 
ATOM     11  C   UNL     1      28.151  22.168  11.371  0.00  0.00    +0.000 A 
ATOM     12  C   UNL     1      27.839  22.952  12.459  0.00  0.00    +0.000 A 
ATOM     13  C   UNL     1      26.432  23.125  12.942  0.00  0.00    +0.000 C 
ENDROOT
BRANCH   6  14
ATOM     14  C   UNL     1      33.423  21.668   9.760  0.00  0.00    +0.000 C 
BRANCH  14  15
ATOM     15  C   UNL     1      33.976  22.984   9.332  0.00  0.00    +0.000 A 
ATOM     16  C   UNL     1      34.815  23.681  10.200  0.00  0.00    +0.000 A 
ATOM     17  C   UNL     1      35.329  24.900   9.812  0.00  0.00    +0.000 A 
ATOM     18  C   UNL     1      35.048  25.476   8.581  0.00  0.00    +0.000 A 
ATOM     19  C   UNL     1      34.218  24.775   7.736  0.00  0.00    +0.000 A 
ATOM     20  C   UNL     1      33.695  23.556   8.106  0.00  0.00    +0.000 A 
ATOM     21  F   UNL     1      32.874  22.862   7.272  0.00  0.00    +0.000 F 
ENDBRANCH  14  15
ENDBRANCH   6  14
TORSDOF 2
ENDMDL
MODEL 3
REMARK VINA RESULT:      -6.5     34.548     35.986
REMARK  Name = 
REMARK  2 active torsions:
REMARK  status: ('A' for Active; 'I' for Inactive)
REMARK    1  A    between atoms: C_6  and  C_7
REMARK    2  A    between atoms: C_7  and  C_8
REMARK                            x       y       z     vdW  Elec       q    Type
REMARK                         _______ _______ _______ _____ _____    ______ ____
ROOT
ATOM      1  C   UNL     1      28.111  24.438  14.232  0.00  0.00    +0.000 C 
ATOM      2  C   UNL     1      28.592  23.622  13.069  0.00  0.00    +0.000 A 
ATOM      3  C   UNL     1      29.908  23.642  12.667  0.00  0.00    +0.000 A 
ATOM      4  C   UNL     1      30.324  22.875  11.586  0.00  0.00    +0.000 A 
ATOM      5  N   UNL     1      31.616  22.922  11.228  0.00  0.00    +0.000 NA
ATOM      6  C   UNL     1      32.005  22.168  10.173  0.00  0.00    +0.000 A 
ATOM      7  C   UNL     1      31.126  21.365   9.469  0.00  0.00    +0.000 A 
ATOM      8  O   UNL     1      31.617  20.711   8.504  0.00  0.00    +0.000 OA
ATOM      9  N   UNL     1      29.852  21.328   9.834  0.00  0.00    +0.000 NA
ATOM     10  C   UNL     1      29.429  22.071  10.886  0.00  0.00    +0.000 A 
ATOM     11  C   UNL     1      28.119  22.078  11.319  0.00  0.00    +0.000 A 
ATOM     12  C   UNL     1      27.689  22.832  12.388  0.00  0.00    +0.000 A 
ATOM     13  C   UNL     1      26.262  22.828  12.844  0.00  0.00    +0.000 C 
ENDROOT
BRANCH   6  14
ATOM     14  C   UNL     1      33.440  22.239   9.801  0.00  0.00    +0.000 C 
BRANCH  14  15
ATOM     15  C   UNL     1      34.247  21.219  10.527  0.00  0.00    +0.000 A 
ATOM     16  C   UNL     1      33.926  20.913  11.849  0.00  0.00    +0.000 A 
ATOM     17  C   UNL     1      34.670  19.971  12.526  0.00  0.00    +0.000 A 
ATOM     18  C   UNL     1      35.740  19.302  11.949  0.00  0.00    +0.000 A 
ATOM     19  C   UNL     1      36.044  19.615  10.643  0.00  0.00    +0.000 A 
ATOM     20  C   UNL     1      35.312  20.554   9.950  0.00  0.00    +0.000 A 
ATOM     21  F   UNL     1      35.612  20.864   8.660  0.00  0.00    +0.000 F 
ENDBRANCH  14  15
ENDBRANCH   6  14
TORSDOF 2
ENDMDL
MODEL 4
REMARK VINA RESULT:      -6.4     15.200     17.416
REMARK  Name = 
REMARK  2 active torsions:
REMARK  status: ('A' for Active; 'I' for Inactive)
REMARK    1  A    between atoms: C_6  and  C_7
REMARK    2  A    between atoms: C_7  and  C_8
REMARK                            x       y       z     vdW  Elec       q    Type
REMARK                         _______ _______ _______ _____ _____    ______ ____
ROOT
ATOM      1  C   UNL     1      33.227  -6.085  28.512  0.00  0.00    +0.000 C 
ATOM      2  C   UNL     1      33.771  -5.981  29.907  0.00  0.00    +0.000 A 
ATOM      3  C   UNL     1      33.327  -5.020  30.786  0.00  0.00    +0.000 A 
ATOM      4  C   UNL     1      33.850  -4.949  32.071  0.00  0.00    +0.000 A 
ATOM      5  N   UNL     1      33.389  -3.998  32.898  0.00  0.00    +0.000 NA
ATOM      6  C   UNL     1      33.908  -3.943  34.146  0.00  0.00    +0.000 A 
ATOM      7  C   UNL     1      34.880  -4.823  34.587  0.00  0.00    +0.000 A 
ATOM      8  O   UNL     1      35.281  -4.664  35.776  0.00  0.00    +0.000 OA
ATOM      9  N   UNL     1      35.327  -5.758  33.760  0.00  0.00    +0.000 NA
ATOM     10  C   UNL     1      34.828  -5.841  32.501  0.00  0.00    +0.000 A 
ATOM     11  C   UNL     1      35.247  -6.790  31.592  0.00  0.00    +0.000 A 
ATOM     12  C   UNL     1      34.741  -6.874  30.314  0.00  0.00    +0.000 A 
ATOM     13  C   UNL     1      35.207  -7.910  29.338  0.00  0.00    +0.000 C 
ENDROOT
BRANCH   6  14
ATOM     14  C   UNL     1      33.377  -2.882  35.038  0.00  0.00    +0.000 C 
BRANCH  14  15
ATOM     15  C   UNL     1      33.401  -1.546  34.378  0.00  0.00    +0.000 A 
ATOM     16  C   UNL     1      34.373  -1.283  33.415  0.00  0.00    +0.000 A 
ATOM     17  C   UNL     1      34.402  -0.048  32.802  0.00  0.00    +0.000 A 
ATOM     18  C   UNL     1      33.498   0.961  33.103  0.00  0.00    +0.000 A 
ATOM     19  C   UNL     1      32.544   0.685  34.057  0.00  0.00    +0.000 A 
ATOM     20  C   UNL     1      32.500  -0.543  34.680  0.00  0.00    +0.000 A 
ATOM     21  F   UNL     1      31.559  -0.817  35.623  0.00  0.00    +0.000 F 
ENDBRANCH  14  15
ENDBRANCH   6  14
TORSDOF 2
ENDMDL
MODEL 5
REMARK VINA RESULT:      -6.3     20.688     21.570
REMARK  Name = 
REMARK  2 active torsions:
REMARK  status: ('A' for Active; 'I' for Inactive)
REMARK    1  A    between atoms: C_6  and  C_7
REMARK    2  A    between atoms: C_7  and  C_8
REMARK                            x       y       z     vdW  Elec       q    Type
REMARK                         _______ _______ _______ _____ _____    ______ ____
ROOT
ATOM      1  C   UNL     1      25.040  10.587  38.803  0.00  0.00    +0.000 C 
ATOM      2  C   UNL     1      23.689  10.364  38.189  0.00  0.00    +0.000 A 
ATOM      3  C   UNL     1      22.547  10.312  38.955  0.00  0.00    +0.000 A 
ATOM      4  C   UNL     1      21.310  10.104  38.359  0.00  0.00    +0.000 A 
ATOM      5  N   UNL     1      20.221  10.061  39.141  0.00  0.00    +0.000 NA
ATOM      6  C   UNL     1      19.023   9.859  38.543  0.00  0.00    +0.000 A 
ATOM      7  C   UNL     1      18.893   9.700  37.175  0.00  0.00    +0.000 A 
ATOM      8  O   UNL     1      17.718   9.518  36.743  0.00  0.00    +0.000 OA
ATOM      9  N   UNL     1      19.977   9.745  36.414  0.00  0.00    +0.000 NA
ATOM     10  C   UNL     1      21.193   9.945  36.980  0.00  0.00    +0.000 A 
ATOM     11  C   UNL     1      22.360  10.004  36.247  0.00  0.00    +0.000 A 
ATOM     12  C   UNL     1      23.594  10.209  36.822  0.00  0.00    +0.000 A 
ATOM     13  C   UNL     1      24.852  10.269  36.011  0.00  0.00    +0.000 C 
ENDROOT
BRANCH   6  14
ATOM     14  C   UNL     1      17.838   9.819  39.434  0.00  0.00    +0.000 C 
BRANCH  14  15
ATOM     15  C   UNL     1      17.689   8.490  40.092  0.00  0.00    +0.000 A 
ATOM     16  C   UNL     1      18.621   7.490  39.820  0.00  0.00    +0.000 A 
ATOM     17  C   UNL     1      18.489   6.258  40.425  0.00  0.00    +0.000 A 
ATOM     18  C   UNL     1      17.457   5.960  41.304  0.00  0.00    +0.000 A 
ATOM     19  C   UNL     1      16.545   6.959  41.562  0.00  0.00    +0.000 A 
ATOM     20  C   UNL     1      16.661   8.196  40.967  0.00  0.00    +0.000 A 
ATOM     21  F   UNL     1      15.760   9.183  41.221  0.00  0.00    +0.000 F 
ENDBRANCH  14  15
ENDBRANCH   6  14
TORSDOF 2
ENDMDL
MODEL 6
REMARK VINA RESULT:      -6.3     32.802     35.020
REMARK  Name = 
REMARK  2 active torsions:
REMARK  status: ('A' for Active; 'I' for Inactive)
REMARK    1  A    between atoms: C_6  and  C_7
REMARK    2  A    between atoms: C_7  and  C_8
REMARK                            x       y       z     vdW  Elec       q    Type
REMARK                         _______ _______ _______ _____ _____    ______ ____
ROOT
ATOM      1  C   UNL     1      30.920  27.563  18.240  0.00  0.00    +0.000 C 
ATOM      2  C   UNL     1      30.054  27.441  19.460  0.00  0.00    +0.000 A 
ATOM      3  C   UNL     1      29.718  26.215  19.988  0.00  0.00    +0.000 A 
ATOM      4  C   UNL     1      28.914  26.134  21.118  0.00  0.00    +0.000 A 
ATOM      5  N   UNL     1      28.612  24.920  21.602  0.00  0.00    +0.000 NA
ATOM      6  C   UNL     1      27.828  24.859  22.705  0.00  0.00    +0.000 A 
ATOM      7  C   UNL     1      27.343  25.991  23.335  0.00  0.00    +0.000 A 
ATOM      8  O   UNL     1      26.622  25.796  24.356  0.00  0.00    +0.000 OA
ATOM      9  N   UNL     1      27.650  27.184  22.846  0.00  0.00    +0.000 NA
ATOM     10  C   UNL     1      28.432  27.281  21.743  0.00  0.00    +0.000 A 
ATOM     11  C   UNL     1      28.791  28.491  21.184  0.00  0.00    +0.000 A 
ATOM     12  C   UNL     1      29.586  28.589  20.064  0.00  0.00    +0.000 A 
ATOM     13  C   UNL     1      29.965  29.911  19.469  0.00  0.00    +0.000 C 
ENDROOT
BRANCH   6  14
ATOM     14  C   UNL     1      27.512  23.504  23.218  0.00  0.00    +0.000 C 
BRANCH  14  15
ATOM     15  C   UNL     1      28.459  23.086  24.290  0.00  0.00    +0.000 A 
ATOM     16  C   UNL     1      29.820  23.004  23.999  0.00  0.00    +0.000 A 
ATOM     17  C   UNL     1      30.701  22.616  24.986  0.00  0.00    +0.000 A 
ATOM     18  C   UNL     1      30.294  22.299  26.274  0.00  0.00    +0.000 A 
ATOM     19  C   UNL     1      28.947  22.386  26.545  0.00  0.00    +0.000 A 
ATOM     20  C   UNL     1      28.051  22.771  25.572  0.00  0.00    +0.000 A 
ATOM     21  F   UNL     1      26.720  22.856  25.838  0.00  0.00    +0.000 F 
ENDBRANCH  14  15
ENDBRANCH   6  14
TORSDOF 2
ENDMDL
MODEL 7
REMARK VINA RESULT:      -6.2     21.680     23.689
REMARK  Name = 
REMARK  2 active torsions:
REMARK  status: ('A' for Active; 'I' for Inactive)
REMARK    1  A    between atoms: C_6  and  C_7
REMARK    2  A    between atoms: C_7  and  C_8
REMARK                            x       y       z     vdW  Elec       q    Type
REMARK                         _______ _______ _______ _____ _____    ______ ____
ROOT
ATOM      1  C   UNL     1      21.277  16.820  39.117  0.00  0.00    +0.000 C 
ATOM      2  C   UNL     1      21.275  15.342  38.857  0.00  0.00    +0.000 A 
ATOM      3  C   UNL     1      20.108  14.651  38.624  0.00  0.00    +0.000 A 
ATOM      4  C   UNL     1      20.138  13.282  38.386  0.00  0.00    +0.000 A 
ATOM      5  N   UNL     1      18.978  12.646  38.163  0.00  0.00    +0.000 NA
ATOM      6  C   UNL     1      19.025  11.313  37.932  0.00  0.00    +0.000 A 
ATOM      7  C   UNL     1      20.212  10.602  37.917  0.00  0.00    +0.000 A 
ATOM      8  O   UNL     1      20.118   9.362  37.689  0.00  0.00    +0.000 OA
ATOM      9  N   UNL     1      21.351  11.244  38.140  0.00  0.00    +0.000 NA
ATOM     10  C   UNL     1      21.339  12.579  38.375  0.00  0.00    +0.000 A 
ATOM     11  C   UNL     1      22.487  13.307  38.611  0.00  0.00    +0.000 A 
ATOM     12  C   UNL     1      22.476  14.663  38.850  0.00  0.00    +0.000 A 
ATOM     13  C   UNL     1      23.732  15.438  39.106  0.00  0.00    +0.000 C 
ENDROOT
BRANCH   6  14
ATOM     14  C   UNL     1      17.727  10.638  37.687  0.00  0.00    +0.000 C 
BRANCH  14  15
ATOM     15  C   UNL     1      17.249  10.854  36.292  0.00  0.00    +0.000 A 
ATOM     16  C   UNL     1      17.800  10.096  35.260  0.00  0.00    +0.000 A 
ATOM     17  C   UNL     1      17.364  10.293  33.967  0.00  0.00    +0.000 A 
ATOM     18  C   UNL     1      16.388  11.223  33.637  0.00  0.00    +0.000 A 
ATOM     19  C   UNL     1      15.855  11.964  34.667  0.00  0.00    +0.000 A 
ATOM     20  C   UNL     1      16.278  11.782  35.965  0.00  0.00    +0.000 A 
ATOM     21  F   UNL     1      15.752  12.514  36.984  0.00  0.00    +0.000 F 
ENDBRANCH  14  15
ENDBRANCH   6  14
TORSDOF 2
ENDMDL
MODEL 8
REMARK VINA RESULT:      -6.2     34.512     36.622
REMARK  Name = 
REMARK  2 active torsions:
REMARK  status: ('A' for Active; 'I' for Inactive)
REMARK    1  A    between atoms: C_6  and  C_7
REMARK    2  A    between atoms: C_7  and  C_8
REMARK                            x       y       z     vdW  Elec       q    Type
REMARK                         _______ _______ _______ _____ _____    ______ ____
ROOT
ATOM      1  C   UNL     1      36.418  24.507   9.234  0.00  0.00    +0.000 C 
ATOM      2  C   UNL     1      35.221  23.692   8.839  0.00  0.00    +0.000 A 
ATOM      3  C   UNL     1      34.380  23.142   9.780  0.00  0.00    +0.000 A 
ATOM      4  C   UNL     1      33.279  22.392   9.384  0.00  0.00    +0.000 A 
ATOM      5  N   UNL     1      32.484  21.874  10.332  0.00  0.00    +0.000 NA
ATOM      6  C   UNL     1      31.415  21.147   9.929  0.00  0.00    +0.000 A 
ATOM      7  C   UNL     1      31.124  20.929   8.595  0.00  0.00    +0.000 A 
ATOM      8  O   UNL     1      30.097  20.233   8.353  0.00  0.00    +0.000 OA
ATOM      9  N   UNL     1      31.919  21.447   7.668  0.00  0.00    +0.000 NA
ATOM     10  C   UNL     1      32.998  22.180   8.037  0.00  0.00    +0.000 A 
ATOM     11  C   UNL     1      33.864  22.749   7.125  0.00  0.00    +0.000 A 
ATOM     12  C   UNL     1      34.960  23.494   7.500  0.00  0.00    +0.000 A 
ATOM     13  C   UNL     1      35.890  24.103   6.496  0.00  0.00    +0.000 C 
ENDROOT
BRANCH   6  14
ATOM     14  C   UNL     1      30.553  20.589  11.000  0.00  0.00    +0.000 C 
BRANCH  14  15
ATOM     15  C   UNL     1      29.785  21.656  11.700  0.00  0.00    +0.000 A 
ATOM     16  C   UNL     1      28.582  22.098  11.151  0.00  0.00    +0.000 A 
ATOM     17  C   UNL     1      27.867  23.086  11.793  0.00  0.00    +0.000 A 
ATOM     18  C   UNL     1      28.293  23.673  12.977  0.00  0.00    +0.000 A 
ATOM     19  C   UNL     1      29.482  23.225  13.506  0.00  0.00    +0.000 A 
ATOM     20  C   UNL     1      30.210  22.239  12.879  0.00  0.00    +0.000 A 
ATOM     21  F   UNL     1      31.386  21.796  13.401  0.00  0.00    +0.000 F 
ENDBRANCH  14  15
ENDBRANCH   6  14
TORSDOF 2
ENDMDL
MODEL 9
REMARK VINA RESULT:      -6.0     31.609     33.668
REMARK  Name = 
REMARK  2 active torsions:
REMARK  status: ('A' for Active; 'I' for Inactive)
REMARK    1  A    between atoms: C_6  and  C_7
REMARK    2  A    between atoms: C_7  and  C_8
REMARK                            x       y       z     vdW  Elec       q    Type
REMARK                         _______ _______ _______ _____ _____    ______ ____
ROOT
ATOM      1  C   UNL     1      24.867  26.103  31.478  0.00  0.00    +0.000 C 
ATOM      2  C   UNL     1      25.003  25.653  30.052  0.00  0.00    +0.000 A 
ATOM      3  C   UNL     1      25.942  24.719  29.677  0.00  0.00    +0.000 A 
ATOM      4  C   UNL     1      26.044  24.321  28.349  0.00  0.00    +0.000 A 
ATOM      5  N   UNL     1      26.971  23.408  28.025  0.00  0.00    +0.000 NA
ATOM      6  C   UNL     1      27.057  23.031  26.727  0.00  0.00    +0.000 A 
ATOM      7  C   UNL     1      26.231  23.550  25.746  0.00  0.00    +0.000 A 
ATOM      8  O   UNL     1      26.414  23.114  24.573  0.00  0.00    +0.000 OA
ATOM      9  N   UNL     1      25.319  24.452  26.081  0.00  0.00    +0.000 NA
ATOM     10  C   UNL     1      25.206  24.852  27.372  0.00  0.00    +0.000 A 
ATOM     11  C   UNL     1      24.279  25.785  27.788  0.00  0.00    +0.000 A 
ATOM     12  C   UNL     1      24.164  26.191  29.099  0.00  0.00    +0.000 A 
ATOM     13  C   UNL     1      23.152  27.206  29.534  0.00  0.00    +0.000 C 
ENDROOT
BRANCH   6  14
ATOM     14  C   UNL     1      28.090  22.018  26.399  0.00  0.00    +0.000 C 
BRANCH  14  15
ATOM     15  C   UNL     1      29.417  22.647  26.149  0.00  0.00    +0.000 A 
ATOM     16  C   UNL     1      30.180  23.077  27.233  0.00  0.00    +0.000 A 
ATOM     17  C   UNL     1      31.408  23.662  27.008  0.00  0.00    +0.000 A 
ATOM     18  C   UNL     1      31.930  23.847  25.736  0.00  0.00    +0.000 A 
ATOM     19  C   UNL     1      31.165  23.417  24.676  0.00  0.00    +0.000 A 
ATOM     20  C   UNL     1      29.935  22.831  24.881  0.00  0.00    +0.000 A 
ATOM     21  F   UNL     1      29.177  22.406  23.834  0.00  0.00    +0.000 F 
ENDBRANCH  14  15
ENDBRANCH   6  14
TORSDOF 2
ENDMDL
MODEL 10
REMARK VINA RESULT:      -6.0     32.255     33.968
REMARK  Name = 
REMARK  2 active torsions:
REMARK  status: ('A' for Active; 'I' for Inactive)
REMARK    1  A    between atoms: C_6  and  C_7
REMARK    2  A    between atoms: C_7  and  C_8
REMARK                            x       y       z     vdW  Elec       q    Type
REMARK                         _______ _______ _______ _____ _____    ______ ____
ROOT
ATOM      1  C   UNL     1      24.402  25.986  28.360  0.00  0.00    +0.000 C 
ATOM      2  C   UNL     1      25.074  25.475  27.119  0.00  0.00    +0.000 A 
ATOM      3  C   UNL     1      26.218  24.713  27.178  0.00  0.00    +0.000 A 
ATOM      4  C   UNL     1      26.818  24.254  26.012  0.00  0.00    +0.000 A 
ATOM      5  N   UNL     1      27.931  23.513  26.114  0.00  0.00    +0.000 NA
ATOM      6  C   UNL     1      28.502  23.073  24.968  0.00  0.00    +0.000 A 
ATOM      7  C   UNL     1      27.980  23.359  23.719  0.00  0.00    +0.000 A 
ATOM      8  O   UNL     1      28.609  22.889  22.729  0.00  0.00    +0.000 OA
ATOM      9  N   UNL     1      26.879  24.093  23.633  0.00  0.00    +0.000 NA
ATOM     10  C   UNL     1      26.281  24.550  24.762  0.00  0.00    +0.000 A 
ATOM     11  C   UNL     1      25.134  25.316  24.744  0.00  0.00    +0.000 A 
ATOM     12  C   UNL     1      24.527  25.779  25.889  0.00  0.00    +0.000 A 
ATOM     13  C   UNL     1      23.282  26.611  25.852  0.00  0.00    +0.000 C 
ENDROOT
BRANCH   6  14
ATOM     14  C   UNL     1      29.731  22.255  25.112  0.00  0.00    +0.000 C 
BRANCH  14  15
ATOM     15  C   UNL     1      30.903  23.086  25.507  0.00  0.00    +0.000 A 
ATOM     16  C   UNL     1      31.629  23.748  24.519  0.00  0.00    +0.000 A 
ATOM     17  C   UNL     1      32.716  24.517  24.878  0.00  0.00    +0.000 A 
ATOM     18  C   UNL     1      33.128  24.666  26.195  0.00  0.00    +0.000 A 
ATOM     19  C   UNL     1      32.400  24.006  27.159  0.00  0.00    +0.000 A 
ATOM     20  C   UNL     1      31.312  23.233  26.819  0.00  0.00    +0.000 A 
ATOM     21  F   UNL     1      30.592  22.579  27.771  0.00  0.00    +0.000 F 
ENDBRANCH  14  15
ENDBRANCH   6  14
TORSDOF 2
ENDMDL
