MODEL 1
REMARK VINA RESULT:      -5.7      0.000      0.000
REMARK  Name = 
REMARK  5 active torsions:
REMARK  status: ('A' for Active; 'I' for Inactive)
REMARK    1  A    between atoms: C_2  and  C_4
REMARK    2  A    between atoms: C_4  and  C_18
REMARK    3  A    between atoms: N_5  and  N_6
REMARK    4  A    between atoms: C_7  and  C_9
REMARK    5  A    between atoms: C_14  and  N_15
REMARK                            x       y       z     vdW  Elec       q    Type
REMARK                         _______ _______ _______ _____ _____    ______ ____
ROOT
ATOM      1  N   UNL     1      22.328  -8.368  25.728  0.00  0.00    +0.000 NA
ATOM      2  C   UNL     1      20.979  -8.248  25.416  0.00  0.00    +0.000 C 
ATOM      3  O   UNL     1      20.570  -9.053  24.489  0.00  0.00    +0.000 OA
ENDROOT
BRANCH   2   4
ATOM      4  C   UNL     1      19.980  -7.354  25.976  0.00  0.00    +0.000 A 
ATOM      5  C   UNL     1      20.087  -5.972  25.668  0.00  0.00    +0.000 A 
ATOM      6  C   UNL     1      19.207  -5.092  26.231  0.00  0.00    +0.000 A 
ATOM      7  C   UNL     1      18.205  -5.484  27.096  0.00  0.00    +0.000 A 
ATOM      8  C   UNL     1      18.096  -6.809  27.396  0.00  0.00    +0.000 A 
ATOM      9  C   UNL     1      18.994  -7.753  26.828  0.00  0.00    +0.000 A 
BRANCH   9  10
ATOM     10  N   UNL     1      18.809  -9.113  27.171  0.00  0.00    +0.000 N 
ATOM     11  O   UNL     1      19.409  -9.508  28.221  0.00  0.00    +0.000 OA
ATOM     12  O   UNL     1      18.087 -10.026  26.524  0.00  0.00    +0.000 OA
ENDBRANCH   9  10
ENDBRANCH   2   4
BRANCH   1  14
ATOM     13  C   UNL     1      23.998  -8.856  24.211  0.00  0.00    +0.000 C 
ATOM     14  N   UNL     1      23.207  -9.263  25.122  0.00  0.00    +0.000 NA
BRANCH  13  16
ATOM     15  C   UNL     1      24.301 -10.662  22.527  0.00  0.00    +0.000 C 
ATOM     16  C   UNL     1      24.969  -9.733  23.507  0.00  0.00    +0.000 C 
ATOM     17  C   UNL     1      25.840 -10.492  24.480  0.00  0.00    +0.000 C 
ENDBRANCH  13  16
BRANCH  13  18
ATOM     18  C   UNL     1      23.983  -7.431  23.796  0.00  0.00    +0.000 C 
ATOM     19  C   UNL     1      25.412  -7.083  23.382  0.00  0.00    +0.000 C 
ATOM     20  C   UNL     1      23.110  -7.196  22.578  0.00  0.00    +0.000 C 
ENDBRANCH  13  18
ENDBRANCH   1  14
TORSDOF 5
ENDMDL
MODEL 2
REMARK VINA RESULT:      -5.5     20.965     22.855
REMARK  Name = 
REMARK  5 active torsions:
REMARK  status: ('A' for Active; 'I' for Inactive)
REMARK    1  A    between atoms: C_2  and  C_4
REMARK    2  A    between atoms: C_4  and  C_18
REMARK    3  A    between atoms: N_5  and  N_6
REMARK    4  A    between atoms: C_7  and  C_9
REMARK    5  A    between atoms: C_14  and  N_15
REMARK                            x       y       z     vdW  Elec       q    Type
REMARK                         _______ _______ _______ _____ _____    ______ ____
ROOT
ATOM      1  N   UNL     1      19.656  10.180  37.361  0.00  0.00    +0.000 NA
ATOM      2  C   UNL     1      20.884  10.772  37.634  0.00  0.00    +0.000 C 
ATOM      3  O   UNL     1      20.808  11.996  38.047  0.00  0.00    +0.000 OA
ENDROOT
BRANCH   2   4
ATOM      4  C   UNL     1      22.221  10.216  37.519  0.00  0.00    +0.000 A 
ATOM      5  C   UNL     1      22.891  10.367  36.275  0.00  0.00    +0.000 A 
ATOM      6  C   UNL     1      24.122   9.799  36.106  0.00  0.00    +0.000 A 
ATOM      7  C   UNL     1      24.756   9.075  37.097  0.00  0.00    +0.000 A 
ATOM      8  C   UNL     1      24.119   8.926  38.292  0.00  0.00    +0.000 A 
ATOM      9  C   UNL     1      22.838   9.504  38.504  0.00  0.00    +0.000 A 
BRANCH   9  10
ATOM     10  N   UNL     1      22.246   9.323  39.776  0.00  0.00    +0.000 N 
ATOM     11  O   UNL     1      22.556  10.184  40.661  0.00  0.00    +0.000 OA
ATOM     12  O   UNL     1      21.409   8.360  40.156  0.00  0.00    +0.000 OA
ENDBRANCH   9  10
ENDBRANCH   2   4
BRANCH   1  14
ATOM     13  C   UNL     1      17.602  10.825  36.529  0.00  0.00    +0.000 C 
ATOM     14  N   UNL     1      18.422  10.809  37.503  0.00  0.00    +0.000 NA
BRANCH  13  16
ATOM     15  C   UNL     1      16.352  12.974  36.610  0.00  0.00    +0.000 C 
ATOM     16  C   UNL     1      16.265  11.470  36.583  0.00  0.00    +0.000 C 
ATOM     17  C   UNL     1      15.441  10.946  37.736  0.00  0.00    +0.000 C 
ENDBRANCH  13  16
BRANCH  13  18
ATOM     18  C   UNL     1      17.963  10.175  35.244  0.00  0.00    +0.000 C 
ATOM     19  C   UNL     1      17.528   8.715  35.358  0.00  0.00    +0.000 C 
ATOM     20  C   UNL     1      17.205  10.762  34.069  0.00  0.00    +0.000 C 
ENDBRANCH  13  18
ENDBRANCH   1  14
TORSDOF 5
ENDMDL
MODEL 3
REMARK VINA RESULT:      -5.4     21.339     23.534
REMARK  Name = 
REMARK  5 active torsions:
REMARK  status: ('A' for Active; 'I' for Inactive)
REMARK    1  A    between atoms: C_2  and  C_4
REMARK    2  A    between atoms: C_4  and  C_18
REMARK    3  A    between atoms: N_5  and  N_6
REMARK    4  A    between atoms: C_7  and  C_9
REMARK    5  A    between atoms: C_14  and  N_15
REMARK                            x       y       z     vdW  Elec       q    Type
REMARK                         _______ _______ _______ _____ _____    ______ ____
ROOT
ATOM      1  N   UNL     1      17.595   9.477  39.220  0.00  0.00    +0.000 NA
ATOM      2  C   UNL     1      18.017  10.263  38.155  0.00  0.00    +0.000 C 
ATOM      3  O   UNL     1      18.917  11.142  38.461  0.00  0.00    +0.000 OA
ENDROOT
BRANCH   2   4
ATOM      4  C   UNL     1      17.591  10.238  36.766  0.00  0.00    +0.000 A 
ATOM      5  C   UNL     1      18.268   9.352  35.886  0.00  0.00    +0.000 A 
ATOM      6  C   UNL     1      17.942   9.350  34.559  0.00  0.00    +0.000 A 
ATOM      7  C   UNL     1      16.974  10.176  34.024  0.00  0.00    +0.000 A 
ATOM      8  C   UNL     1      16.320  11.028  34.862  0.00  0.00    +0.000 A 
ATOM      9  C   UNL     1      16.633  11.058  36.248  0.00  0.00    +0.000 A 
BRANCH   9  10
ATOM     10  N   UNL     1      15.900  11.955  37.060  0.00  0.00    +0.000 N 
ATOM     11  O   UNL     1      16.303  13.162  37.059  0.00  0.00    +0.000 OA
ATOM     12  O   UNL     1      14.845  11.685  37.827  0.00  0.00    +0.000 OA
ENDBRANCH   9  10
ENDBRANCH   2   4
BRANCH   1  14
ATOM     13  C   UNL     1      17.656   8.782  41.421  0.00  0.00    +0.000 C 
ATOM     14  N   UNL     1      18.070   9.588  40.526  0.00  0.00    +0.000 NA
BRANCH  13  16
ATOM     15  C   UNL     1      17.608  10.043  43.565  0.00  0.00    +0.000 C 
ATOM     16  C   UNL     1      18.103   8.820  42.837  0.00  0.00    +0.000 C 
ATOM     17  C   UNL     1      19.603   8.681  42.951  0.00  0.00    +0.000 C 
ENDBRANCH  13  16
BRANCH  13  18
ATOM     18  C   UNL     1      16.668   7.730  41.074  0.00  0.00    +0.000 C 
ATOM     19  C   UNL     1      17.394   6.392  41.207  0.00  0.00    +0.000 C 
ATOM     20  C   UNL     1      15.505   7.690  42.046  0.00  0.00    +0.000 C 
ENDBRANCH  13  18
ENDBRANCH   1  14
TORSDOF 5
ENDMDL
MODEL 4
REMARK VINA RESULT:      -5.4     33.700     35.239
REMARK  Name = 
REMARK  5 active torsions:
REMARK  status: ('A' for Active; 'I' for Inactive)
REMARK    1  A    between atoms: C_2  and  C_4
REMARK    2  A    between atoms: C_4  and  C_18
REMARK    3  A    between atoms: N_5  and  N_6
REMARK    4  A    between atoms: C_7  and  C_9
REMARK    5  A    between atoms: C_14  and  N_15
REMARK                            x       y       z     vdW  Elec       q    Type
REMARK                         _______ _______ _______ _____ _____    ______ ____
ROOT
ATOM      1  N   UNL     1      29.423  26.227  21.923  0.00  0.00    +0.000 NA
ATOM      2  C   UNL     1      29.534  24.854  22.109  0.00  0.00    +0.000 C 
ATOM      3  O   UNL     1      29.688  24.177  21.016  0.00  0.00    +0.000 OA
ENDROOT
BRANCH   2   4
ATOM      4  C   UNL     1      29.497  24.085  23.341  0.00  0.00    +0.000 A 
ATOM      5  C   UNL     1      30.737  23.772  23.958  0.00  0.00    +0.000 A 
ATOM      6  C   UNL     1      30.747  22.992  25.080  0.00  0.00    +0.000 A 
ATOM      7  C   UNL     1      29.596  22.487  25.652  0.00  0.00    +0.000 A 
ATOM      8  C   UNL     1      28.402  22.784  25.065  0.00  0.00    +0.000 A 
ATOM      9  C   UNL     1      28.354  23.593  23.897  0.00  0.00    +0.000 A 
BRANCH   9  10
ATOM     10  N   UNL     1      27.079  23.874  23.354  0.00  0.00    +0.000 N 
ATOM     11  O   UNL     1      26.490  24.902  23.820  0.00  0.00    +0.000 OA
ATOM     12  O   UNL     1      26.422  23.191  22.419  0.00  0.00    +0.000 OA
ENDBRANCH   9  10
ENDBRANCH   2   4
BRANCH   1  14
ATOM     13  C   UNL     1      29.333  28.132  20.622  0.00  0.00    +0.000 C 
ATOM     14  N   UNL     1      29.469  26.868  20.686  0.00  0.00    +0.000 NA
BRANCH  13  16
ATOM     15  C   UNL     1      28.120  28.714  18.531  0.00  0.00    +0.000 C 
ATOM     16  C   UNL     1      29.367  28.904  19.354  0.00  0.00    +0.000 C 
ATOM     17  C   UNL     1      30.609  28.598  18.549  0.00  0.00    +0.000 C 
ENDBRANCH  13  16
BRANCH  13  18
ATOM     18  C   UNL     1      29.126  28.921  21.863  0.00  0.00    +0.000 C 
ATOM     19  C   UNL     1      29.878  30.237  21.672  0.00  0.00    +0.000 C 
ATOM     20  C   UNL     1      27.669  29.282  22.078  0.00  0.00    +0.000 C 
ENDBRANCH  13  18
ENDBRANCH   1  14
TORSDOF 5
ENDMDL
MODEL 5
REMARK VINA RESULT:      -5.3     13.728     15.666
REMARK  Name = 
REMARK  5 active torsions:
REMARK  status: ('A' for Active; 'I' for Inactive)
REMARK    1  A    between atoms: C_2  and  C_4
REMARK    2  A    between atoms: C_4  and  C_18
REMARK    3  A    between atoms: N_5  and  N_6
REMARK    4  A    between atoms: C_7  and  C_9
REMARK    5  A    between atoms: C_14  and  N_15
REMARK                            x       y       z     vdW  Elec       q    Type
REMARK                         _______ _______ _______ _____ _____    ______ ____
ROOT
ATOM      1  N   UNL     1      33.612  -3.740  33.261  0.00  0.00    +0.000 NA
ATOM      2  C   UNL     1      34.060  -4.927  32.695  0.00  0.00    +0.000 C 
ATOM      3  O   UNL     1      34.940  -5.560  33.402  0.00  0.00    +0.000 OA
ENDROOT
BRANCH   2   4
ATOM      4  C   UNL     1      33.686  -5.545  31.434  0.00  0.00    +0.000 A 
ATOM      5  C   UNL     1      34.438  -5.195  30.281  0.00  0.00    +0.000 A 
ATOM      6  C   UNL     1      34.073  -5.702  29.066  0.00  0.00    +0.000 A 
ATOM      7  C   UNL     1      32.997  -6.550  28.901  0.00  0.00    +0.000 A 
ATOM      8  C   UNL     1      32.271  -6.891  30.002  0.00  0.00    +0.000 A 
ATOM      9  C   UNL     1      32.621  -6.383  31.283  0.00  0.00    +0.000 A 
BRANCH   9  10
ATOM     10  N   UNL     1      31.834  -6.794  32.383  0.00  0.00    +0.000 N 
ATOM     11  O   UNL     1      30.720  -6.195  32.525  0.00  0.00    +0.000 OA
ATOM     12  O   UNL     1      32.121  -7.728  33.288  0.00  0.00    +0.000 OA
ENDBRANCH   9  10
ENDBRANCH   2   4
BRANCH   1  14
ATOM     13  C   UNL     1      33.928  -1.988  34.731  0.00  0.00    +0.000 C 
ATOM     14  N   UNL     1      34.043  -3.232  34.485  0.00  0.00    +0.000 NA
BRANCH  13  16
ATOM     15  C   UNL     1      35.856  -1.321  36.154  0.00  0.00    +0.000 C 
ATOM     16  C   UNL     1      34.357  -1.353  36.003  0.00  0.00    +0.000 C 
ATOM     17  C   UNL     1      33.698  -2.001  37.198  0.00  0.00    +0.000 C 
ENDBRANCH  13  16
BRANCH  13  18
ATOM     18  C   UNL     1      33.336  -1.082  33.715  0.00  0.00    +0.000 C 
ATOM     19  C   UNL     1      32.438  -0.105  34.473  0.00  0.00    +0.000 C 
ATOM     20  C   UNL     1      34.386  -0.247  33.008  0.00  0.00    +0.000 C 
ENDBRANCH  13  18
ENDBRANCH   1  14
TORSDOF 5
ENDMDL
MODEL 6
REMARK VINA RESULT:      -5.3     31.481     32.899
REMARK  Name = 
REMARK  5 active torsions:
REMARK  status: ('A' for Active; 'I' for Inactive)
REMARK    1  A    between atoms: C_2  and  C_4
REMARK    2  A    between atoms: C_4  and  C_18
REMARK    3  A    between atoms: N_5  and  N_6
REMARK    4  A    between atoms: C_7  and  C_9
REMARK    5  A    between atoms: C_14  and  N_15
REMARK                            x       y       z     vdW  Elec       q    Type
REMARK                         _______ _______ _______ _____ _____    ______ ____
ROOT
ATOM      1  N   UNL     1      28.526  22.784  27.148  0.00  0.00    +0.000 NA
ATOM      2  C   UNL     1      28.193  23.819  26.282  0.00  0.00    +0.000 C 
ATOM      3  O   UNL     1      28.424  25.004  26.750  0.00  0.00    +0.000 OA
ENDROOT
BRANCH   2   4
ATOM      4  C   UNL     1      27.627  23.756  24.945  0.00  0.00    +0.000 A 
ATOM      5  C   UNL     1      26.253  23.414  24.828  0.00  0.00    +0.000 A 
ATOM      6  C   UNL     1      25.703  23.279  23.585  0.00  0.00    +0.000 A 
ATOM      7  C   UNL     1      26.424  23.460  22.422  0.00  0.00    +0.000 A 
ATOM      8  C   UNL     1      27.742  23.788  22.527  0.00  0.00    +0.000 A 
ATOM      9  C   UNL     1      28.349  23.938  23.803  0.00  0.00    +0.000 A 
BRANCH   9  10
ATOM     10  N   UNL     1      29.716  24.298  23.834  0.00  0.00    +0.000 N 
ATOM     11  O   UNL     1      30.546  23.338  23.744  0.00  0.00    +0.000 OA
ATOM     12  O   UNL     1      30.236  25.519  23.952  0.00  0.00    +0.000 OA
ENDBRANCH   9  10
ENDBRANCH   2   4
BRANCH   1  14
ATOM     13  C   UNL     1      28.313  22.860  29.445  0.00  0.00    +0.000 C 
ATOM     14  N   UNL     1      29.065  22.956  28.421  0.00  0.00    +0.000 NA
BRANCH  13  16
ATOM     15  C   UNL     1      28.914  24.475  31.239  0.00  0.00    +0.000 C 
ATOM     16  C   UNL     1      28.793  23.027  30.841  0.00  0.00    +0.000 C 
ATOM     17  C   UNL     1      30.085  22.281  31.078  0.00  0.00    +0.000 C 
ENDBRANCH  13  16
BRANCH  13  18
ATOM     18  C   UNL     1      26.868  22.565  29.281  0.00  0.00    +0.000 C 
ATOM     19  C   UNL     1      26.470  21.670  30.453  0.00  0.00    +0.000 C 
ATOM     20  C   UNL     1      26.012  23.813  29.380  0.00  0.00    +0.000 C 
ENDBRANCH  13  18
ENDBRANCH   1  14
TORSDOF 5
ENDMDL
MODEL 7
REMARK VINA RESULT:      -5.2     14.000     16.054
REMARK  Name = 
REMARK  5 active torsions:
REMARK  status: ('A' for Active; 'I' for Inactive)
REMARK    1  A    between atoms: C_2  and  C_4
REMARK    2  A    between atoms: C_4  and  C_18
REMARK    3  A    between atoms: N_5  and  N_6
REMARK    4  A    between atoms: C_7  and  C_9
REMARK    5  A    between atoms: C_14  and  N_15
REMARK                            x       y       z     vdW  Elec       q    Type
REMARK                         _______ _______ _______ _____ _____    ______ ____
ROOT
ATOM      1  N   UNL     1      27.393   3.727  16.996  0.00  0.00    +0.000 NA
ATOM      2  C   UNL     1      26.657   2.791  16.280  0.00  0.00    +0.000 C 
ATOM      3  O   UNL     1      26.733   2.919  14.994  0.00  0.00    +0.000 OA
ENDROOT
BRANCH   2   4
ATOM      4  C   UNL     1      25.821   1.708  16.768  0.00  0.00    +0.000 A 
ATOM      5  C   UNL     1      26.426   0.433  16.933  0.00  0.00    +0.000 A 
ATOM      6  C   UNL     1      25.657  -0.626  17.324  0.00  0.00    +0.000 A 
ATOM      7  C   UNL     1      24.303  -0.518  17.570  0.00  0.00    +0.000 A 
ATOM      8  C   UNL     1      23.715   0.701  17.414  0.00  0.00    +0.000 A 
ATOM      9  C   UNL     1      24.484   1.826  17.008  0.00  0.00    +0.000 A 
BRANCH   9  10
ATOM     10  N   UNL     1      23.811   3.063  16.884  0.00  0.00    +0.000 N 
ATOM     11  O   UNL     1      23.195   3.254  15.787  0.00  0.00    +0.000 OA
ATOM     12  O   UNL     1      23.749   4.051  17.776  0.00  0.00    +0.000 OA
ENDBRANCH   9  10
ENDBRANCH   2   4
BRANCH   1  14
ATOM     13  C   UNL     1      28.060   5.932  16.849  0.00  0.00    +0.000 C 
ATOM     14  N   UNL     1      28.165   4.736  16.424  0.00  0.00    +0.000 NA
BRANCH  13  16
ATOM     15  C   UNL     1      28.317   7.542  14.970  0.00  0.00    +0.000 C 
ATOM     16  C   UNL     1      28.838   7.074  16.304  0.00  0.00    +0.000 C 
ATOM     17  C   UNL     1      30.315   6.761  16.239  0.00  0.00    +0.000 C 
ENDBRANCH  13  16
BRANCH  13  18
ATOM     18  C   UNL     1      27.116   6.249  17.950  0.00  0.00    +0.000 C 
ATOM     19  C   UNL     1      27.835   7.237  18.868  0.00  0.00    +0.000 C 
ATOM     20  C   UNL     1      25.867   6.951  17.452  0.00  0.00    +0.000 C 
ENDBRANCH  13  18
ENDBRANCH   1  14
TORSDOF 5
ENDMDL
MODEL 8
REMARK VINA RESULT:      -5.1     31.331     32.925
REMARK  Name = 
REMARK  5 active torsions:
REMARK  status: ('A' for Active; 'I' for Inactive)
REMARK    1  A    between atoms: C_2  and  C_4
REMARK    2  A    between atoms: C_4  and  C_18
REMARK    3  A    between atoms: N_5  and  N_6
REMARK    4  A    between atoms: C_7  and  C_9
REMARK    5  A    between atoms: C_14  and  N_15
REMARK                            x       y       z     vdW  Elec       q    Type
REMARK                         _______ _______ _______ _____ _____    ______ ____
ROOT
ATOM      1  N   UNL     1      28.589  22.949  27.259  0.00  0.00    +0.000 NA
ATOM      2  C   UNL     1      28.847  23.849  26.232  0.00  0.00    +0.000 C 
ATOM      3  O   UNL     1      29.631  24.825  26.558  0.00  0.00    +0.000 OA
ENDROOT
BRANCH   2   4
ATOM      4  C   UNL     1      28.360  23.848  24.862  0.00  0.00    +0.000 A 
ATOM      5  C   UNL     1      29.278  23.492  23.838  0.00  0.00    +0.000 A 
ATOM      6  C   UNL     1      28.877  23.546  22.534  0.00  0.00    +0.000 A 
ATOM      7  C   UNL     1      27.607  23.934  22.155  0.00  0.00    +0.000 A 
ATOM      8  C   UNL     1      26.721  24.276  23.132  0.00  0.00    +0.000 A 
ATOM      9  C   UNL     1      27.103  24.232  24.501  0.00  0.00    +0.000 A 
BRANCH   9  10
ATOM     10  N   UNL     1      26.125  24.583  25.460  0.00  0.00    +0.000 N 
ATOM     11  O   UNL     1      25.441  23.621  25.935  0.00  0.00    +0.000 OA
ATOM     12  O   UNL     1      25.835  25.799  25.921  0.00  0.00    +0.000 OA
ENDBRANCH   9  10
ENDBRANCH   2   4
BRANCH   1  14
ATOM     13  C   UNL     1      28.341  22.902  29.553  0.00  0.00    +0.000 C 
ATOM     14  N   UNL     1      29.109  23.046  28.548  0.00  0.00    +0.000 NA
BRANCH  13  16
ATOM     15  C   UNL     1      28.890  24.410  31.454  0.00  0.00    +0.000 C 
ATOM     16  C   UNL     1      28.800  22.988  30.963  0.00  0.00    +0.000 C 
ATOM     17  C   UNL     1      30.102  22.251  31.171  0.00  0.00    +0.000 C 
ENDBRANCH  13  16
BRANCH  13  18
ATOM     18  C   UNL     1      26.895  22.633  29.351  0.00  0.00    +0.000 C 
ATOM     19  C   UNL     1      26.471  21.676  30.464  0.00  0.00    +0.000 C 
ATOM     20  C   UNL     1      26.050  23.882  29.508  0.00  0.00    +0.000 C 
ENDBRANCH  13  18
ENDBRANCH   1  14
TORSDOF 5
ENDMDL
MODEL 9
REMARK VINA RESULT:      -5.1      1.347      2.196
REMARK  Name = 
REMARK  5 active torsions:
REMARK  status: ('A' for Active; 'I' for Inactive)
REMARK    1  A    between atoms: C_2  and  C_4
REMARK    2  A    between atoms: C_4  and  C_18
REMARK    3  A    between atoms: N_5  and  N_6
REMARK    4  A    between atoms: C_7  and  C_9
REMARK    5  A    between atoms: C_14  and  N_15
REMARK                            x       y       z     vdW  Elec       q    Type
REMARK                         _______ _______ _______ _____ _____    ______ ____
ROOT
ATOM      1  N   UNL     1      22.712  -7.486  25.243  0.00  0.00    +0.000 NA
ATOM      2  C   UNL     1      21.364  -7.428  24.908  0.00  0.00    +0.000 C 
ATOM      3  O   UNL     1      21.110  -7.682  23.665  0.00  0.00    +0.000 OA
ENDROOT
BRANCH   2   4
ATOM      4  C   UNL     1      20.219  -7.121  25.748  0.00  0.00    +0.000 A 
ATOM      5  C   UNL     1      19.788  -5.768  25.804  0.00  0.00    +0.000 A 
ATOM      6  C   UNL     1      18.758  -5.429  26.635  0.00  0.00    +0.000 A 
ATOM      7  C   UNL     1      18.105  -6.348  27.432  0.00  0.00    +0.000 A 
ATOM      8  C   UNL     1      18.512  -7.647  27.383  0.00  0.00    +0.000 A 
ATOM      9  C   UNL     1      19.581  -8.036  26.530  0.00  0.00    +0.000 A 
BRANCH   9  10
ATOM     10  N   UNL     1      19.936  -9.405  26.518  0.00  0.00    +0.000 N 
ATOM     11  O   UNL     1      20.753  -9.776  27.420  0.00  0.00    +0.000 OA
ATOM     12  O   UNL     1      19.522 -10.348  25.673  0.00  0.00    +0.000 OA
ENDBRANCH   9  10
ENDBRANCH   2   4
BRANCH   1  14
ATOM     13  C   UNL     1      24.259  -8.952  24.356  0.00  0.00    +0.000 C 
ATOM     14  N   UNL     1      23.739  -7.790  24.352  0.00  0.00    +0.000 NA
BRANCH  13  16
ATOM     15  C   UNL     1      26.592  -8.522  23.608  0.00  0.00    +0.000 C 
ATOM     16  C   UNL     1      25.357  -9.370  23.447  0.00  0.00    +0.000 C 
ATOM     17  C   UNL     1      24.901  -9.410  22.007  0.00  0.00    +0.000 C 
ENDBRANCH  13  16
BRANCH  13  18
ATOM     18  C   UNL     1      23.773  -9.980  25.310  0.00  0.00    +0.000 C 
ATOM     19  C   UNL     1      22.865 -10.917  24.514  0.00  0.00    +0.000 C 
ATOM     20  C   UNL     1      24.899 -10.833  25.860  0.00  0.00    +0.000 C 
ENDBRANCH  13  18
ENDBRANCH   1  14
TORSDOF 5
ENDMDL
MODEL 10
REMARK VINA RESULT:      -5.1     31.811     33.076
REMARK  Name = 
REMARK  5 active torsions:
REMARK  status: ('A' for Active; 'I' for Inactive)
REMARK    1  A    between atoms: C_2  and  C_4
REMARK    2  A    between atoms: C_4  and  C_18
REMARK    3  A    between atoms: N_5  and  N_6
REMARK    4  A    between atoms: C_7  and  C_9
REMARK    5  A    between atoms: C_14  and  N_15
REMARK                            x       y       z     vdW  Elec       q    Type
REMARK                         _______ _______ _______ _____ _____    ______ ____
ROOT
ATOM      1  N   UNL     1      27.989  24.747  25.902  0.00  0.00    +0.000 NA
ATOM      2  C   UNL     1      27.244  23.738  26.501  0.00  0.00    +0.000 C 
ATOM      3  O   UNL     1      26.688  22.917  25.669  0.00  0.00    +0.000 OA
ENDROOT
BRANCH   2   4
ATOM      4  C   UNL     1      27.004  23.483  27.911  0.00  0.00    +0.000 A 
ATOM      5  C   UNL     1      27.687  22.389  28.507  0.00  0.00    +0.000 A 
ATOM      6  C   UNL     1      27.435  22.076  29.813  0.00  0.00    +0.000 A 
ATOM      7  C   UNL     1      26.538  22.779  30.592  0.00  0.00    +0.000 A 
ATOM      8  C   UNL     1      25.879  23.829  30.027  0.00  0.00    +0.000 A 
ATOM      9  C   UNL     1      26.116  24.184  28.671  0.00  0.00    +0.000 A 
BRANCH   9  10
ATOM     10  N   UNL     1      25.410  25.296  28.158  0.00  0.00    +0.000 N 
ATOM     11  O   UNL     1      25.904  26.439  28.421  0.00  0.00    +0.000 OA
ATOM     12  O   UNL     1      24.290  25.290  27.437  0.00  0.00    +0.000 OA
ENDBRANCH   9  10
ENDBRANCH   2   4
BRANCH   1  14
ATOM     13  C   UNL     1      29.248  24.559  23.977  0.00  0.00    +0.000 C 
ATOM     14  N   UNL     1      28.153  24.904  24.527  0.00  0.00    +0.000 NA
BRANCH  13  16
ATOM     15  C   UNL     1      29.495  26.120  22.056  0.00  0.00    +0.000 C 
ATOM     16  C   UNL     1      29.517  24.687  22.521  0.00  0.00    +0.000 C 
ATOM     17  C   UNL     1      28.581  23.829  21.704  0.00  0.00    +0.000 C 
ENDBRANCH  13  16
BRANCH  13  18
ATOM     18  C   UNL     1      30.347  23.992  24.798  0.00  0.00    +0.000 C 
ATOM     19  C   UNL     1      30.317  22.480  24.581  0.00  0.00    +0.000 C 
ATOM     20  C   UNL     1      31.711  24.469  24.340  0.00  0.00    +0.000 C 
ENDBRANCH  13  18
ENDBRANCH   1  14
TORSDOF 5
ENDMDL
