MODEL 1
REMARK VINA RESULT:      -6.7      0.000      0.000
REMARK  Name = 
REMARK  4 active torsions:
REMARK  status: ('A' for Active; 'I' for Inactive)
REMARK    1  A    between atoms: C_2  and  C_3
REMARK    2  A    between atoms: C_3  and  N_4
REMARK    3  A    between atoms: C_5  and  C_6
REMARK    4  A    between atoms: C_6  and  C_7
REMARK                            x       y       z     vdW  Elec       q    Type
REMARK                         _______ _______ _______ _____ _____    ______ ____
ROOT
ATOM      1  C   UNL     1      30.006  20.736  10.013  0.00  0.00    +0.000 C 
ENDROOT
BRANCH   1   2
ATOM      2  C   UNL     1      30.066  21.398  11.353  0.00  0.00    +0.000 A 
ATOM      3  C   UNL     1      31.048  21.337  12.307  0.00  0.00    +0.000 A 
ATOM      4  C   UNL     1      32.313  20.555  12.184  0.00  0.00    +0.000 C 
ATOM      5  N   UNL     1      30.659  22.092  13.342  0.00  0.00    +0.000 NA
ATOM      6  C   UNL     1      29.451  22.659  13.118  0.00  0.00    +0.000 A 
ATOM      7  C   UNL     1      28.665  23.498  13.881  0.00  0.00    +0.000 A 
ATOM      8  C   UNL     1      27.461  23.911  13.366  0.00  0.00    +0.000 A 
ATOM      9  C   UNL     1      27.084  23.480  12.120  0.00  0.00    +0.000 A 
ATOM     10  C   UNL     1      27.870  22.645  11.363  0.00  0.00    +0.000 A 
ATOM     11  C   UNL     1      29.083  22.219  11.865  0.00  0.00    +0.000 A 
ENDBRANCH   1   2
BRANCH   1  13
ATOM     12  N   UNL     1      31.297  21.073   7.834  0.00  0.00    +0.000 N 
ATOM     13  C   UNL     1      30.805  21.503   9.013  0.00  0.00    +0.000 A 
ATOM     14  N   UNL     1      31.177  22.784   9.125  0.00  0.00    +0.000 NA
ATOM     15  N   UNL     1      31.871  23.133   8.056  0.00  0.00    +0.000 NA
ATOM     16  C   UNL     1      31.949  22.064   7.245  0.00  0.00    +0.000 A 
ATOM     17  S   UNL     1      32.738  22.083   5.795  0.00  0.00    +0.000 S 
BRANCH  12  18
ATOM     18  C   UNL     1      31.132  19.747   7.316  0.00  0.00    +0.000 C 
BRANCH  18  20
ATOM     19  C   UNL     1      29.670  19.791   5.385  0.00  0.00    +0.000 C 
ATOM     20  C   UNL     1      29.831  19.486   6.684  0.00  0.00    +0.000 C 
ENDBRANCH  18  20
ENDBRANCH  12  18
ENDBRANCH   1  13
TORSDOF 4
ENDMDL
MODEL 2
REMARK VINA RESULT:      -6.2     30.627     33.206
REMARK  Name = 
REMARK  4 active torsions:
REMARK  status: ('A' for Active; 'I' for Inactive)
REMARK    1  A    between atoms: C_2  and  C_3
REMARK    2  A    between atoms: C_3  and  N_4
REMARK    3  A    between atoms: C_5  and  C_6
REMARK    4  A    between atoms: C_6  and  C_7
REMARK                            x       y       z     vdW  Elec       q    Type
REMARK                         _______ _______ _______ _____ _____    ______ ____
ROOT
ATOM      1  C   UNL     1      18.387  11.184  38.116  0.00  0.00    +0.000 C 
ENDROOT
BRANCH   1   2
ATOM      2  C   UNL     1      18.513   9.982  38.998  0.00  0.00    +0.000 A 
ATOM      3  C   UNL     1      19.598   9.171  39.209  0.00  0.00    +0.000 A 
ATOM      4  C   UNL     1      20.932   9.342  38.564  0.00  0.00    +0.000 C 
ATOM      5  N   UNL     1      19.234   8.222  40.080  0.00  0.00    +0.000 NA
ATOM      6  C   UNL     1      17.944   8.366  40.463  0.00  0.00    +0.000 A 
ATOM      7  C   UNL     1      17.147   7.642  41.325  0.00  0.00    +0.000 A 
ATOM      8  C   UNL     1      15.849   8.046  41.509  0.00  0.00    +0.000 A 
ATOM      9  C   UNL     1      15.390   9.148  40.834  0.00  0.00    +0.000 A 
ATOM     10  C   UNL     1      16.187   9.868  39.976  0.00  0.00    +0.000 A 
ATOM     11  C   UNL     1      17.495   9.475  39.779  0.00  0.00    +0.000 A 
ENDBRANCH   1   2
BRANCH   1  13
ATOM     12  N   UNL     1      16.896  11.333  36.047  0.00  0.00    +0.000 N 
ATOM     13  C   UNL     1      17.903  10.792  36.760  0.00  0.00    +0.000 A 
ATOM     14  N   UNL     1      18.404   9.807  36.004  0.00  0.00    +0.000 NA
ATOM     15  N   UNL     1      17.733   9.742  34.868  0.00  0.00    +0.000 NA
ATOM     16  C   UNL     1      16.787  10.697  34.890  0.00  0.00    +0.000 A 
ATOM     17  S   UNL     1      15.727  10.951  33.651  0.00  0.00    +0.000 S 
BRANCH  12  18
ATOM     18  C   UNL     1      16.079  12.426  36.488  0.00  0.00    +0.000 C 
BRANCH  18  20
ATOM     19  C   UNL     1      13.674  12.340  36.770  0.00  0.00    +0.000 C 
ATOM     20  C   UNL     1      14.890  12.039  37.260  0.00  0.00    +0.000 C 
ENDBRANCH  18  20
ENDBRANCH  12  18
ENDBRANCH   1  13
TORSDOF 4
ENDMDL
MODEL 3
REMARK VINA RESULT:      -6.1     29.903     32.201
REMARK  Name = 
REMARK  4 active torsions:
REMARK  status: ('A' for Active; 'I' for Inactive)
REMARK    1  A    between atoms: C_2  and  C_3
REMARK    2  A    between atoms: C_3  and  N_4
REMARK    3  A    between atoms: C_5  and  C_6
REMARK    4  A    between atoms: C_6  and  C_7
REMARK                            x       y       z     vdW  Elec       q    Type
REMARK                         _______ _______ _______ _____ _____    ______ ____
ROOT
ATOM      1  C   UNL     1      18.623  10.279  37.266  0.00  0.00    +0.000 C 
ENDROOT
BRANCH   1   2
ATOM      2  C   UNL     1      17.303  10.380  37.961  0.00  0.00    +0.000 A 
ATOM      3  C   UNL     1      16.948   9.951  39.214  0.00  0.00    +0.000 A 
ATOM      4  C   UNL     1      17.860   9.265  40.174  0.00  0.00    +0.000 C 
ATOM      5  N   UNL     1      15.658  10.259  39.399  0.00  0.00    +0.000 NA
ATOM      6  C   UNL     1      15.134  10.879  38.317  0.00  0.00    +0.000 A 
ATOM      7  C   UNL     1      13.872  11.370  38.052  0.00  0.00    +0.000 A 
ATOM      8  C   UNL     1      13.645  11.959  36.833  0.00  0.00    +0.000 A 
ATOM      9  C   UNL     1      14.671  12.039  35.927  0.00  0.00    +0.000 A 
ATOM     10  C   UNL     1      15.927  11.549  36.195  0.00  0.00    +0.000 A 
ATOM     11  C   UNL     1      16.173  10.953  37.416  0.00  0.00    +0.000 A 
ENDBRANCH   1   2
BRANCH   1  13
ATOM     12  N   UNL     1      20.871  11.281  37.954  0.00  0.00    +0.000 N 
ATOM     13  C   UNL     1      19.544  11.358  37.729  0.00  0.00    +0.000 A 
ATOM     14  N   UNL     1      19.194  12.620  38.007  0.00  0.00    +0.000 NA
ATOM     15  N   UNL     1      20.263  13.297  38.388  0.00  0.00    +0.000 NA
ATOM     16  C   UNL     1      21.316  12.462  38.356  0.00  0.00    +0.000 A 
ATOM     17  S   UNL     1      22.848  12.920  38.764  0.00  0.00    +0.000 S 
BRANCH  12  18
ATOM     18  C   UNL     1      21.661  10.097  37.781  0.00  0.00    +0.000 C 
BRANCH  18  20
ATOM     19  C   UNL     1      23.240  10.306  35.955  0.00  0.00    +0.000 C 
ATOM     20  C   UNL     1      22.066   9.820  36.395  0.00  0.00    +0.000 C 
ENDBRANCH  18  20
ENDBRANCH  12  18
ENDBRANCH   1  13
TORSDOF 4
ENDMDL
MODEL 4
REMARK VINA RESULT:      -6.0     14.439     17.684
REMARK  Name = 
REMARK  4 active torsions:
REMARK  status: ('A' for Active; 'I' for Inactive)
REMARK    1  A    between atoms: C_2  and  C_3
REMARK    2  A    between atoms: C_3  and  N_4
REMARK    3  A    between atoms: C_5  and  C_6
REMARK    4  A    between atoms: C_6  and  C_7
REMARK                            x       y       z     vdW  Elec       q    Type
REMARK                         _______ _______ _______ _____ _____    ______ ____
ROOT
ATOM      1  C   UNL     1      29.712  22.391  26.947  0.00  0.00    +0.000 C 
ENDROOT
BRANCH   1   2
ATOM      2  C   UNL     1      29.356  22.801  25.552  0.00  0.00    +0.000 A 
ATOM      3  C   UNL     1      30.183  23.102  24.501  0.00  0.00    +0.000 A 
ATOM      4  C   UNL     1      31.673  23.080  24.549  0.00  0.00    +0.000 C 
ATOM      5  N   UNL     1      29.410  23.415  23.453  0.00  0.00    +0.000 NA
ATOM      6  C   UNL     1      28.095  23.334  23.762  0.00  0.00    +0.000 A 
ATOM      7  C   UNL     1      26.953  23.560  23.021  0.00  0.00    +0.000 A 
ATOM      8  C   UNL     1      25.735  23.390  23.632  0.00  0.00    +0.000 A 
ATOM      9  C   UNL     1      25.695  23.005  24.947  0.00  0.00    +0.000 A 
ATOM     10  C   UNL     1      26.835  22.780  25.682  0.00  0.00    +0.000 A 
ATOM     11  C   UNL     1      28.067  22.946  25.084  0.00  0.00    +0.000 A 
ENDBRANCH   1   2
BRANCH   1  13
ATOM     12  N   UNL     1      29.177  23.651  29.104  0.00  0.00    +0.000 N 
ATOM     13  C   UNL     1      29.690  23.571  27.861  0.00  0.00    +0.000 A 
ATOM     14  N   UNL     1      30.193  24.782  27.589  0.00  0.00    +0.000 NA
ATOM     15  N   UNL     1      29.999  25.579  28.624  0.00  0.00    +0.000 NA
ATOM     16  C   UNL     1      29.363  24.875  29.576  0.00  0.00    +0.000 A 
ATOM     17  S   UNL     1      28.932  25.511  31.037  0.00  0.00    +0.000 S 
BRANCH  12  18
ATOM     18  C   UNL     1      28.533  22.571  29.793  0.00  0.00    +0.000 C 
BRANCH  18  20
ATOM     19  C   UNL     1      26.371  21.661  30.400  0.00  0.00    +0.000 C 
ATOM     20  C   UNL     1      27.073  22.523  29.642  0.00  0.00    +0.000 C 
ENDBRANCH  18  20
ENDBRANCH  12  18
ENDBRANCH   1  13
TORSDOF 4
ENDMDL
MODEL 5
REMARK VINA RESULT:      -5.9     13.697     17.295
REMARK  Name = 
REMARK  4 active torsions:
REMARK  status: ('A' for Active; 'I' for Inactive)
REMARK    1  A    between atoms: C_2  and  C_3
REMARK    2  A    between atoms: C_3  and  N_4
REMARK    3  A    between atoms: C_5  and  C_6
REMARK    4  A    between atoms: C_6  and  C_7
REMARK                            x       y       z     vdW  Elec       q    Type
REMARK                         _______ _______ _______ _____ _____    ______ ____
ROOT
ATOM      1  C   UNL     1      27.281  22.340  26.067  0.00  0.00    +0.000 C 
ENDROOT
BRANCH   1   2
ATOM      2  C   UNL     1      28.363  23.008  25.278  0.00  0.00    +0.000 A 
ATOM      3  C   UNL     1      29.678  23.210  25.610  0.00  0.00    +0.000 A 
ATOM      4  C   UNL     1      30.314  22.779  26.888  0.00  0.00    +0.000 C 
ATOM      5  N   UNL     1      30.260  23.853  24.590  0.00  0.00    +0.000 NA
ATOM      6  C   UNL     1      29.384  24.090  23.586  0.00  0.00    +0.000 A 
ATOM      7  C   UNL     1      29.524  24.710  22.361  0.00  0.00    +0.000 A 
ATOM      8  C   UNL     1      28.425  24.798  21.545  0.00  0.00    +0.000 A 
ATOM      9  C   UNL     1      27.233  24.270  21.970  0.00  0.00    +0.000 A 
ATOM     10  C   UNL     1      27.097  23.652  23.190  0.00  0.00    +0.000 A 
ATOM     11  C   UNL     1      28.192  23.556  24.024  0.00  0.00    +0.000 A 
ENDBRANCH   1   2
BRANCH   1  13
ATOM     12  N   UNL     1      26.582  23.730  28.094  0.00  0.00    +0.000 N 
ATOM     13  C   UNL     1      26.469  23.352  26.806  0.00  0.00    +0.000 A 
ATOM     14  N   UNL     1      25.464  24.074  26.294  0.00  0.00    +0.000 NA
ATOM     15  N   UNL     1      24.975  24.868  27.230  0.00  0.00    +0.000 NA
ATOM     16  C   UNL     1      25.672  24.656  28.359  0.00  0.00    +0.000 A 
ATOM     17  S   UNL     1      25.373  25.455  29.773  0.00  0.00    +0.000 S 
BRANCH  12  18
ATOM     18  C   UNL     1      27.541  23.201  29.019  0.00  0.00    +0.000 C 
BRANCH  18  20
ATOM     19  C   UNL     1      26.328  21.717  30.501  0.00  0.00    +0.000 C 
ATOM     20  C   UNL     1      27.240  21.854  29.522  0.00  0.00    +0.000 C 
ENDBRANCH  18  20
ENDBRANCH  12  18
ENDBRANCH   1  13
TORSDOF 4
ENDMDL
MODEL 6
REMARK VINA RESULT:      -5.8     15.943     18.450
REMARK  Name = 
REMARK  4 active torsions:
REMARK  status: ('A' for Active; 'I' for Inactive)
REMARK    1  A    between atoms: C_2  and  C_3
REMARK    2  A    between atoms: C_3  and  N_4
REMARK    3  A    between atoms: C_5  and  C_6
REMARK    4  A    between atoms: C_6  and  C_7
REMARK                            x       y       z     vdW  Elec       q    Type
REMARK                         _______ _______ _______ _____ _____    ______ ____
ROOT
ATOM      1  C   UNL     1      27.895  21.795  28.076  0.00  0.00    +0.000 C 
ENDROOT
BRANCH   1   2
ATOM      2  C   UNL     1      29.261  22.367  27.857  0.00  0.00    +0.000 A 
ATOM      3  C   UNL     1      30.222  22.690  28.780  0.00  0.00    +0.000 A 
ATOM      4  C   UNL     1      30.082  22.527  30.256  0.00  0.00    +0.000 C 
ATOM      5  N   UNL     1      31.280  23.171  28.113  0.00  0.00    +0.000 NA
ATOM      6  C   UNL     1      31.064  23.181  26.777  0.00  0.00    +0.000 A 
ATOM      7  C   UNL     1      31.848  23.581  25.715  0.00  0.00    +0.000 A 
ATOM      8  C   UNL     1      31.336  23.466  24.447  0.00  0.00    +0.000 A 
ATOM      9  C   UNL     1      30.071  22.962  24.280  0.00  0.00    +0.000 A 
ATOM     10  C   UNL     1      29.293  22.565  25.340  0.00  0.00    +0.000 A 
ATOM     11  C   UNL     1      29.792  22.674  26.622  0.00  0.00    +0.000 A 
ENDBRANCH   1   2
BRANCH   1  13
ATOM     12  N   UNL     1      26.484  23.890  28.462  0.00  0.00    +0.000 N 
ATOM     13  C   UNL     1      27.053  22.738  28.869  0.00  0.00    +0.000 A 
ATOM     14  N   UNL     1      26.713  22.591  30.156  0.00  0.00    +0.000 NA
ATOM     15  N   UNL     1      25.962  23.612  30.530  0.00  0.00    +0.000 NA
ATOM     16  C   UNL     1      25.816  24.428  29.472  0.00  0.00    +0.000 A 
ATOM     17  S   UNL     1      24.942  25.827  29.521  0.00  0.00    +0.000 S 
BRANCH  12  18
ATOM     18  C   UNL     1      26.595  24.433  27.140  0.00  0.00    +0.000 C 
BRANCH  18  20
ATOM     19  C   UNL     1      25.793  23.086  25.293  0.00  0.00    +0.000 C 
ATOM     20  C   UNL     1      25.528  24.030  26.213  0.00  0.00    +0.000 C 
ENDBRANCH  18  20
ENDBRANCH  12  18
ENDBRANCH   1  13
TORSDOF 4
ENDMDL
MODEL 7
REMARK VINA RESULT:      -5.7     14.425     17.496
REMARK  Name = 
REMARK  4 active torsions:
REMARK  status: ('A' for Active; 'I' for Inactive)
REMARK    1  A    between atoms: C_2  and  C_3
REMARK    2  A    between atoms: C_3  and  N_4
REMARK    3  A    between atoms: C_5  and  C_6
REMARK    4  A    between atoms: C_6  and  C_7
REMARK                            x       y       z     vdW  Elec       q    Type
REMARK                         _______ _______ _______ _____ _____    ______ ____
ROOT
ATOM      1  C   UNL     1      29.736  22.094  26.885  0.00  0.00    +0.000 C 
ENDROOT
BRANCH   1   2
ATOM      2  C   UNL     1      29.403  22.669  25.544  0.00  0.00    +0.000 A 
ATOM      3  C   UNL     1      30.247  23.087  24.547  0.00  0.00    +0.000 A 
ATOM      4  C   UNL     1      31.736  23.047  24.613  0.00  0.00    +0.000 C 
ATOM      5  N   UNL     1      29.491  23.528  23.534  0.00  0.00    +0.000 NA
ATOM      6  C   UNL     1      28.171  23.421  23.813  0.00  0.00    +0.000 A 
ATOM      7  C   UNL     1      27.042  23.742  23.089  0.00  0.00    +0.000 A 
ATOM      8  C   UNL     1      25.814  23.511  23.659  0.00  0.00    +0.000 A 
ATOM      9  C   UNL     1      25.753  22.973  24.918  0.00  0.00    +0.000 A 
ATOM     10  C   UNL     1      26.880  22.653  25.636  0.00  0.00    +0.000 A 
ATOM     11  C   UNL     1      28.122  22.880  25.079  0.00  0.00    +0.000 A 
ENDBRANCH   1   2
BRANCH   1  13
ATOM     12  N   UNL     1      31.039  23.498  28.577  0.00  0.00    +0.000 N 
ATOM     13  C   UNL     1      29.924  23.182  27.890  0.00  0.00    +0.000 A 
ATOM     14  N   UNL     1      28.986  24.051  28.287  0.00  0.00    +0.000 NA
ATOM     15  N   UNL     1      29.502  24.872  29.185  0.00  0.00    +0.000 NA
ATOM     16  C   UNL     1      30.788  24.529  29.369  0.00  0.00    +0.000 A 
ATOM     17  S   UNL     1      31.793  25.314  30.417  0.00  0.00    +0.000 S 
BRANCH  12  18
ATOM     18  C   UNL     1      32.293  22.812  28.457  0.00  0.00    +0.000 C 
BRANCH  18  20
ATOM     19  C   UNL     1      32.590  21.468  30.451  0.00  0.00    +0.000 C 
ATOM     20  C   UNL     1      32.352  21.506  29.127  0.00  0.00    +0.000 C 
ENDBRANCH  18  20
ENDBRANCH  12  18
ENDBRANCH   1  13
TORSDOF 4
ENDMDL
MODEL 8
REMARK VINA RESULT:      -5.7     20.149     22.822
REMARK  Name = 
REMARK  4 active torsions:
REMARK  status: ('A' for Active; 'I' for Inactive)
REMARK    1  A    between atoms: C_2  and  C_3
REMARK    2  A    between atoms: C_3  and  N_4
REMARK    3  A    between atoms: C_5  and  C_6
REMARK    4  A    between atoms: C_6  and  C_7
REMARK                            x       y       z     vdW  Elec       q    Type
REMARK                         _______ _______ _______ _____ _____    ______ ____
ROOT
ATOM      1  C   UNL     1       9.617  21.933  21.965  0.00  0.00    +0.000 C 
ENDROOT
BRANCH   1   2
ATOM      2  C   UNL     1      10.769  22.881  22.076  0.00  0.00    +0.000 A 
ATOM      3  C   UNL     1      10.876  24.032  22.812  0.00  0.00    +0.000 A 
ATOM      4  C   UNL     1       9.807  24.589  23.690  0.00  0.00    +0.000 C 
ATOM      5  N   UNL     1      12.094  24.544  22.592  0.00  0.00    +0.000 NA
ATOM      6  C   UNL     1      12.809  23.778  21.736  0.00  0.00    +0.000 A 
ATOM      7  C   UNL     1      14.084  23.903  21.224  0.00  0.00    +0.000 A 
ATOM      8  C   UNL     1      14.535  22.941  20.355  0.00  0.00    +0.000 A 
ATOM      9  C   UNL     1      13.710  21.896  20.027  0.00  0.00    +0.000 A 
ATOM     10  C   UNL     1      12.440  21.775  20.539  0.00  0.00    +0.000 A 
ATOM     11  C   UNL     1      11.971  22.733  21.414  0.00  0.00    +0.000 A 
ENDBRANCH   1   2
BRANCH   1  13
ATOM     12  N   UNL     1       8.364  21.284  19.835  0.00  0.00    +0.000 N 
ATOM     13  C   UNL     1       8.849  22.186  20.710  0.00  0.00    +0.000 A 
ATOM     14  N   UNL     1       8.503  23.388  20.232  0.00  0.00    +0.000 NA
ATOM     15  N   UNL     1       7.830  23.235  19.106  0.00  0.00    +0.000 NA
ATOM     16  C   UNL     1       7.740  21.918  18.853  0.00  0.00    +0.000 A 
ATOM     17  S   UNL     1       6.971  21.300  17.529  0.00  0.00    +0.000 S 
BRANCH  12  18
ATOM     18  C   UNL     1       8.510  19.863  19.962  0.00  0.00    +0.000 C 
BRANCH  18  20
ATOM     19  C   UNL     1      10.639  18.708  20.006  0.00  0.00    +0.000 C 
ATOM     20  C   UNL     1       9.677  19.296  19.273  0.00  0.00    +0.000 C 
ENDBRANCH  18  20
ENDBRANCH  12  18
ENDBRANCH   1  13
TORSDOF 4
ENDMDL
MODEL 9
REMARK VINA RESULT:      -5.7     30.342     32.153
REMARK  Name = 
REMARK  4 active torsions:
REMARK  status: ('A' for Active; 'I' for Inactive)
REMARK    1  A    between atoms: C_2  and  C_3
REMARK    2  A    between atoms: C_3  and  N_4
REMARK    3  A    between atoms: C_5  and  C_6
REMARK    4  A    between atoms: C_6  and  C_7
REMARK                            x       y       z     vdW  Elec       q    Type
REMARK                         _______ _______ _______ _____ _____    ______ ____
ROOT
ATOM      1  C   UNL     1      20.073  12.111  38.254  0.00  0.00    +0.000 C 
ENDROOT
BRANCH   1   2
ATOM      2  C   UNL     1      21.565  12.150  38.158  0.00  0.00    +0.000 A 
ATOM      3  C   UNL     1      22.441  13.083  38.651  0.00  0.00    +0.000 A 
ATOM      4  C   UNL     1      22.051  14.302  39.418  0.00  0.00    +0.000 C 
ATOM      5  N   UNL     1      23.679  12.697  38.316  0.00  0.00    +0.000 NA
ATOM      6  C   UNL     1      23.666  11.538  37.617  0.00  0.00    +0.000 A 
ATOM      7  C   UNL     1      24.677  10.775  37.071  0.00  0.00    +0.000 A 
ATOM      8  C   UNL     1      24.338   9.625  36.403  0.00  0.00    +0.000 A 
ATOM      9  C   UNL     1      23.015   9.277  36.300  0.00  0.00    +0.000 A 
ATOM     10  C   UNL     1      22.011  10.040  36.846  0.00  0.00    +0.000 A 
ATOM     11  C   UNL     1      22.334  11.199  37.521  0.00  0.00    +0.000 A 
ENDBRANCH   1   2
BRANCH   1  13
ATOM     12  N   UNL     1      18.615  10.217  39.158  0.00  0.00    +0.000 N 
ATOM     13  C   UNL     1      19.638  11.089  39.251  0.00  0.00    +0.000 A 
ATOM     14  N   UNL     1      20.211  10.861  40.439  0.00  0.00    +0.000 NA
ATOM     15  N   UNL     1      19.567   9.886  41.057  0.00  0.00    +0.000 NA
ATOM     16  C   UNL     1      18.567   9.479  40.257  0.00  0.00    +0.000 A 
ATOM     17  S   UNL     1      17.518   8.271  40.662  0.00  0.00    +0.000 S 
BRANCH  12  18
ATOM     18  C   UNL     1      17.727  10.118  38.036  0.00  0.00    +0.000 C 
BRANCH  18  20
ATOM     19  C   UNL     1      18.471   9.690  35.771  0.00  0.00    +0.000 C 
ATOM     20  C   UNL     1      18.162   9.192  36.981  0.00  0.00    +0.000 C 
ENDBRANCH  18  20
ENDBRANCH  12  18
ENDBRANCH   1  13
TORSDOF 4
ENDMDL
MODEL 10
REMARK VINA RESULT:      -5.7     14.267     17.490
REMARK  Name = 
REMARK  4 active torsions:
REMARK  status: ('A' for Active; 'I' for Inactive)
REMARK    1  A    between atoms: C_2  and  C_3
REMARK    2  A    between atoms: C_3  and  N_4
REMARK    3  A    between atoms: C_5  and  C_6
REMARK    4  A    between atoms: C_6  and  C_7
REMARK                            x       y       z     vdW  Elec       q    Type
REMARK                         _______ _______ _______ _____ _____    ______ ____
ROOT
ATOM      1  C   UNL     1      27.612  22.171  26.544  0.00  0.00    +0.000 C 
ENDROOT
BRANCH   1   2
ATOM      2  C   UNL     1      27.180  23.385  25.784  0.00  0.00    +0.000 A 
ATOM      3  C   UNL     1      26.288  24.361  26.146  0.00  0.00    +0.000 A 
ATOM      4  C   UNL     1      25.536  24.400  27.434  0.00  0.00    +0.000 C 
ATOM      5  N   UNL     1      26.223  25.245  25.142  0.00  0.00    +0.000 NA
ATOM      6  C   UNL     1      27.040  24.900  24.121  0.00  0.00    +0.000 A 
ATOM      7  C   UNL     1      27.301  25.491  22.902  0.00  0.00    +0.000 A 
ATOM      8  C   UNL     1      28.201  24.884  22.062  0.00  0.00    +0.000 A 
ATOM      9  C   UNL     1      28.805  23.719  22.458  0.00  0.00    +0.000 A 
ATOM     10  C   UNL     1      28.542  23.132  23.673  0.00  0.00    +0.000 A 
ATOM     11  C   UNL     1      27.640  23.729  24.530  0.00  0.00    +0.000 A 
ENDBRANCH   1   2
BRANCH   1  13
ATOM     12  N   UNL     1      29.196  22.880  28.420  0.00  0.00    +0.000 N 
ATOM     13  C   UNL     1      28.940  22.400  27.187  0.00  0.00    +0.000 A 
ATOM     14  N   UNL     1      30.132  22.157  26.629  0.00  0.00    +0.000 NA
ATOM     15  N   UNL     1      31.089  22.475  27.484  0.00  0.00    +0.000 NA
ATOM     16  C   UNL     1      30.506  22.928  28.607  0.00  0.00    +0.000 A 
ATOM     17  S   UNL     1      31.357  23.432  29.928  0.00  0.00    +0.000 S 
BRANCH  12  18
ATOM     18  C   UNL     1      28.194  23.274  29.367  0.00  0.00    +0.000 C 
BRANCH  18  20
ATOM     19  C   UNL     1      26.491  21.804  30.267  0.00  0.00    +0.000 C 
ATOM     20  C   UNL     1      27.771  22.217  30.296  0.00  0.00    +0.000 C 
ENDBRANCH  18  20
ENDBRANCH  12  18
ENDBRANCH   1  13
TORSDOF 4
ENDMDL
