MODEL 1
REMARK VINA RESULT:      -6.9      0.000      0.000
REMARK  Name = 
REMARK  3 active torsions:
REMARK  status: ('A' for Active; 'I' for Inactive)
REMARK    1  A    between atoms: C_2  and  C_13
REMARK    2  A    between atoms: N_3  and  N_4
REMARK    3  A    between atoms: C_5  and  C_6
REMARK                            x       y       z     vdW  Elec       q    Type
REMARK                         _______ _______ _______ _____ _____    ______ ____
ROOT
ATOM      1  O   UNL     1      16.581  10.318  33.284  0.00  0.00    +0.000 OA
ATOM      2  C   UNL     1      15.793  11.215  33.655  0.00  0.00    +0.000 C 
ATOM      3  N   UNL     1      15.672  11.521  35.032  0.00  0.00    +0.000 NA
ENDROOT
BRANCH   2   4
ATOM      4  C   UNL     1      14.990  11.954  32.660  0.00  0.00    +0.000 C 
ATOM      5  C   UNL     1      14.423  13.209  33.318  0.00  0.00    +0.000 C 
ATOM      6  C   UNL     1      13.656  14.028  32.306  0.00  0.00    +0.000 C 
ATOM      7  C   UNL     1      14.471  14.359  31.092  0.00  0.00    +0.000 C 
ATOM      8  C   UNL     1      15.164  13.183  30.485  0.00  0.00    +0.000 C 
ATOM      9  C   UNL     1      15.887  12.338  31.511  0.00  0.00    +0.000 C 
ENDBRANCH   2   4
BRANCH   3  10
ATOM     10  N   UNL     1      16.409  10.851  36.012  0.00  0.00    +0.000 NA
ATOM     11  C   UNL     1      16.238  11.024  37.277  0.00  0.00    +0.000 C 
BRANCH  11  12
ATOM     12  C   UNL     1      17.082  10.256  38.205  0.00  0.00    +0.000 A 
ATOM     13  C   UNL     1      18.343   9.836  37.838  0.00  0.00    +0.000 A 
ATOM     14  C   UNL     1      19.134   9.115  38.712  0.00  0.00    +0.000 A 
ATOM     15  C   UNL     1      18.700   8.784  39.986  0.00  0.00    +0.000 A 
ATOM     16  O   UNL     1      19.487   8.065  40.858  0.00  0.00    +0.000 OA
ATOM     17  C   UNL     1      17.435   9.205  40.358  0.00  0.00    +0.000 A 
ATOM     18  C   UNL     1      16.657   9.924  39.473  0.00  0.00    +0.000 A 
ENDBRANCH  11  12
ENDBRANCH   3  10
TORSDOF 3
ENDMDL
MODEL 2
REMARK VINA RESULT:      -6.7      1.904      8.204
REMARK  Name = 
REMARK  3 active torsions:
REMARK  status: ('A' for Active; 'I' for Inactive)
REMARK    1  A    between atoms: C_2  and  C_13
REMARK    2  A    between atoms: N_3  and  N_4
REMARK    3  A    between atoms: C_5  and  C_6
REMARK                            x       y       z     vdW  Elec       q    Type
REMARK                         _______ _______ _______ _____ _____    ______ ____
ROOT
ATOM      1  O   UNL     1      18.024   9.757  36.755  0.00  0.00    +0.000 OA
ATOM      2  C   UNL     1      17.457  10.229  37.763  0.00  0.00    +0.000 C 
ATOM      3  N   UNL     1      16.418  11.179  37.607  0.00  0.00    +0.000 NA
ENDROOT
BRANCH   2   4
ATOM      4  C   UNL     1      17.868   9.800  39.115  0.00  0.00    +0.000 C 
ATOM      5  C   UNL     1      16.619   9.593  39.968  0.00  0.00    +0.000 C 
ATOM      6  C   UNL     1      17.001   9.080  41.337  0.00  0.00    +0.000 C 
ATOM      7  C   UNL     1      17.843   7.842  41.278  0.00  0.00    +0.000 C 
ATOM      8  C   UNL     1      19.008   7.942  40.347  0.00  0.00    +0.000 C 
ATOM      9  C   UNL     1      18.628   8.504  38.995  0.00  0.00    +0.000 C 
ENDBRANCH   2   4
BRANCH   3  10
ATOM     10  N   UNL     1      15.992  11.617  36.350  0.00  0.00    +0.000 NA
ATOM     11  C   UNL     1      14.984  12.399  36.170  0.00  0.00    +0.000 C 
BRANCH  11  12
ATOM     12  C   UNL     1      14.639  12.785  34.794  0.00  0.00    +0.000 A 
ATOM     13  C   UNL     1      13.829  13.872  34.541  0.00  0.00    +0.000 A 
ATOM     14  C   UNL     1      13.506  14.233  33.247  0.00  0.00    +0.000 A 
ATOM     15  C   UNL     1      13.977  13.524  32.153  0.00  0.00    +0.000 A 
ATOM     16  O   UNL     1      13.656  13.882  30.862  0.00  0.00    +0.000 OA
ATOM     17  C   UNL     1      14.791  12.432  32.402  0.00  0.00    +0.000 A 
ATOM     18  C   UNL     1      15.104  12.085  33.701  0.00  0.00    +0.000 A 
ENDBRANCH  11  12
ENDBRANCH   3  10
TORSDOF 3
ENDMDL
MODEL 3
REMARK VINA RESULT:      -6.4      1.207      2.171
REMARK  Name = 
REMARK  3 active torsions:
REMARK  status: ('A' for Active; 'I' for Inactive)
REMARK    1  A    between atoms: C_2  and  C_13
REMARK    2  A    between atoms: N_3  and  N_4
REMARK    3  A    between atoms: C_5  and  C_6
REMARK                            x       y       z     vdW  Elec       q    Type
REMARK                         _______ _______ _______ _____ _____    ______ ____
ROOT
ATOM      1  O   UNL     1      17.371   9.726  34.402  0.00  0.00    +0.000 OA
ATOM      2  C   UNL     1      16.920  10.889  34.483  0.00  0.00    +0.000 C 
ATOM      3  N   UNL     1      16.877  11.542  35.739  0.00  0.00    +0.000 NA
ENDROOT
BRANCH   2   4
ATOM      4  C   UNL     1      16.432  11.581  33.273  0.00  0.00    +0.000 C 
ATOM      5  C   UNL     1      16.300  10.564  32.143  0.00  0.00    +0.000 C 
ATOM      6  C   UNL     1      15.731  11.226  30.909  0.00  0.00    +0.000 C 
ATOM      7  C   UNL     1      14.436  11.932  31.176  0.00  0.00    +0.000 C 
ATOM      8  C   UNL     1      14.469  12.840  32.361  0.00  0.00    +0.000 C 
ATOM      9  C   UNL     1      15.087  12.188  33.579  0.00  0.00    +0.000 C 
ENDBRANCH   2   4
BRANCH   3  10
ATOM     10  N   UNL     1      17.327  10.930  36.912  0.00  0.00    +0.000 NA
ATOM     11  C   UNL     1      16.554  10.608  37.892  0.00  0.00    +0.000 C 
BRANCH  11  12
ATOM     12  C   UNL     1      17.154   9.970  39.073  0.00  0.00    +0.000 A 
ATOM     13  C   UNL     1      16.391   9.656  40.178  0.00  0.00    +0.000 A 
ATOM     14  C   UNL     1      16.958   9.057  41.286  0.00  0.00    +0.000 A 
ATOM     15  C   UNL     1      18.308   8.746  41.337  0.00  0.00    +0.000 A 
ATOM     16  O   UNL     1      18.875   8.148  42.441  0.00  0.00    +0.000 OA
ATOM     17  C   UNL     1      19.077   9.058  40.229  0.00  0.00    +0.000 A 
ATOM     18  C   UNL     1      18.495   9.657  39.130  0.00  0.00    +0.000 A 
ENDBRANCH  11  12
ENDBRANCH   3  10
TORSDOF 3
ENDMDL
MODEL 4
REMARK VINA RESULT:      -6.3      1.811      8.122
REMARK  Name = 
REMARK  3 active torsions:
REMARK  status: ('A' for Active; 'I' for Inactive)
REMARK    1  A    between atoms: C_2  and  C_13
REMARK    2  A    between atoms: N_3  and  N_4
REMARK    3  A    between atoms: C_5  and  C_6
REMARK                            x       y       z     vdW  Elec       q    Type
REMARK                         _______ _______ _______ _____ _____    ______ ____
ROOT
ATOM      1  O   UNL     1      19.054   9.555  36.173  0.00  0.00    +0.000 OA
ATOM      2  C   UNL     1      18.182   9.637  37.065  0.00  0.00    +0.000 C 
ATOM      3  N   UNL     1      16.920  10.204  36.766  0.00  0.00    +0.000 NA
ENDROOT
BRANCH   2   4
ATOM      4  C   UNL     1      18.466   9.144  38.428  0.00  0.00    +0.000 C 
ATOM      5  C   UNL     1      19.822   9.684  38.874  0.00  0.00    +0.000 C 
ATOM      6  C   UNL     1      20.110   9.260  40.296  0.00  0.00    +0.000 C 
ATOM      7  C   UNL     1      19.019   9.645  41.248  0.00  0.00    +0.000 C 
ATOM      8  C   UNL     1      17.649   9.261  40.792  0.00  0.00    +0.000 C 
ATOM      9  C   UNL     1      17.385   9.643  39.352  0.00  0.00    +0.000 C 
ENDBRANCH   2   4
BRANCH   3  10
ATOM     10  N   UNL     1      16.602  10.684  35.492  0.00  0.00    +0.000 NA
ATOM     11  C   UNL     1      15.622  11.487  35.255  0.00  0.00    +0.000 C 
BRANCH  11  12
ATOM     12  C   UNL     1      15.394  11.916  33.867  0.00  0.00    +0.000 A 
ATOM     13  C   UNL     1      16.125  11.383  32.827  0.00  0.00    +0.000 A 
ATOM     14  C   UNL     1      15.909  11.788  31.524  0.00  0.00    +0.000 A 
ATOM     15  C   UNL     1      14.956  12.742  31.206  0.00  0.00    +0.000 A 
ATOM     16  O   UNL     1      14.739  13.148  29.908  0.00  0.00    +0.000 OA
ATOM     17  C   UNL     1      14.219  13.281  32.247  0.00  0.00    +0.000 A 
ATOM     18  C   UNL     1      14.447  12.864  33.543  0.00  0.00    +0.000 A 
ENDBRANCH  11  12
ENDBRANCH   3  10
TORSDOF 3
ENDMDL
MODEL 5
REMARK VINA RESULT:      -6.1     22.277     25.733
REMARK  Name = 
REMARK  3 active torsions:
REMARK  status: ('A' for Active; 'I' for Inactive)
REMARK    1  A    between atoms: C_2  and  C_13
REMARK    2  A    between atoms: N_3  and  N_4
REMARK    3  A    between atoms: C_5  and  C_6
REMARK                            x       y       z     vdW  Elec       q    Type
REMARK                         _______ _______ _______ _____ _____    ______ ____
ROOT
ATOM      1  O   UNL     1      27.404  24.879  21.544  0.00  0.00    +0.000 OA
ATOM      2  C   UNL     1      28.464  24.300  21.866  0.00  0.00    +0.000 C 
ATOM      3  N   UNL     1      29.655  24.560  21.146  0.00  0.00    +0.000 NA
ENDROOT
BRANCH   2   4
ATOM      4  C   UNL     1      28.475  23.346  22.993  0.00  0.00    +0.000 C 
ATOM      5  C   UNL     1      29.816  23.452  23.715  0.00  0.00    +0.000 C 
ATOM      6  C   UNL     1      29.832  22.541  24.921  0.00  0.00    +0.000 C 
ATOM      7  C   UNL     1      28.681  22.787  25.849  0.00  0.00    +0.000 C 
ATOM      8  C   UNL     1      27.351  22.832  25.171  0.00  0.00    +0.000 C 
ATOM      9  C   UNL     1      27.354  23.705  23.935  0.00  0.00    +0.000 C 
ENDBRANCH   2   4
BRANCH   3  10
ATOM     10  N   UNL     1      29.697  25.454  20.073  0.00  0.00    +0.000 NA
ATOM     11  C   UNL     1      29.709  26.736  20.211  0.00  0.00    +0.000 C 
BRANCH  11  12
ATOM     12  C   UNL     1      29.753  27.566  18.998  0.00  0.00    +0.000 A 
ATOM     13  C   UNL     1      30.601  27.259  17.955  0.00  0.00    +0.000 A 
ATOM     14  C   UNL     1      30.640  28.040  16.817  0.00  0.00    +0.000 A 
ATOM     15  C   UNL     1      29.836  29.161  16.673  0.00  0.00    +0.000 A 
ATOM     16  O   UNL     1      29.874  29.942  15.539  0.00  0.00    +0.000 OA
ATOM     17  C   UNL     1      28.984  29.473  17.718  0.00  0.00    +0.000 A 
ATOM     18  C   UNL     1      28.957  28.681  18.848  0.00  0.00    +0.000 A 
ENDBRANCH  11  12
ENDBRANCH   3  10
TORSDOF 3
ENDMDL
MODEL 6
REMARK VINA RESULT:      -6.0      4.191      5.809
REMARK  Name = 
REMARK  3 active torsions:
REMARK  status: ('A' for Active; 'I' for Inactive)
REMARK    1  A    between atoms: C_2  and  C_13
REMARK    2  A    between atoms: N_3  and  N_4
REMARK    3  A    between atoms: C_5  and  C_6
REMARK                            x       y       z     vdW  Elec       q    Type
REMARK                         _______ _______ _______ _____ _____    ______ ____
ROOT
ATOM      1  O   UNL     1      18.544  11.813  38.011  0.00  0.00    +0.000 OA
ATOM      2  C   UNL     1      18.096  10.900  37.284  0.00  0.00    +0.000 C 
ATOM      3  N   UNL     1      18.970   9.907  36.781  0.00  0.00    +0.000 NA
ENDROOT
BRANCH   2   4
ATOM      4  C   UNL     1      16.658  10.858  36.949  0.00  0.00    +0.000 C 
ATOM      5  C   UNL     1      15.848  11.081  38.224  0.00  0.00    +0.000 C 
ATOM      6  C   UNL     1      14.371  11.118  37.904  0.00  0.00    +0.000 C 
ATOM      7  C   UNL     1      14.033  12.125  36.847  0.00  0.00    +0.000 C 
ATOM      8  C   UNL     1      14.891  12.040  35.627  0.00  0.00    +0.000 C 
ATOM      9  C   UNL     1      16.365  11.952  35.956  0.00  0.00    +0.000 C 
ENDBRANCH   2   4
BRANCH   3  10
ATOM     10  N   UNL     1      20.337   9.903  37.070  0.00  0.00    +0.000 NA
ATOM     11  C   UNL     1      21.251   9.640  36.199  0.00  0.00    +0.000 C 
BRANCH  11  12
ATOM     12  C   UNL     1      22.655   9.669  36.632  0.00  0.00    +0.000 A 
ATOM     13  C   UNL     1      23.633  10.237  35.843  0.00  0.00    +0.000 A 
ATOM     14  C   UNL     1      24.952  10.263  36.252  0.00  0.00    +0.000 A 
ATOM     15  C   UNL     1      25.350   9.722  37.465  0.00  0.00    +0.000 A 
ATOM     16  O   UNL     1      26.665   9.746  37.875  0.00  0.00    +0.000 OA
ATOM     17  C   UNL     1      24.372   9.150  38.261  0.00  0.00    +0.000 A 
ATOM     18  C   UNL     1      23.058   9.133  37.836  0.00  0.00    +0.000 A 
ENDBRANCH  11  12
ENDBRANCH   3  10
TORSDOF 3
ENDMDL
MODEL 7
REMARK VINA RESULT:      -6.0     18.690     20.595
REMARK  Name = 
REMARK  3 active torsions:
REMARK  status: ('A' for Active; 'I' for Inactive)
REMARK    1  A    between atoms: C_2  and  C_13
REMARK    2  A    between atoms: N_3  and  N_4
REMARK    3  A    between atoms: C_5  and  C_6
REMARK                            x       y       z     vdW  Elec       q    Type
REMARK                         _______ _______ _______ _____ _____    ______ ____
ROOT
ATOM      1  O   UNL     1      33.897   0.818  36.231  0.00  0.00    +0.000 OA
ATOM      2  C   UNL     1      33.526   0.792  35.038  0.00  0.00    +0.000 C 
ATOM      3  N   UNL     1      33.639   1.956  34.239  0.00  0.00    +0.000 NA
ENDROOT
BRANCH   2   4
ATOM      4  C   UNL     1      32.970  -0.449  34.461  0.00  0.00    +0.000 C 
ATOM      5  C   UNL     1      34.108  -1.258  33.844  0.00  0.00    +0.000 C 
ATOM      6  C   UNL     1      33.584  -2.571  33.310  0.00  0.00    +0.000 C 
ATOM      7  C   UNL     1      32.838  -3.361  34.342  0.00  0.00    +0.000 C 
ATOM      8  C   UNL     1      31.801  -2.576  35.077  0.00  0.00    +0.000 C 
ATOM      9  C   UNL     1      32.317  -1.240  35.565  0.00  0.00    +0.000 C 
ENDBRANCH   2   4
BRANCH   3  10
ATOM     10  N   UNL     1      34.159   3.153  34.738  0.00  0.00    +0.000 NA
ATOM     11  C   UNL     1      33.846   4.315  34.276  0.00  0.00    +0.000 C 
BRANCH  11  12
ATOM     12  C   UNL     1      34.465   5.499  34.890  0.00  0.00    +0.000 A 
ATOM     13  C   UNL     1      33.696   6.543  35.360  0.00  0.00    +0.000 A 
ATOM     14  C   UNL     1      34.280   7.654  35.936  0.00  0.00    +0.000 A 
ATOM     15  C   UNL     1      35.655   7.769  36.067  0.00  0.00    +0.000 A 
ATOM     16  O   UNL     1      36.240   8.877  36.641  0.00  0.00    +0.000 OA
ATOM     17  C   UNL     1      36.431   6.724  35.597  0.00  0.00    +0.000 A 
ATOM     18  C   UNL     1      35.831   5.621  35.024  0.00  0.00    +0.000 A 
ENDBRANCH  11  12
ENDBRANCH   3  10
TORSDOF 3
ENDMDL
MODEL 8
REMARK VINA RESULT:      -6.0     21.931     24.351
REMARK  Name = 
REMARK  3 active torsions:
REMARK  status: ('A' for Active; 'I' for Inactive)
REMARK    1  A    between atoms: C_2  and  C_13
REMARK    2  A    between atoms: N_3  and  N_4
REMARK    3  A    between atoms: C_5  and  C_6
REMARK                            x       y       z     vdW  Elec       q    Type
REMARK                         _______ _______ _______ _____ _____    ______ ____
ROOT
ATOM      1  O   UNL     1      29.557  27.500  20.691  0.00  0.00    +0.000 OA
ATOM      2  C   UNL     1      29.749  26.714  19.738  0.00  0.00    +0.000 C 
ATOM      3  N   UNL     1      29.766  25.317  19.970  0.00  0.00    +0.000 NA
ENDROOT
BRANCH   2   4
ATOM      4  C   UNL     1      29.958  27.239  18.374  0.00  0.00    +0.000 C 
ATOM      5  C   UNL     1      28.935  28.341  18.108  0.00  0.00    +0.000 C 
ATOM      6  C   UNL     1      29.169  28.952  16.745  0.00  0.00    +0.000 C 
ATOM      7  C   UNL     1      30.574  29.443  16.564  0.00  0.00    +0.000 C 
ATOM      8  C   UNL     1      31.621  28.447  16.943  0.00  0.00    +0.000 C 
ATOM      9  C   UNL     1      31.353  27.801  18.285  0.00  0.00    +0.000 C 
ENDBRANCH   2   4
BRANCH   3  10
ATOM     10  N   UNL     1      29.572  24.771  21.241  0.00  0.00    +0.000 NA
ATOM     11  C   UNL     1      28.468  24.229  21.626  0.00  0.00    +0.000 C 
BRANCH  11  12
ATOM     12  C   UNL     1      28.395  23.691  22.992  0.00  0.00    +0.000 A 
ATOM     13  C   UNL     1      27.186  23.566  23.645  0.00  0.00    +0.000 A 
ATOM     14  C   UNL     1      27.120  23.061  24.929  0.00  0.00    +0.000 A 
ATOM     15  C   UNL     1      28.256  22.661  25.615  0.00  0.00    +0.000 A 
ATOM     16  O   UNL     1      28.193  22.157  26.895  0.00  0.00    +0.000 OA
ATOM     17  C   UNL     1      29.472  22.784  24.963  0.00  0.00    +0.000 A 
ATOM     18  C   UNL     1      29.520  23.290  23.680  0.00  0.00    +0.000 A 
ENDBRANCH  11  12
ENDBRANCH   3  10
TORSDOF 3
ENDMDL
MODEL 9
REMARK VINA RESULT:      -5.9     22.736     23.942
REMARK  Name = 
REMARK  3 active torsions:
REMARK  status: ('A' for Active; 'I' for Inactive)
REMARK    1  A    between atoms: C_2  and  C_13
REMARK    2  A    between atoms: N_3  and  N_4
REMARK    3  A    between atoms: C_5  and  C_6
REMARK                            x       y       z     vdW  Elec       q    Type
REMARK                         _______ _______ _______ _____ _____    ______ ____
ROOT
ATOM      1  O   UNL     1      25.295  -6.696  23.205  0.00  0.00    +0.000 OA
ATOM      2  C   UNL     1      25.436  -7.912  23.455  0.00  0.00    +0.000 C 
ATOM      3  N   UNL     1      24.435  -8.603  24.180  0.00  0.00    +0.000 NA
ENDROOT
BRANCH   2   4
ATOM      4  C   UNL     1      26.643  -8.628  22.997  0.00  0.00    +0.000 C 
ATOM      5  C   UNL     1      27.614  -7.619  22.390  0.00  0.00    +0.000 C 
ATOM      6  C   UNL     1      28.894  -8.309  21.978  0.00  0.00    +0.000 C 
ATOM      7  C   UNL     1      29.523  -9.081  23.099  0.00  0.00    +0.000 C 
ATOM      8  C   UNL     1      28.579  -9.986  23.820  0.00  0.00    +0.000 C 
ATOM      9  C   UNL     1      27.279  -9.303  24.184  0.00  0.00    +0.000 C 
ENDBRANCH   2   4
BRANCH   3  10
ATOM     10  N   UNL     1      23.274  -7.971  24.635  0.00  0.00    +0.000 NA
ATOM     11  C   UNL     1      22.289  -8.595  25.183  0.00  0.00    +0.000 C 
BRANCH  11  12
ATOM     12  C   UNL     1      21.123  -7.811  25.618  0.00  0.00    +0.000 A 
ATOM     13  C   UNL     1      20.074  -8.406  26.286  0.00  0.00    +0.000 A 
ATOM     14  C   UNL     1      18.980  -7.667  26.693  0.00  0.00    +0.000 A 
ATOM     15  C   UNL     1      18.888  -6.305  26.451  0.00  0.00    +0.000 A 
ATOM     16  O   UNL     1      17.798  -5.567  26.856  0.00  0.00    +0.000 OA
ATOM     17  C   UNL     1      19.939  -5.704  25.781  0.00  0.00    +0.000 A 
ATOM     18  C   UNL     1      21.025  -6.457  25.380  0.00  0.00    +0.000 A 
ENDBRANCH  11  12
ENDBRANCH   3  10
TORSDOF 3
ENDMDL
MODEL 10
REMARK VINA RESULT:      -5.9     22.535     23.524
REMARK  Name = 
REMARK  3 active torsions:
REMARK  status: ('A' for Active; 'I' for Inactive)
REMARK    1  A    between atoms: C_2  and  C_13
REMARK    2  A    between atoms: N_3  and  N_4
REMARK    3  A    between atoms: C_5  and  C_6
REMARK                            x       y       z     vdW  Elec       q    Type
REMARK                         _______ _______ _______ _____ _____    ______ ____
ROOT
ATOM      1  O   UNL     1      21.947  -8.782  26.040  0.00  0.00    +0.000 OA
ATOM      2  C   UNL     1      21.517  -7.856  25.320  0.00  0.00    +0.000 C 
ATOM      3  N   UNL     1      22.330  -7.333  24.285  0.00  0.00    +0.000 NA
ENDROOT
BRANCH   2   4
ATOM      4  C   UNL     1      20.164  -7.308  25.545  0.00  0.00    +0.000 C 
ATOM      5  C   UNL     1      19.535  -8.023  26.738  0.00  0.00    +0.000 C 
ATOM      6  C   UNL     1      18.178  -7.433  27.043  0.00  0.00    +0.000 C 
ATOM      7  C   UNL     1      18.224  -5.948  27.247  0.00  0.00    +0.000 C 
ATOM      8  C   UNL     1      18.952  -5.208  26.173  0.00  0.00    +0.000 C 
ATOM      9  C   UNL     1      20.288  -5.834  25.836  0.00  0.00    +0.000 C 
ENDBRANCH   2   4
BRANCH   3  10
ATOM     10  N   UNL     1      23.616  -7.818  24.031  0.00  0.00    +0.000 NA
ATOM     11  C   UNL     1      24.556  -7.109  23.506  0.00  0.00    +0.000 C 
BRANCH  11  12
ATOM     12  C   UNL     1      25.866  -7.741  23.290  0.00  0.00    +0.000 A 
ATOM     13  C   UNL     1      26.192  -8.933  23.903  0.00  0.00    +0.000 A 
ATOM     14  C   UNL     1      27.423  -9.524  23.698  0.00  0.00    +0.000 A 
ATOM     15  C   UNL     1      28.380  -8.951  22.875  0.00  0.00    +0.000 A 
ATOM     16  O   UNL     1      29.609  -9.539  22.670  0.00  0.00    +0.000 OA
ATOM     17  C   UNL     1      28.057  -7.755  22.257  0.00  0.00    +0.000 A 
ATOM     18  C   UNL     1      26.822  -7.177  22.473  0.00  0.00    +0.000 A 
ENDBRANCH  11  12
ENDBRANCH   3  10
TORSDOF 3
ENDMDL
