MODEL 1
REMARK VINA RESULT:      -5.9      0.000      0.000
REMARK  Name = 
REMARK  3 active torsions:
REMARK  status: ('A' for Active; 'I' for Inactive)
REMARK    1  A    between atoms: C_2  and  N_5
REMARK    2  A    between atoms: C_10  and  C_11
REMARK    3  A    between atoms: C_11  and  C_13
REMARK                            x       y       z     vdW  Elec       q    Type
REMARK                         _______ _______ _______ _____ _____    ______ ____
ROOT
ATOM      1  N   UNL     1      25.743  24.755  31.136  0.00  0.00    +0.000 NA
ATOM      2  C   UNL     1      25.955  24.508  29.731  0.00  0.00    +0.000 A 
ATOM      3  N   UNL     1      25.852  25.401  28.786  0.00  0.00    +0.000 NA
ATOM      4  C   UNL     1      26.068  25.058  27.543  0.00  0.00    +0.000 A 
ATOM      5  N   UNL     1      25.960  26.028  26.466  0.00  0.00    +0.000 NA
ATOM      6  C   UNL     1      26.396  23.773  27.288  0.00  0.00    +0.000 A 
ATOM      7  S   UNL     1      26.379  23.096  28.876  0.00  0.00    +0.000 S 
ENDROOT
BRANCH   1   9
ATOM      8  C   UNL     1      25.504  26.131  33.143  0.00  0.00    +0.000 C 
ATOM      9  C   UNL     1      25.384  26.073  31.615  0.00  0.00    +0.000 C 
ATOM     10  C   UNL     1      23.959  26.330  31.169  0.00  0.00    +0.000 C 
ATOM     11  C   UNL     1      26.340  27.129  31.090  0.00  0.00    +0.000 C 
ENDBRANCH   1   9
BRANCH   6  12
ATOM     12  C   UNL     1      26.685  23.137  26.000  0.00  0.00    +0.000 C 
ATOM     13  O   UNL     1      25.773  22.737  25.260  0.00  0.00    +0.000 OA
BRANCH  12  14
ATOM     14  C   UNL     1      28.057  22.981  25.597  0.00  0.00    +0.000 A 
ATOM     15  C   UNL     1      29.036  22.512  26.467  0.00  0.00    +0.000 A 
ATOM     16  C   UNL     1      30.316  22.399  25.984  0.00  0.00    +0.000 A 
ATOM     17  C   UNL     1      30.693  22.720  24.699  0.00  0.00    +0.000 A 
ATOM     18  F   UNL     1      31.989  22.586  24.277  0.00  0.00    +0.000 F 
ATOM     19  C   UNL     1      29.709  23.181  23.859  0.00  0.00    +0.000 A 
ATOM     20  C   UNL     1      28.416  23.306  24.313  0.00  0.00    +0.000 A 
ENDBRANCH  12  14
ENDBRANCH   6  12
TORSDOF 3
ENDMDL
MODEL 2
REMARK VINA RESULT:      -5.8     18.980     20.275
REMARK  Name = 
REMARK  3 active torsions:
REMARK  status: ('A' for Active; 'I' for Inactive)
REMARK    1  A    between atoms: C_2  and  N_5
REMARK    2  A    between atoms: C_10  and  C_11
REMARK    3  A    between atoms: C_11  and  C_13
REMARK                            x       y       z     vdW  Elec       q    Type
REMARK                         _______ _______ _______ _____ _____    ______ ____
ROOT
ATOM      1  N   UNL     1      17.612   7.995  41.865  0.00  0.00    +0.000 NA
ATOM      2  C   UNL     1      17.987   8.549  40.588  0.00  0.00    +0.000 A 
ATOM      3  N   UNL     1      17.251   9.353  39.871  0.00  0.00    +0.000 NA
ATOM      4  C   UNL     1      17.698   9.792  38.723  0.00  0.00    +0.000 A 
ATOM      5  N   UNL     1      16.903  10.688  37.900  0.00  0.00    +0.000 NA
ATOM      6  C   UNL     1      18.923   9.388  38.324  0.00  0.00    +0.000 A 
ATOM      7  S   UNL     1      19.392   8.373  39.639  0.00  0.00    +0.000 S 
ENDROOT
BRANCH   1   9
ATOM      8  C   UNL     1      15.200   8.049  41.466  0.00  0.00    +0.000 C 
ATOM      9  C   UNL     1      16.334   8.310  42.467  0.00  0.00    +0.000 C 
ATOM     10  C   UNL     1      16.383   9.771  42.867  0.00  0.00    +0.000 C 
ATOM     11  C   UNL     1      16.045   7.410  43.654  0.00  0.00    +0.000 C 
ENDBRANCH   1   9
BRANCH   6  12
ATOM     12  C   UNL     1      19.649   9.729  37.097  0.00  0.00    +0.000 C 
ATOM     13  O   UNL     1      19.147   9.536  35.978  0.00  0.00    +0.000 OA
BRANCH  12  14
ATOM     14  C   UNL     1      20.965  10.297  37.206  0.00  0.00    +0.000 A 
ATOM     15  C   UNL     1      21.247  11.356  38.064  0.00  0.00    +0.000 A 
ATOM     16  C   UNL     1      22.537  11.825  38.092  0.00  0.00    +0.000 A 
ATOM     17  C   UNL     1      23.566  11.319  37.330  0.00  0.00    +0.000 A 
ATOM     18  F   UNL     1      24.833  11.833  37.404  0.00  0.00    +0.000 F 
ATOM     19  C   UNL     1      23.262  10.275  36.491  0.00  0.00    +0.000 A 
ATOM     20  C   UNL     1      21.979   9.781  36.438  0.00  0.00    +0.000 A 
ENDBRANCH  12  14
ENDBRANCH   6  12
TORSDOF 3
ENDMDL
MODEL 3
REMARK VINA RESULT:      -5.7      4.607      6.727
REMARK  Name = 
REMARK  3 active torsions:
REMARK  status: ('A' for Active; 'I' for Inactive)
REMARK    1  A    between atoms: C_2  and  N_5
REMARK    2  A    between atoms: C_10  and  C_11
REMARK    3  A    between atoms: C_11  and  C_13
REMARK                            x       y       z     vdW  Elec       q    Type
REMARK                         _______ _______ _______ _____ _____    ______ ____
ROOT
ATOM      1  N   UNL     1      27.706  28.228  22.194  0.00  0.00    +0.000 NA
ATOM      2  C   UNL     1      27.489  26.893  22.696  0.00  0.00    +0.000 A 
ATOM      3  N   UNL     1      27.402  25.818  21.962  0.00  0.00    +0.000 NA
ATOM      4  C   UNL     1      27.203  24.658  22.531  0.00  0.00    +0.000 A 
ATOM      5  N   UNL     1      27.100  23.442  21.743  0.00  0.00    +0.000 NA
ATOM      6  C   UNL     1      27.095  24.623  23.877  0.00  0.00    +0.000 A 
ATOM      7  S   UNL     1      27.288  26.291  24.278  0.00  0.00    +0.000 S 
ENDROOT
BRANCH   1   9
ATOM      8  C   UNL     1      28.226  29.943  20.531  0.00  0.00    +0.000 C 
ATOM      9  C   UNL     1      27.850  28.476  20.775  0.00  0.00    +0.000 C 
ATOM     10  C   UNL     1      26.519  28.140  20.133  0.00  0.00    +0.000 C 
ATOM     11  C   UNL     1      28.984  27.660  20.184  0.00  0.00    +0.000 C 
ENDBRANCH   1   9
BRANCH   6  12
ATOM     12  C   UNL     1      26.873  23.468  24.751  0.00  0.00    +0.000 C 
ATOM     13  O   UNL     1      25.763  22.917  24.819  0.00  0.00    +0.000 OA
BRANCH  12  14
ATOM     14  C   UNL     1      27.970  22.974  25.538  0.00  0.00    +0.000 A 
ATOM     15  C   UNL     1      27.826  22.635  26.880  0.00  0.00    +0.000 A 
ATOM     16  C   UNL     1      28.937  22.173  27.542  0.00  0.00    +0.000 A 
ATOM     17  C   UNL     1      30.179  22.024  26.968  0.00  0.00    +0.000 A 
ATOM     18  F   UNL     1      31.249  21.557  27.683  0.00  0.00    +0.000 F 
ATOM     19  C   UNL     1      30.295  22.365  25.642  0.00  0.00    +0.000 A 
ATOM     20  C   UNL     1      29.202  22.832  24.950  0.00  0.00    +0.000 A 
ENDBRANCH  12  14
ENDBRANCH   6  12
TORSDOF 3
ENDMDL
MODEL 4
REMARK VINA RESULT:      -5.6      5.282      7.425
REMARK  Name = 
REMARK  3 active torsions:
REMARK  status: ('A' for Active; 'I' for Inactive)
REMARK    1  A    between atoms: C_2  and  N_5
REMARK    2  A    between atoms: C_10  and  C_11
REMARK    3  A    between atoms: C_11  and  C_13
REMARK                            x       y       z     vdW  Elec       q    Type
REMARK                         _______ _______ _______ _____ _____    ______ ____
ROOT
ATOM      1  N   UNL     1      27.937  29.088  21.699  0.00  0.00    +0.000 NA
ATOM      2  C   UNL     1      28.006  27.661  21.902  0.00  0.00    +0.000 A 
ATOM      3  N   UNL     1      28.744  26.837  21.210  0.00  0.00    +0.000 NA
ATOM      4  C   UNL     1      28.724  25.560  21.487  0.00  0.00    +0.000 A 
ATOM      5  N   UNL     1      29.533  24.615  20.735  0.00  0.00    +0.000 NA
ATOM      6  C   UNL     1      27.927  25.142  22.494  0.00  0.00    +0.000 A 
ATOM      7  S   UNL     1      27.225  26.632  23.013  0.00  0.00    +0.000 S 
ENDROOT
BRANCH   1   9
ATOM      8  C   UNL     1      28.748  28.857  19.404  0.00  0.00    +0.000 C 
ATOM      9  C   UNL     1      28.720  29.731  20.665  0.00  0.00    +0.000 C 
ATOM     10  C   UNL     1      30.113  29.926  21.225  0.00  0.00    +0.000 C 
ATOM     11  C   UNL     1      28.094  31.046  20.236  0.00  0.00    +0.000 C 
ENDBRANCH   1   9
BRANCH   6  12
ATOM     12  C   UNL     1      27.723  23.782  23.001  0.00  0.00    +0.000 C 
ATOM     13  O   UNL     1      26.865  23.034  22.507  0.00  0.00    +0.000 OA
BRANCH  12  14
ATOM     14  C   UNL     1      28.540  23.319  24.090  0.00  0.00    +0.000 A 
ATOM     15  C   UNL     1      28.024  23.109  25.366  0.00  0.00    +0.000 A 
ATOM     16  C   UNL     1      28.888  22.665  26.336  0.00  0.00    +0.000 A 
ATOM     17  C   UNL     1      30.227  22.416  26.131  0.00  0.00    +0.000 A 
ATOM     18  F   UNL     1      31.038  21.975  27.142  0.00  0.00    +0.000 F 
ATOM     19  C   UNL     1      30.712  22.632  24.864  0.00  0.00    +0.000 A 
ATOM     20  C   UNL     1      29.872  23.076  23.868  0.00  0.00    +0.000 A 
ENDBRANCH  12  14
ENDBRANCH   6  12
TORSDOF 3
ENDMDL
MODEL 5
REMARK VINA RESULT:      -5.6     16.798     18.263
REMARK  Name = 
REMARK  3 active torsions:
REMARK  status: ('A' for Active; 'I' for Inactive)
REMARK    1  A    between atoms: C_2  and  N_5
REMARK    2  A    between atoms: C_10  and  C_11
REMARK    3  A    between atoms: C_11  and  C_13
REMARK                            x       y       z     vdW  Elec       q    Type
REMARK                         _______ _______ _______ _____ _____    ______ ____
ROOT
ATOM      1  N   UNL     1      24.284  11.090  37.484  0.00  0.00    +0.000 NA
ATOM      2  C   UNL     1      22.862  10.870  37.574  0.00  0.00    +0.000 A 
ATOM      3  N   UNL     1      22.048  11.517  38.362  0.00  0.00    +0.000 NA
ATOM      4  C   UNL     1      20.773  11.228  38.358  0.00  0.00    +0.000 A 
ATOM      5  N   UNL     1      19.841  11.929  39.224  0.00  0.00    +0.000 NA
ATOM      6  C   UNL     1      20.347  10.256  37.522  0.00  0.00    +0.000 A 
ATOM      7  S   UNL     1      21.825   9.788  36.762  0.00  0.00    +0.000 S 
ENDROOT
BRANCH   1   9
ATOM      8  C   UNL     1      24.230  12.208  39.657  0.00  0.00    +0.000 C 
ATOM      9  C   UNL     1      24.935  12.093  38.300  0.00  0.00    +0.000 C 
ATOM     10  C   UNL     1      24.861  13.399  37.534  0.00  0.00    +0.000 C 
ATOM     11  C   UNL     1      26.368  11.704  38.615  0.00  0.00    +0.000 C 
ENDBRANCH   1   9
BRANCH   6  12
ATOM     12  C   UNL     1      18.987   9.746  37.324  0.00  0.00    +0.000 C 
ATOM     13  O   UNL     1      18.521   8.858  38.055  0.00  0.00    +0.000 OA
BRANCH  12  14
ATOM     14  C   UNL     1      18.190  10.293  36.260  0.00  0.00    +0.000 A 
ATOM     15  C   UNL     1      17.388  11.416  36.436  0.00  0.00    +0.000 A 
ATOM     16  C   UNL     1      16.666  11.859  35.356  0.00  0.00    +0.000 A 
ATOM     17  C   UNL     1      16.682  11.265  34.114  0.00  0.00    +0.000 A 
ATOM     18  F   UNL     1      15.937  11.755  33.074  0.00  0.00    +0.000 F 
ATOM     19  C   UNL     1      17.481  10.158  33.965  0.00  0.00    +0.000 A 
ATOM     20  C   UNL     1      18.218   9.689  35.027  0.00  0.00    +0.000 A 
ENDBRANCH  12  14
ENDBRANCH   6  12
TORSDOF 3
ENDMDL
MODEL 6
REMARK VINA RESULT:      -5.6     34.071     34.941
REMARK  Name = 
REMARK  3 active torsions:
REMARK  status: ('A' for Active; 'I' for Inactive)
REMARK    1  A    between atoms: C_2  and  N_5
REMARK    2  A    between atoms: C_10  and  C_11
REMARK    3  A    between atoms: C_11  and  C_13
REMARK                            x       y       z     vdW  Elec       q    Type
REMARK                         _______ _______ _______ _____ _____    ______ ____
ROOT
ATOM      1  N   UNL     1      17.487 -10.873  32.444  0.00  0.00    +0.000 NA
ATOM      2  C   UNL     1      17.690 -10.584  31.046  0.00  0.00    +0.000 A 
ATOM      3  N   UNL     1      16.782 -10.690  30.115  0.00  0.00    +0.000 NA
ATOM      4  C   UNL     1      17.084 -10.399  28.877  0.00  0.00    +0.000 A 
ATOM      5  N   UNL     1      16.096 -10.508  27.817  0.00  0.00    +0.000 NA
ATOM      6  C   UNL     1      18.344  -9.994  28.611  0.00  0.00    +0.000 A 
ATOM      7  S   UNL     1      19.058 -10.048  30.182  0.00  0.00    +0.000 S 
ENDROOT
BRANCH   1   9
ATOM      8  C   UNL     1      16.224 -11.427  34.463  0.00  0.00    +0.000 C 
ATOM      9  C   UNL     1      16.200 -11.321  32.932  0.00  0.00    +0.000 C 
ATOM     10  C   UNL     1      15.934 -12.671  32.296  0.00  0.00    +0.000 C 
ATOM     11  C   UNL     1      15.107 -10.319  32.609  0.00  0.00    +0.000 C 
ENDBRANCH   1   9
BRANCH   6  12
ATOM     12  C   UNL     1      18.935  -9.612  27.325  0.00  0.00    +0.000 C 
ATOM     13  O   UNL     1      19.398 -10.465  26.551  0.00  0.00    +0.000 OA
BRANCH  12  14
ATOM     14  C   UNL     1      18.971  -8.221  26.965  0.00  0.00    +0.000 A 
ATOM     15  C   UNL     1      19.984  -7.685  26.175  0.00  0.00    +0.000 A 
ATOM     16  C   UNL     1      19.925  -6.344  25.888  0.00  0.00    +0.000 A 
ATOM     17  C   UNL     1      18.934  -5.497  26.330  0.00  0.00    +0.000 A 
ATOM     18  F   UNL     1      18.933  -4.165  26.010  0.00  0.00    +0.000 F 
ATOM     19  C   UNL     1      17.946  -6.049  27.108  0.00  0.00    +0.000 A 
ATOM     20  C   UNL     1      17.975  -7.390  27.414  0.00  0.00    +0.000 A 
ENDBRANCH  12  14
ENDBRANCH   6  12
TORSDOF 3
ENDMDL
MODEL 7
REMARK VINA RESULT:      -5.5     32.699     34.010
REMARK  Name = 
REMARK  3 active torsions:
REMARK  status: ('A' for Active; 'I' for Inactive)
REMARK    1  A    between atoms: C_2  and  N_5
REMARK    2  A    between atoms: C_10  and  C_11
REMARK    3  A    between atoms: C_11  and  C_13
REMARK                            x       y       z     vdW  Elec       q    Type
REMARK                         _______ _______ _______ _____ _____    ______ ____
ROOT
ATOM      1  N   UNL     1      22.854  -8.500  24.603  0.00  0.00    +0.000 NA
ATOM      2  C   UNL     1      21.647  -8.041  25.246  0.00  0.00    +0.000 A 
ATOM      3  N   UNL     1      21.160  -6.834  25.158  0.00  0.00    +0.000 NA
ATOM      4  C   UNL     1      20.054  -6.533  25.788  0.00  0.00    +0.000 A 
ATOM      5  N   UNL     1      19.486  -5.198  25.712  0.00  0.00    +0.000 NA
ATOM      6  C   UNL     1      19.454  -7.502  26.513  0.00  0.00    +0.000 A 
ATOM      7  S   UNL     1      20.524  -8.832  26.256  0.00  0.00    +0.000 S 
ENDROOT
BRANCH   1   9
ATOM      8  C   UNL     1      23.843  -6.267  24.493  0.00  0.00    +0.000 C 
ATOM      9  C   UNL     1      23.643  -7.610  23.779  0.00  0.00    +0.000 C 
ATOM     10  C   UNL     1      22.887  -7.429  22.478  0.00  0.00    +0.000 C 
ATOM     11  C   UNL     1      25.038  -8.161  23.549  0.00  0.00    +0.000 C 
ENDBRANCH   1   9
BRANCH   6  12
ATOM     12  C   UNL     1      18.222  -7.428  27.303  0.00  0.00    +0.000 C 
ATOM     13  O   UNL     1      17.681  -6.339  27.550  0.00  0.00    +0.000 OA
BRANCH  12  14
ATOM     14  C   UNL     1      17.640  -8.648  27.794  0.00  0.00    +0.000 A 
ATOM     15  C   UNL     1      16.722  -9.383  27.051  0.00  0.00    +0.000 A 
ATOM     16  C   UNL     1      16.226 -10.534  27.611  0.00  0.00    +0.000 A 
ATOM     17  C   UNL     1      16.575 -11.006  28.856  0.00  0.00    +0.000 A 
ATOM     18  F   UNL     1      16.043 -12.163  29.360  0.00  0.00    +0.000 F 
ATOM     19  C   UNL     1      17.483 -10.263  29.570  0.00  0.00    +0.000 A 
ATOM     20  C   UNL     1      18.000  -9.105  29.038  0.00  0.00    +0.000 A 
ENDBRANCH  12  14
ENDBRANCH   6  12
TORSDOF 3
ENDMDL
MODEL 8
REMARK VINA RESULT:      -5.4      2.608      3.363
REMARK  Name = 
REMARK  3 active torsions:
REMARK  status: ('A' for Active; 'I' for Inactive)
REMARK    1  A    between atoms: C_2  and  N_5
REMARK    2  A    between atoms: C_10  and  C_11
REMARK    3  A    between atoms: C_11  and  C_13
REMARK                            x       y       z     vdW  Elec       q    Type
REMARK                         _______ _______ _______ _____ _____    ______ ____
ROOT
ATOM      1  N   UNL     1      25.575  27.165  31.119  0.00  0.00    +0.000 NA
ATOM      2  C   UNL     1      26.287  25.932  30.891  0.00  0.00    +0.000 A 
ATOM      3  N   UNL     1      25.749  24.744  30.871  0.00  0.00    +0.000 NA
ATOM      4  C   UNL     1      26.498  23.695  30.654  0.00  0.00    +0.000 A 
ATOM      5  N   UNL     1      25.930  22.358  30.627  0.00  0.00    +0.000 NA
ATOM      6  C   UNL     1      27.820  23.891  30.456  0.00  0.00    +0.000 A 
ATOM      7  S   UNL     1      27.934  25.608  30.592  0.00  0.00    +0.000 S 
ENDROOT
BRANCH   1   9
ATOM      8  C   UNL     1      23.634  28.609  31.476  0.00  0.00    +0.000 C 
ATOM      9  C   UNL     1      24.147  27.168  31.351  0.00  0.00    +0.000 C 
ATOM     10  C   UNL     1      23.907  26.391  32.630  0.00  0.00    +0.000 C 
ATOM     11  C   UNL     1      23.395  26.568  30.177  0.00  0.00    +0.000 C 
ENDBRANCH   1   9
BRANCH   6  12
ATOM     12  C   UNL     1      28.866  22.898  30.196  0.00  0.00    +0.000 C 
ATOM     13  O   UNL     1      29.374  22.241  31.118  0.00  0.00    +0.000 OA
BRANCH  12  14
ATOM     14  C   UNL     1      29.304  22.692  28.842  0.00  0.00    +0.000 A 
ATOM     15  C   UNL     1      30.652  22.642  28.497  0.00  0.00    +0.000 A 
ATOM     16  C   UNL     1      30.963  22.440  27.176  0.00  0.00    +0.000 A 
ATOM     17  C   UNL     1      30.034  22.286  26.172  0.00  0.00    +0.000 A 
ATOM     18  F   UNL     1      30.410  22.088  24.870  0.00  0.00    +0.000 F 
ATOM     19  C   UNL     1      28.711  22.340  26.537  0.00  0.00    +0.000 A 
ATOM     20  C   UNL     1      28.364  22.541  27.853  0.00  0.00    +0.000 A 
ENDBRANCH  12  14
ENDBRANCH   6  12
TORSDOF 3
ENDMDL
MODEL 9
REMARK VINA RESULT:      -5.4      3.438      4.087
REMARK  Name = 
REMARK  3 active torsions:
REMARK  status: ('A' for Active; 'I' for Inactive)
REMARK    1  A    between atoms: C_2  and  N_5
REMARK    2  A    between atoms: C_10  and  C_11
REMARK    3  A    between atoms: C_11  and  C_13
REMARK                            x       y       z     vdW  Elec       q    Type
REMARK                         _______ _______ _______ _____ _____    ______ ____
ROOT
ATOM      1  N   UNL     1      24.445  27.465  25.585  0.00  0.00    +0.000 NA
ATOM      2  C   UNL     1      25.260  26.407  25.038  0.00  0.00    +0.000 A 
ATOM      3  N   UNL     1      25.085  25.133  25.256  0.00  0.00    +0.000 NA
ATOM      4  C   UNL     1      25.891  24.264  24.703  0.00  0.00    +0.000 A 
ATOM      5  N   UNL     1      25.724  22.838  24.926  0.00  0.00    +0.000 NA
ATOM      6  C   UNL     1      26.884  24.731  23.917  0.00  0.00    +0.000 A 
ATOM      7  S   UNL     1      26.616  26.435  24.006  0.00  0.00    +0.000 S 
ENDROOT
BRANCH   1   9
ATOM      8  C   UNL     1      23.744  26.153  27.526  0.00  0.00    +0.000 C 
ATOM      9  C   UNL     1      23.326  27.168  26.454  0.00  0.00    +0.000 C 
ATOM     10  C   UNL     1      22.223  26.612  25.576  0.00  0.00    +0.000 C 
ATOM     11  C   UNL     1      22.875  28.402  27.214  0.00  0.00    +0.000 C 
ENDBRANCH   1   9
BRANCH   6  12
ATOM     12  C   UNL     1      27.910  23.980  23.189  0.00  0.00    +0.000 C 
ATOM     13  O   UNL     1      27.649  23.402  22.122  0.00  0.00    +0.000 OA
BRANCH  12  14
ATOM     14  C   UNL     1      29.241  23.919  23.732  0.00  0.00    +0.000 A 
ATOM     15  C   UNL     1      29.786  22.739  24.228  0.00  0.00    +0.000 A 
ATOM     16  C   UNL     1      31.065  22.789  24.724  0.00  0.00    +0.000 A 
ATOM     17  C   UNL     1      31.841  23.925  24.763  0.00  0.00    +0.000 A 
ATOM     18  F   UNL     1      33.112  23.909  25.272  0.00  0.00    +0.000 F 
ATOM     19  C   UNL     1      31.280  25.077  24.268  0.00  0.00    +0.000 A 
ATOM     20  C   UNL     1      30.000  25.062  23.764  0.00  0.00    +0.000 A 
ENDBRANCH  12  14
ENDBRANCH   6  12
TORSDOF 3
ENDMDL
MODEL 10
REMARK VINA RESULT:      -5.2     34.395     35.381
REMARK  Name = 
REMARK  3 active torsions:
REMARK  status: ('A' for Active; 'I' for Inactive)
REMARK    1  A    between atoms: C_2  and  N_5
REMARK    2  A    between atoms: C_10  and  C_11
REMARK    3  A    between atoms: C_11  and  C_13
REMARK                            x       y       z     vdW  Elec       q    Type
REMARK                         _______ _______ _______ _____ _____    ______ ____
ROOT
ATOM      1  N   UNL     1      12.456 -10.958  27.712  0.00  0.00    +0.000 NA
ATOM      2  C   UNL     1      13.609 -10.452  27.007  0.00  0.00    +0.000 A 
ATOM      3  N   UNL     1      13.570  -9.666  25.967  0.00  0.00    +0.000 NA
ATOM      4  C   UNL     1      14.685  -9.271  25.410  0.00  0.00    +0.000 A 
ATOM      5  N   UNL     1      14.677  -8.396  24.250  0.00  0.00    +0.000 NA
ATOM      6  C   UNL     1      15.848  -9.701  25.946  0.00  0.00    +0.000 A 
ATOM      7  S   UNL     1      15.281 -10.675  27.253  0.00  0.00    +0.000 S 
ENDROOT
BRANCH   1   9
ATOM      8  C   UNL     1      10.098 -11.064  28.346  0.00  0.00    +0.000 C 
ATOM      9  C   UNL     1      11.116 -10.610  27.292  0.00  0.00    +0.000 C 
ATOM     10  C   UNL     1      10.875 -11.304  25.967  0.00  0.00    +0.000 C 
ATOM     11  C   UNL     1      10.945  -9.106  27.181  0.00  0.00    +0.000 C 
ENDBRANCH   1   9
BRANCH   6  12
ATOM     12  C   UNL     1      17.219  -9.410  25.519  0.00  0.00    +0.000 C 
ATOM     13  O   UNL     1      17.866 -10.219  24.835  0.00  0.00    +0.000 OA
BRANCH  12  14
ATOM     14  C   UNL     1      17.815  -8.160  25.906  0.00  0.00    +0.000 A 
ATOM     15  C   UNL     1      19.103  -7.800  25.520  0.00  0.00    +0.000 A 
ATOM     16  C   UNL     1      19.578  -6.584  25.944  0.00  0.00    +0.000 A 
ATOM     17  C   UNL     1      18.867  -5.700  26.723  0.00  0.00    +0.000 A 
ATOM     18  F   UNL     1      19.398  -4.499  27.114  0.00  0.00    +0.000 F 
ATOM     19  C   UNL     1      17.598  -6.077  27.092  0.00  0.00    +0.000 A 
ATOM     20  C   UNL     1      17.092  -7.289  26.684  0.00  0.00    +0.000 A 
ENDBRANCH  12  14
ENDBRANCH   6  12
TORSDOF 3
ENDMDL
