MODEL 1
REMARK VINA RESULT:      -6.4      0.000      0.000
REMARK  Name = 
REMARK  4 active torsions:
REMARK  status: ('A' for Active; 'I' for Inactive)
REMARK    1  A    between atoms: C_2  and  O_3
REMARK    2  A    between atoms: O_3  and  C_4
REMARK    3  A    between atoms: C_4  and  C_6
REMARK    4  A    between atoms: C_11  and  N_12
REMARK                            x       y       z     vdW  Elec       q    Type
REMARK                         _______ _______ _______ _____ _____    ______ ____
ROOT
ATOM      1  C   UNL     1      30.052  22.923  11.054  0.00  0.00    +0.000 C 
ATOM      2  N   UNL     1      29.863  21.932   9.889  0.00  0.00    +0.000 NA
ATOM      3  C   UNL     1      31.013  21.345   9.346  0.00  0.00    +0.000 A 
ATOM      4  C   UNL     1      30.882  20.659   8.162  0.00  0.00    +0.000 A 
ATOM      5  C   UNL     1      31.992  20.045   7.563  0.00  0.00    +0.000 A 
ATOM      6  C   UNL     1      33.219  20.137   8.173  0.00  0.00    +0.000 A 
ATOM      7  C   UNL     1      33.292  20.835   9.355  0.00  0.00    +0.000 A 
ATOM      8  C   UNL     1      32.164  21.441   9.937  0.00  0.00    +0.000 A 
ATOM      9  C   UNL     1      32.459  22.200  11.297  0.00  0.00    +0.000 C 
ATOM     10  C   UNL     1      33.051  20.934  12.051  0.00  0.00    +0.000 C 
ATOM     11  C   UNL     1      32.121  20.042  12.204  0.00  0.00    +0.000 C 
ATOM     12  C   UNL     1      30.798  20.513  11.618  0.00  0.00    +0.000 C 
ATOM     13  C   UNL     1      31.009  22.029  12.109  0.00  0.00    +0.000 C 
ENDROOT
BRANCH   6  14
ATOM     14  N   UNL     1      34.352  19.519   7.575  0.00  0.00    +0.000 N 
ATOM     15  O   UNL     1      35.029  18.618   8.098  0.00  0.00    +0.000 OA
ATOM     16  O   UNL     1      34.785  19.898   6.331  0.00  0.00    +0.000 OA
ENDBRANCH   6  14
BRANCH   1  17
ATOM     17  C   UNL     1      28.704  22.594  11.813  0.00  0.00    +0.000 C 
ATOM     18  O   UNL     1      27.706  22.200  11.240  0.00  0.00    +0.000 OA
BRANCH  17  19
ATOM     19  O   UNL     1      28.688  22.772  13.178  0.00  0.00    +0.000 OA
BRANCH  19  21
ATOM     20  C   UNL     1      28.659  24.778  14.409  0.00  0.00    +0.000 C 
ATOM     21  C   UNL     1      27.817  23.635  13.876  0.00  0.00    +0.000 C 
ENDBRANCH  19  21
ENDBRANCH  17  19
ENDBRANCH   1  17
TORSDOF 4
ENDMDL
MODEL 2
REMARK VINA RESULT:      -6.3     12.541     16.127
REMARK  Name = 
REMARK  4 active torsions:
REMARK  status: ('A' for Active; 'I' for Inactive)
REMARK    1  A    between atoms: C_2  and  O_3
REMARK    2  A    between atoms: O_3  and  C_4
REMARK    3  A    between atoms: C_4  and  C_6
REMARK    4  A    between atoms: C_11  and  N_12
REMARK                            x       y       z     vdW  Elec       q    Type
REMARK                         _______ _______ _______ _____ _____    ______ ____
ROOT
ATOM      1  C   UNL     1      28.670  23.040  22.880  0.00  0.00    +0.000 C 
ATOM      2  N   UNL     1      27.535  23.633  23.737  0.00  0.00    +0.000 NA
ATOM      3  C   UNL     1      27.561  23.374  25.113  0.00  0.00    +0.000 A 
ATOM      4  C   UNL     1      26.438  23.683  25.844  0.00  0.00    +0.000 A 
ATOM      5  C   UNL     1      26.396  23.451  27.227  0.00  0.00    +0.000 A 
ATOM      6  C   UNL     1      27.494  22.909  27.849  0.00  0.00    +0.000 A 
ATOM      7  C   UNL     1      28.590  22.620  27.070  0.00  0.00    +0.000 A 
ATOM      8  C   UNL     1      28.608  22.862  25.685  0.00  0.00    +0.000 A 
ATOM      9  C   UNL     1      29.963  22.457  24.969  0.00  0.00    +0.000 C 
ATOM     10  C   UNL     1      30.890  23.385  25.863  0.00  0.00    +0.000 C 
ATOM     11  C   UNL     1      30.599  24.631  25.646  0.00  0.00    +0.000 C 
ATOM     12  C   UNL     1      29.486  24.771  24.618  0.00  0.00    +0.000 C 
ATOM     13  C   UNL     1      30.034  23.560  23.716  0.00  0.00    +0.000 C 
ENDROOT
BRANCH   6  14
ATOM     14  N   UNL     1      27.464  22.669  29.250  0.00  0.00    +0.000 N 
ATOM     15  O   UNL     1      28.467  22.513  29.967  0.00  0.00    +0.000 OA
ATOM     16  O   UNL     1      26.273  22.590  29.925  0.00  0.00    +0.000 OA
ENDBRANCH   6  14
BRANCH   1  17
ATOM     17  C   UNL     1      28.738  24.205  21.812  0.00  0.00    +0.000 C 
ATOM     18  O   UNL     1      29.699  24.376  21.085  0.00  0.00    +0.000 OA
BRANCH  17  19
ATOM     19  O   UNL     1      27.652  25.046  21.724  0.00  0.00    +0.000 OA
BRANCH  19  21
ATOM     20  C   UNL     1      27.240  27.150  22.698  0.00  0.00    +0.000 C 
ATOM     21  C   UNL     1      27.713  26.429  21.450  0.00  0.00    +0.000 C 
ENDBRANCH  19  21
ENDBRANCH  17  19
ENDBRANCH   1  17
TORSDOF 4
ENDMDL
MODEL 3
REMARK VINA RESULT:      -6.2      1.684      3.062
REMARK  Name = 
REMARK  4 active torsions:
REMARK  status: ('A' for Active; 'I' for Inactive)
REMARK    1  A    between atoms: C_2  and  O_3
REMARK    2  A    between atoms: O_3  and  C_4
REMARK    3  A    between atoms: C_4  and  C_6
REMARK    4  A    between atoms: C_11  and  N_12
REMARK                            x       y       z     vdW  Elec       q    Type
REMARK                         _______ _______ _______ _____ _____    ______ ____
ROOT
ATOM      1  C   UNL     1      30.080  21.076  11.697  0.00  0.00    +0.000 C 
ATOM      2  N   UNL     1      31.477  21.119  12.347  0.00  0.00    +0.000 NA
ATOM      3  C   UNL     1      32.559  20.661  11.585  0.00  0.00    +0.000 A 
ATOM      4  C   UNL     1      33.757  20.465  12.231  0.00  0.00    +0.000 A 
ATOM      5  C   UNL     1      34.883  20.009  11.529  0.00  0.00    +0.000 A 
ATOM      6  C   UNL     1      34.777  19.758  10.183  0.00  0.00    +0.000 A 
ATOM      7  C   UNL     1      33.556  19.971   9.589  0.00  0.00    +0.000 A 
ATOM      8  C   UNL     1      32.441  20.430  10.314  0.00  0.00    +0.000 A 
ATOM      9  C   UNL     1      31.126  20.609   9.447  0.00  0.00    +0.000 C 
ATOM     10  C   UNL     1      31.767  21.628   8.411  0.00  0.00    +0.000 C 
ATOM     11  C   UNL     1      32.080  22.731   9.020  0.00  0.00    +0.000 C 
ATOM     12  C   UNL     1      31.727  22.668  10.499  0.00  0.00    +0.000 C 
ATOM     13  C   UNL     1      30.360  21.865  10.238  0.00  0.00    +0.000 C 
ENDROOT
BRANCH   6  14
ATOM     14  N   UNL     1      35.911  19.295   9.460  0.00  0.00    +0.000 N 
ATOM     15  O   UNL     1      36.229  19.670   8.319  0.00  0.00    +0.000 OA
ATOM     16  O   UNL     1      36.760  18.365  10.003  0.00  0.00    +0.000 OA
ENDBRANCH   6  14
BRANCH   1  17
ATOM     17  C   UNL     1      29.491  22.358  12.411  0.00  0.00    +0.000 C 
ATOM     18  O   UNL     1      29.803  22.684  13.541  0.00  0.00    +0.000 OA
BRANCH  17  19
ATOM     19  O   UNL     1      28.588  23.117  11.703  0.00  0.00    +0.000 OA
BRANCH  19  21
ATOM     20  C   UNL     1      26.464  22.209  11.247  0.00  0.00    +0.000 C 
ATOM     21  C   UNL     1      27.222  23.268  12.024  0.00  0.00    +0.000 C 
ENDBRANCH  19  21
ENDBRANCH  17  19
ENDBRANCH   1  17
TORSDOF 4
ENDMDL
MODEL 4
REMARK VINA RESULT:      -6.2     14.143     16.698
REMARK  Name = 
REMARK  4 active torsions:
REMARK  status: ('A' for Active; 'I' for Inactive)
REMARK    1  A    between atoms: C_2  and  O_3
REMARK    2  A    between atoms: O_3  and  C_4
REMARK    3  A    between atoms: C_4  and  C_6
REMARK    4  A    between atoms: C_11  and  N_12
REMARK                            x       y       z     vdW  Elec       q    Type
REMARK                         _______ _______ _______ _____ _____    ______ ____
ROOT
ATOM      1  C   UNL     1      29.668  24.293  28.107  0.00  0.00    +0.000 C 
ATOM      2  N   UNL     1      28.344  23.568  27.796  0.00  0.00    +0.000 NA
ATOM      3  C   UNL     1      27.898  23.577  26.469  0.00  0.00    +0.000 A 
ATOM      4  C   UNL     1      26.613  23.154  26.223  0.00  0.00    +0.000 A 
ATOM      5  C   UNL     1      26.101  23.135  24.917  0.00  0.00    +0.000 A 
ATOM      6  C   UNL     1      26.901  23.547  23.878  0.00  0.00    +0.000 A 
ATOM      7  C   UNL     1      28.177  23.959  24.181  0.00  0.00    +0.000 A 
ATOM      8  C   UNL     1      28.667  23.968  25.500  0.00  0.00    +0.000 A 
ATOM      9  C   UNL     1      30.161  24.481  25.638  0.00  0.00    +0.000 C 
ATOM     10  C   UNL     1      30.783  23.399  24.657  0.00  0.00    +0.000 C 
ATOM     11  C   UNL     1      30.646  22.215  25.169  0.00  0.00    +0.000 C 
ATOM     12  C   UNL     1      29.946  22.272  26.519  0.00  0.00    +0.000 C 
ATOM     13  C   UNL     1      30.701  23.619  26.963  0.00  0.00    +0.000 C 
ENDROOT
BRANCH   6  14
ATOM     14  N   UNL     1      26.394  23.533  22.549  0.00  0.00    +0.000 N 
ATOM     15  O   UNL     1      26.861  24.190  21.603  0.00  0.00    +0.000 OA
ATOM     16  O   UNL     1      25.312  22.761  22.217  0.00  0.00    +0.000 OA
ENDBRANCH   6  14
BRANCH   1  17
ATOM     17  C   UNL     1      30.146  23.337  29.272  0.00  0.00    +0.000 C 
ATOM     18  O   UNL     1      29.378  22.648  29.916  0.00  0.00    +0.000 OA
BRANCH  17  19
ATOM     19  O   UNL     1      31.494  23.303  29.550  0.00  0.00    +0.000 OA
BRANCH  19  21
ATOM     20  C   UNL     1      32.837  21.395  29.240  0.00  0.00    +0.000 C 
ATOM     21  C   UNL     1      32.154  22.281  30.264  0.00  0.00    +0.000 C 
ENDBRANCH  19  21
ENDBRANCH  17  19
ENDBRANCH   1  17
TORSDOF 4
ENDMDL
MODEL 5
REMARK VINA RESULT:      -5.9     12.602     16.086
REMARK  Name = 
REMARK  4 active torsions:
REMARK  status: ('A' for Active; 'I' for Inactive)
REMARK    1  A    between atoms: C_2  and  O_3
REMARK    2  A    between atoms: O_3  and  C_4
REMARK    3  A    between atoms: C_4  and  C_6
REMARK    4  A    between atoms: C_11  and  N_12
REMARK                            x       y       z     vdW  Elec       q    Type
REMARK                         _______ _______ _______ _____ _____    ______ ____
ROOT
ATOM      1  C   UNL     1      28.103  23.073  23.852  0.00  0.00    +0.000 C 
ATOM      2  N   UNL     1      27.821  23.515  25.301  0.00  0.00    +0.000 NA
ATOM      3  C   UNL     1      28.758  23.161  26.279  0.00  0.00    +0.000 A 
ATOM      4  C   UNL     1      28.403  23.331  27.597  0.00  0.00    +0.000 A 
ATOM      5  C   UNL     1      29.294  22.998  28.628  0.00  0.00    +0.000 A 
ATOM      6  C   UNL     1      30.532  22.498  28.308  0.00  0.00    +0.000 A 
ATOM      7  C   UNL     1      30.835  22.349  26.975  0.00  0.00    +0.000 A 
ATOM      8  C   UNL     1      29.924  22.690  25.959  0.00  0.00    +0.000 A 
ATOM      9  C   UNL     1      30.463  22.441  24.489  0.00  0.00    +0.000 C 
ATOM     10  C   UNL     1      31.742  23.370  24.637  0.00  0.00    +0.000 C 
ATOM     11  C   UNL     1      31.369  24.603  24.797  0.00  0.00    +0.000 C 
ATOM     12  C   UNL     1      29.853  24.731  24.784  0.00  0.00    +0.000 C 
ATOM     13  C   UNL     1      29.673  23.633  23.625  0.00  0.00    +0.000 C 
ENDROOT
BRANCH   6  14
ATOM     14  N   UNL     1      31.444  22.156  29.345  0.00  0.00    +0.000 N 
ATOM     15  O   UNL     1      31.163  22.117  30.555  0.00  0.00    +0.000 OA
ATOM     16  O   UNL     1      32.746  21.838  29.059  0.00  0.00    +0.000 OA
ENDBRANCH   6  14
BRANCH   1  17
ATOM     17  C   UNL     1      27.433  24.313  23.134  0.00  0.00    +0.000 C 
ATOM     18  O   UNL     1      26.595  25.012  23.672  0.00  0.00    +0.000 OA
BRANCH  17  19
ATOM     19  O   UNL     1      27.833  24.590  21.846  0.00  0.00    +0.000 OA
BRANCH  19  21
ATOM     20  C   UNL     1      29.363  26.006  20.753  0.00  0.00    +0.000 C 
ATOM     21  C   UNL     1      27.950  25.882  21.290  0.00  0.00    +0.000 C 
ENDBRANCH  19  21
ENDBRANCH  17  19
ENDBRANCH   1  17
TORSDOF 4
ENDMDL
MODEL 6
REMARK VINA RESULT:      -5.8     13.739     17.126
REMARK  Name = 
REMARK  4 active torsions:
REMARK  status: ('A' for Active; 'I' for Inactive)
REMARK    1  A    between atoms: C_2  and  O_3
REMARK    2  A    between atoms: O_3  and  C_4
REMARK    3  A    between atoms: C_4  and  C_6
REMARK    4  A    between atoms: C_11  and  N_12
REMARK                            x       y       z     vdW  Elec       q    Type
REMARK                         _______ _______ _______ _____ _____    ______ ____
ROOT
ATOM      1  C   UNL     1      28.074  22.467  28.553  0.00  0.00    +0.000 C 
ATOM      2  N   UNL     1      28.984  22.588  27.315  0.00  0.00    +0.000 NA
ATOM      3  C   UNL     1      28.374  22.883  26.090  0.00  0.00    +0.000 A 
ATOM      4  C   UNL     1      29.132  22.751  24.950  0.00  0.00    +0.000 A 
ATOM      5  C   UNL     1      28.584  23.032  23.689  0.00  0.00    +0.000 A 
ATOM      6  C   UNL     1      27.276  23.442  23.603  0.00  0.00    +0.000 A 
ATOM      7  C   UNL     1      26.565  23.557  24.774  0.00  0.00    +0.000 A 
ATOM      8  C   UNL     1      27.137  23.270  26.027  0.00  0.00    +0.000 A 
ATOM      9  C   UNL     1      26.151  23.462  27.254  0.00  0.00    +0.000 C 
ATOM     10  C   UNL     1      25.831  24.987  26.953  0.00  0.00    +0.000 C 
ATOM     11  C   UNL     1      26.907  25.697  27.101  0.00  0.00    +0.000 C 
ATOM     12  C   UNL     1      28.090  24.833  27.511  0.00  0.00    +0.000 C 
ATOM     13  C   UNL     1      27.202  23.903  28.475  0.00  0.00    +0.000 C 
ENDROOT
BRANCH   6  14
ATOM     14  N   UNL     1      26.709  23.729  22.330  0.00  0.00    +0.000 N 
ATOM     15  O   UNL     1      27.116  24.609  21.553  0.00  0.00    +0.000 OA
ATOM     16  O   UNL     1      25.631  23.023  21.864  0.00  0.00    +0.000 OA
ENDBRANCH   6  14
BRANCH   1  17
ATOM     17  C   UNL     1      29.110  23.018  29.613  0.00  0.00    +0.000 C 
ATOM     18  O   UNL     1      28.769  23.560  30.647  0.00  0.00    +0.000 OA
BRANCH  17  19
ATOM     19  O   UNL     1      30.448  22.866  29.328  0.00  0.00    +0.000 OA
BRANCH  19  21
ATOM     20  C   UNL     1      32.358  21.498  29.177  0.00  0.00    +0.000 C 
ATOM     21  C   UNL     1      31.376  22.160  30.124  0.00  0.00    +0.000 C 
ENDBRANCH  19  21
ENDBRANCH  17  19
ENDBRANCH   1  17
TORSDOF 4
ENDMDL
MODEL 7
REMARK VINA RESULT:      -5.7     12.898     15.767
REMARK  Name = 
REMARK  4 active torsions:
REMARK  status: ('A' for Active; 'I' for Inactive)
REMARK    1  A    between atoms: C_2  and  O_3
REMARK    2  A    between atoms: O_3  and  C_4
REMARK    3  A    between atoms: C_4  and  C_6
REMARK    4  A    between atoms: C_11  and  N_12
REMARK                            x       y       z     vdW  Elec       q    Type
REMARK                         _______ _______ _______ _____ _____    ______ ____
ROOT
ATOM      1  C   UNL     1      29.666  24.415  27.566  0.00  0.00    +0.000 C 
ATOM      2  N   UNL     1      28.424  24.515  26.660  0.00  0.00    +0.000 NA
ATOM      3  C   UNL     1      28.633  24.796  25.304  0.00  0.00    +0.000 A 
ATOM      4  C   UNL     1      27.536  25.129  24.543  0.00  0.00    +0.000 A 
ATOM      5  C   UNL     1      27.673  25.420  23.178  0.00  0.00    +0.000 A 
ATOM      6  C   UNL     1      28.920  25.370  22.604  0.00  0.00    +0.000 A 
ATOM      7  C   UNL     1      29.980  25.032  23.411  0.00  0.00    +0.000 A 
ATOM      8  C   UNL     1      29.818  24.743  24.778  0.00  0.00    +0.000 A 
ATOM      9  C   UNL     1      31.163  24.378  25.533  0.00  0.00    +0.000 C 
ATOM     10  C   UNL     1      31.538  23.157  24.590  0.00  0.00    +0.000 C 
ATOM     11  C   UNL     1      30.656  22.214  24.723  0.00  0.00    +0.000 C 
ATOM     12  C   UNL     1      29.580  22.600  25.728  0.00  0.00    +0.000 C 
ATOM     13  C   UNL     1      30.622  23.325  26.712  0.00  0.00    +0.000 C 
ENDROOT
BRANCH   6  14
ATOM     14  N   UNL     1      29.072  25.664  21.220  0.00  0.00    +0.000 N 
ATOM     15  O   UNL     1      28.628  26.678  20.655  0.00  0.00    +0.000 OA
ATOM     16  O   UNL     1      29.746  24.807  20.389  0.00  0.00    +0.000 OA
ENDBRANCH   6  14
BRANCH   1  17
ATOM     17  C   UNL     1      29.099  23.320  28.557  0.00  0.00    +0.000 C 
ATOM     18  O   UNL     1      29.816  22.645  29.272  0.00  0.00    +0.000 OA
BRANCH  17  19
ATOM     19  O   UNL     1      27.735  23.144  28.589  0.00  0.00    +0.000 OA
BRANCH  19  21
ATOM     20  C   UNL     1      26.077  23.839  30.109  0.00  0.00    +0.000 C 
ATOM     21  C   UNL     1      26.997  22.702  29.709  0.00  0.00    +0.000 C 
ENDBRANCH  19  21
ENDBRANCH  17  19
ENDBRANCH   1  17
TORSDOF 4
ENDMDL
MODEL 8
REMARK VINA RESULT:      -5.6     13.304     16.396
REMARK  Name = 
REMARK  4 active torsions:
REMARK  status: ('A' for Active; 'I' for Inactive)
REMARK    1  A    between atoms: C_2  and  O_3
REMARK    2  A    between atoms: O_3  and  C_4
REMARK    3  A    between atoms: C_4  and  C_6
REMARK    4  A    between atoms: C_11  and  N_12
REMARK                            x       y       z     vdW  Elec       q    Type
REMARK                         _______ _______ _______ _____ _____    ______ ____
ROOT
ATOM      1  C   UNL     1      30.549  21.945  27.496  0.00  0.00    +0.000 C 
ATOM      2  N   UNL     1      30.922  22.723  26.219  0.00  0.00    +0.000 NA
ATOM      3  C   UNL     1      29.903  22.964  25.288  0.00  0.00    +0.000 A 
ATOM      4  C   UNL     1      30.268  23.433  24.048  0.00  0.00    +0.000 A 
ATOM      5  C   UNL     1      29.300  23.698  23.068  0.00  0.00    +0.000 A 
ATOM      6  C   UNL     1      27.975  23.483  23.360  0.00  0.00    +0.000 A 
ATOM      7  C   UNL     1      27.667  23.014  24.616  0.00  0.00    +0.000 A 
ATOM      8  C   UNL     1      28.657  22.757  25.582  0.00  0.00    +0.000 A 
ATOM      9  C   UNL     1      28.096  22.219  26.963  0.00  0.00    +0.000 C 
ATOM     10  C   UNL     1      27.146  23.461  27.235  0.00  0.00    +0.000 C 
ATOM     11  C   UNL     1      27.863  24.530  27.405  0.00  0.00    +0.000 C 
ATOM     12  C   UNL     1      29.349  24.225  27.289  0.00  0.00    +0.000 C 
ATOM     13  C   UNL     1      29.219  22.815  28.047  0.00  0.00    +0.000 C 
ENDROOT
BRANCH   6  14
ATOM     14  N   UNL     1      26.983  23.748  22.376  0.00  0.00    +0.000 N 
ATOM     15  O   UNL     1      25.933  23.099  22.231  0.00  0.00    +0.000 OA
ATOM     16  O   UNL     1      27.133  24.780  21.486  0.00  0.00    +0.000 OA
ENDBRANCH   6  14
BRANCH   1  17
ATOM     17  C   UNL     1      31.569  22.664  28.468  0.00  0.00    +0.000 C 
ATOM     18  O   UNL     1      31.454  22.638  29.679  0.00  0.00    +0.000 OA
BRANCH  17  19
ATOM     19  O   UNL     1      32.619  23.342  27.893  0.00  0.00    +0.000 OA
BRANCH  19  21
ATOM     20  C   UNL     1      32.837  25.627  27.370  0.00  0.00    +0.000 C 
ATOM     21  C   UNL     1      33.175  24.545  28.377  0.00  0.00    +0.000 C 
ENDBRANCH  19  21
ENDBRANCH  17  19
ENDBRANCH   1  17
TORSDOF 4
ENDMDL
MODEL 9
REMARK VINA RESULT:      -5.5     32.538     33.758
REMARK  Name = 
REMARK  4 active torsions:
REMARK  status: ('A' for Active; 'I' for Inactive)
REMARK    1  A    between atoms: C_2  and  O_3
REMARK    2  A    between atoms: O_3  and  C_4
REMARK    3  A    between atoms: C_4  and  C_6
REMARK    4  A    between atoms: C_11  and  N_12
REMARK                            x       y       z     vdW  Elec       q    Type
REMARK                         _______ _______ _______ _____ _____    ______ ____
ROOT
ATOM      1  C   UNL     1      21.257  -8.531  25.874  0.00  0.00    +0.000 C 
ATOM      2  N   UNL     1      21.958  -7.320  25.228  0.00  0.00    +0.000 NA
ATOM      3  C   UNL     1      23.191  -7.543  24.603  0.00  0.00    +0.000 A 
ATOM      4  C   UNL     1      23.934  -6.443  24.245  0.00  0.00    +0.000 A 
ATOM      5  C   UNL     1      25.178  -6.593  23.614  0.00  0.00    +0.000 A 
ATOM      6  C   UNL     1      25.650  -7.857  23.356  0.00  0.00    +0.000 A 
ATOM      7  C   UNL     1      24.865  -8.920  23.735  0.00  0.00    +0.000 A 
ATOM      8  C   UNL     1      23.621  -8.744  24.366  0.00  0.00    +0.000 A 
ATOM      9  C   UNL     1      22.873 -10.095  24.725  0.00  0.00    +0.000 C 
ATOM     10  C   UNL     1      22.842 -10.650  23.238  0.00  0.00    +0.000 C 
ATOM     11  C   UNL     1      22.097  -9.884  22.502  0.00  0.00    +0.000 C 
ATOM     12  C   UNL     1      21.515  -8.733  23.310  0.00  0.00    +0.000 C 
ATOM     13  C   UNL     1      21.269  -9.642  24.611  0.00  0.00    +0.000 C 
ENDROOT
BRANCH   6  14
ATOM     14  N   UNL     1      26.910  -8.023  22.717  0.00  0.00    +0.000 N 
ATOM     15  O   UNL     1      27.480  -9.113  22.541  0.00  0.00    +0.000 OA
ATOM     16  O   UNL     1      27.602  -6.942  22.236  0.00  0.00    +0.000 OA
ENDBRANCH   6  14
BRANCH   1  17
ATOM     17  C   UNL     1      19.770  -8.065  25.604  0.00  0.00    +0.000 C 
ATOM     18  O   UNL     1      18.868  -8.846  25.366  0.00  0.00    +0.000 OA
BRANCH  17  19
ATOM     19  O   UNL     1      19.514  -6.713  25.645  0.00  0.00    +0.000 OA
BRANCH  19  21
ATOM     20  C   UNL     1      18.930  -4.693  26.702  0.00  0.00    +0.000 C 
ATOM     21  C   UNL     1      18.475  -6.103  26.379  0.00  0.00    +0.000 C 
ENDBRANCH  19  21
ENDBRANCH  17  19
ENDBRANCH   1  17
TORSDOF 4
ENDMDL
MODEL 10
REMARK VINA RESULT:      -5.4     14.097     16.251
REMARK  Name = 
REMARK  4 active torsions:
REMARK  status: ('A' for Active; 'I' for Inactive)
REMARK    1  A    between atoms: C_2  and  O_3
REMARK    2  A    between atoms: O_3  and  C_4
REMARK    3  A    between atoms: C_4  and  C_6
REMARK    4  A    between atoms: C_11  and  N_12
REMARK                            x       y       z     vdW  Elec       q    Type
REMARK                         _______ _______ _______ _____ _____    ______ ____
ROOT
ATOM      1  C   UNL     1      28.903  22.273  26.694  0.00  0.00    +0.000 C 
ATOM      2  N   UNL     1      29.896  23.227  27.387  0.00  0.00    +0.000 NA
ATOM      3  C   UNL     1      31.028  23.619  26.662  0.00  0.00    +0.000 A 
ATOM      4  C   UNL     1      32.033  24.262  27.345  0.00  0.00    +0.000 A 
ATOM      5  C   UNL     1      33.195  24.685  26.681  0.00  0.00    +0.000 A 
ATOM      6  C   UNL     1      33.320  24.448  25.334  0.00  0.00    +0.000 A 
ATOM      7  C   UNL     1      32.284  23.802  24.701  0.00  0.00    +0.000 A 
ATOM      8  C   UNL     1      31.129  23.389  25.389  0.00  0.00    +0.000 A 
ATOM      9  C   UNL     1      30.054  22.659  24.480  0.00  0.00    +0.000 C 
ATOM     10  C   UNL     1      29.879  23.861  23.458  0.00  0.00    +0.000 C 
ATOM     11  C   UNL     1      29.360  24.882  24.070  0.00  0.00    +0.000 C 
ATOM     12  C   UNL     1      29.099  24.576  25.537  0.00  0.00    +0.000 C 
ATOM     13  C   UNL     1      28.624  23.070  25.240  0.00  0.00    +0.000 C 
ENDROOT
BRANCH   6  14
ATOM     14  N   UNL     1      34.493  24.872  24.649  0.00  0.00    +0.000 N 
ATOM     15  O   UNL     1      34.883  26.049  24.568  0.00  0.00    +0.000 OA
ATOM     16  O   UNL     1      35.299  23.967  24.009  0.00  0.00    +0.000 OA
ENDBRANCH   6  14
BRANCH   1  17
ATOM     17  C   UNL     1      27.589  22.823  27.382  0.00  0.00    +0.000 C 
ATOM     18  O   UNL     1      26.563  23.038  26.764  0.00  0.00    +0.000 OA
BRANCH  17  19
ATOM     19  O   UNL     1      27.638  23.063  28.736  0.00  0.00    +0.000 OA
BRANCH  19  21
ATOM     20  C   UNL     1      26.494  21.699  30.277  0.00  0.00    +0.000 C 
ATOM     21  C   UNL     1      26.526  23.058  29.605  0.00  0.00    +0.000 C 
ENDBRANCH  19  21
ENDBRANCH  17  19
ENDBRANCH   1  17
TORSDOF 4
ENDMDL
