MODEL 1
REMARK VINA RESULT:      -7.4      0.000      0.000
REMARK  Name = 
REMARK  8 active torsions:
REMARK  status: ('A' for Active; 'I' for Inactive)
REMARK    1  A    between atoms: C_2  and  O_3
REMARK    2  A    between atoms: O_3  and  C_4
REMARK    3  A    between atoms: C_7  and  N_8
REMARK    4  A    between atoms: C_11  and  C_12
REMARK    5  A    between atoms: C_12  and  O_14
REMARK    6  A    between atoms: O_14  and  C_15
REMARK    7  A    between atoms: C_15  and  C_16
REMARK    8  A    between atoms: C_16  and  C_18
REMARK                            x       y       z     vdW  Elec       q    Type
REMARK                         _______ _______ _______ _____ _____    ______ ____
ROOT
ATOM      1  N   UNL     1      35.833  -2.712  15.936  0.00  0.00    +0.000 N 
ATOM      2  C   UNL     1      35.297  -1.736  16.691  0.00  0.00    +0.000 A 
ATOM      3  N   UNL     1      34.030  -1.845  17.335  0.00  0.00    +0.000 NA
ATOM      4  C   UNL     1      36.109  -0.629  16.769  0.00  0.00    +0.000 A 
ATOM      5  C   UNL     1      37.224  -0.956  16.002  0.00  0.00    +0.000 A 
ATOM      6  N   UNL     1      38.322  -0.251  15.732  0.00  0.00    +0.000 NA
ATOM      7  C   UNL     1      39.268  -0.831  14.939  0.00  0.00    +0.000 A 
ATOM      8  C   UNL     1      40.433  -0.139  14.626  0.00  0.00    +0.000 A 
ATOM      9  C   UNL     1      41.392  -0.712  13.829  0.00  0.00    +0.000 A 
ATOM     10  C   UNL     1      41.191  -1.971  13.344  0.00  0.00    +0.000 A 
ATOM     11  C   UNL     1      40.040  -2.651  13.654  0.00  0.00    +0.000 A 
ATOM     12  C   UNL     1      39.059  -2.101  14.453  0.00  0.00    +0.000 A 
ATOM     13  N   UNL     1      37.927  -2.816  14.736  0.00  0.00    +0.000 NA
ATOM     14  C   UNL     1      37.011  -2.229  15.518  0.00  0.00    +0.000 A 
ENDROOT
BRANCH   1  18
ATOM     15  C   UNL     1      34.141  -6.435  14.963  0.00  0.00    +0.000 A 
ATOM     16  C   UNL     1      35.123  -6.388  15.926  0.00  0.00    +0.000 A 
ATOM     17  C   UNL     1      35.670  -5.156  16.235  0.00  0.00    +0.000 A 
ATOM     18  C   UNL     1      35.286  -3.985  15.634  0.00  0.00    +0.000 A 
ATOM     19  C   UNL     1      34.305  -4.055  14.676  0.00  0.00    +0.000 A 
ATOM     20  C   UNL     1      33.731  -5.280  14.339  0.00  0.00    +0.000 A 
BRANCH  15  21
ATOM     21  O   UNL     1      33.533  -7.646  14.589  0.00  0.00    +0.000 OA
BRANCH  21  23
ATOM     22  C   UNL     1      33.350  -8.412  12.337  0.00  0.00    +0.000 C 
ATOM     23  C   UNL     1      34.148  -8.470  13.616  0.00  0.00    +0.000 C 
ENDBRANCH  21  23
ENDBRANCH  15  21
ENDBRANCH   1  18
BRANCH   4  24
ATOM     24  C   UNL     1      35.862   0.629  17.500  0.00  0.00    +0.000 C 
ATOM     25  O   UNL     1      36.571   0.849  18.506  0.00  0.00    +0.000 OA
BRANCH  24  26
ATOM     26  O   UNL     1      34.919   1.540  17.142  0.00  0.00    +0.000 OA
BRANCH  26  27
ATOM     27  C   UNL     1      34.784   2.378  16.152  0.00  0.00    +0.000 C 
BRANCH  27  28
ATOM     28  C   UNL     1      36.043   2.800  15.266  0.00  0.00    +0.000 C 
ATOM     29  C   UNL     1      35.244   4.059  14.515  0.00  0.00    +0.000 C 
BRANCH  28  30
ATOM     30  C   UNL     1      35.881   1.835  13.970  0.00  0.00    +0.000 C 
ATOM     31  C   UNL     1      37.190   1.977  13.221  0.00  0.00    +0.000 C 
ENDBRANCH  28  30
ENDBRANCH  27  28
ENDBRANCH  26  27
ENDBRANCH  24  26
ENDBRANCH   4  24
TORSDOF 8
ENDMDL
MODEL 2
REMARK VINA RESULT:      -6.9      2.207      7.492
REMARK  Name = 
REMARK  8 active torsions:
REMARK  status: ('A' for Active; 'I' for Inactive)
REMARK    1  A    between atoms: C_2  and  O_3
REMARK    2  A    between atoms: O_3  and  C_4
REMARK    3  A    between atoms: C_7  and  N_8
REMARK    4  A    between atoms: C_11  and  C_12
REMARK    5  A    between atoms: C_12  and  O_14
REMARK    6  A    between atoms: O_14  and  C_15
REMARK    7  A    between atoms: C_15  and  C_16
REMARK    8  A    between atoms: C_16  and  C_18
REMARK                            x       y       z     vdW  Elec       q    Type
REMARK                         _______ _______ _______ _____ _____    ______ ____
ROOT
ATOM      1  N   UNL     1      36.693   1.598  15.684  0.00  0.00    +0.000 N 
ATOM      2  C   UNL     1      35.771   1.001  16.461  0.00  0.00    +0.000 A 
ATOM      3  N   UNL     1      34.574   1.642  16.896  0.00  0.00    +0.000 NA
ATOM      4  C   UNL     1      36.115  -0.290  16.786  0.00  0.00    +0.000 A 
ATOM      5  C   UNL     1      37.341  -0.495  16.157  0.00  0.00    +0.000 A 
ATOM      6  N   UNL     1      38.130  -1.568  16.135  0.00  0.00    +0.000 NA
ATOM      7  C   UNL     1      39.293  -1.485  15.426  0.00  0.00    +0.000 A 
ATOM      8  C   UNL     1      40.153  -2.577  15.370  0.00  0.00    +0.000 A 
ATOM      9  C   UNL     1      41.326  -2.505  14.660  0.00  0.00    +0.000 A 
ATOM     10  C   UNL     1      41.641  -1.349  14.008  0.00  0.00    +0.000 A 
ATOM     11  C   UNL     1      40.790  -0.274  14.066  0.00  0.00    +0.000 A 
ATOM     12  C   UNL     1      39.605  -0.316  14.771  0.00  0.00    +0.000 A 
ATOM     13  N   UNL     1      38.787   0.781  14.800  0.00  0.00    +0.000 NA
ATOM     14  C   UNL     1      37.650   0.678  15.501  0.00  0.00    +0.000 A 
ENDROOT
BRANCH   1  18
ATOM     15  C   UNL     1      36.705   5.538  14.220  0.00  0.00    +0.000 A 
ATOM     16  C   UNL     1      36.020   4.574  13.515  0.00  0.00    +0.000 A 
ATOM     17  C   UNL     1      36.026   3.283  14.009  0.00  0.00    +0.000 A 
ATOM     18  C   UNL     1      36.674   2.916  15.159  0.00  0.00    +0.000 A 
ATOM     19  C   UNL     1      37.352   3.892  15.847  0.00  0.00    +0.000 A 
ATOM     20  C   UNL     1      37.368   5.205  15.378  0.00  0.00    +0.000 A 
BRANCH  15  21
ATOM     21  O   UNL     1      36.751   6.875  13.787  0.00  0.00    +0.000 OA
BRANCH  21  23
ATOM     22  C   UNL     1      34.632   7.847  14.296  0.00  0.00    +0.000 C 
ATOM     23  C   UNL     1      36.119   7.883  14.554  0.00  0.00    +0.000 C 
ENDBRANCH  21  23
ENDBRANCH  15  21
ENDBRANCH   1  18
BRANCH   4  24
ATOM     24  C   UNL     1      35.361  -1.251  17.612  0.00  0.00    +0.000 C 
ATOM     25  O   UNL     1      35.146  -0.929  18.801  0.00  0.00    +0.000 OA
BRANCH  24  26
ATOM     26  O   UNL     1      34.900  -2.445  17.155  0.00  0.00    +0.000 OA
BRANCH  26  27
ATOM     27  C   UNL     1      34.406  -2.863  16.022  0.00  0.00    +0.000 C 
BRANCH  27  28
ATOM     28  C   UNL     1      35.346  -3.545  14.926  0.00  0.00    +0.000 C 
ATOM     29  C   UNL     1      34.170  -4.609  14.407  0.00  0.00    +0.000 C 
BRANCH  28  30
ATOM     30  C   UNL     1      36.097  -4.693  15.795  0.00  0.00    +0.000 C 
ATOM     31  C   UNL     1      35.157  -5.880  15.753  0.00  0.00    +0.000 C 
ENDBRANCH  28  30
ENDBRANCH  27  28
ENDBRANCH  26  27
ENDBRANCH  24  26
ENDBRANCH   4  24
TORSDOF 8
ENDMDL
MODEL 3
REMARK VINA RESULT:      -6.8      2.929      6.672
REMARK  Name = 
REMARK  8 active torsions:
REMARK  status: ('A' for Active; 'I' for Inactive)
REMARK    1  A    between atoms: C_2  and  O_3
REMARK    2  A    between atoms: O_3  and  C_4
REMARK    3  A    between atoms: C_7  and  N_8
REMARK    4  A    between atoms: C_11  and  C_12
REMARK    5  A    between atoms: C_12  and  O_14
REMARK    6  A    between atoms: O_14  and  C_15
REMARK    7  A    between atoms: C_15  and  C_16
REMARK    8  A    between atoms: C_16  and  C_18
REMARK                            x       y       z     vdW  Elec       q    Type
REMARK                         _______ _______ _______ _____ _____    ______ ____
ROOT
ATOM      1  N   UNL     1      39.904  -1.639  14.826  0.00  0.00    +0.000 N 
ATOM      2  C   UNL     1      39.398  -2.241  15.918  0.00  0.00    +0.000 A 
ATOM      3  N   UNL     1      39.913  -3.456  16.456  0.00  0.00    +0.000 NA
ATOM      4  C   UNL     1      38.333  -1.552  16.450  0.00  0.00    +0.000 A 
ATOM      5  C   UNL     1      38.180  -0.446  15.619  0.00  0.00    +0.000 A 
ATOM      6  N   UNL     1      37.300   0.555  15.668  0.00  0.00    +0.000 NA
ATOM      7  C   UNL     1      37.385   1.519  14.707  0.00  0.00    +0.000 A 
ATOM      8  C   UNL     1      36.491   2.586  14.712  0.00  0.00    +0.000 A 
ATOM      9  C   UNL     1      36.566   3.562  13.750  0.00  0.00    +0.000 A 
ATOM     10  C   UNL     1      37.527   3.476  12.785  0.00  0.00    +0.000 A 
ATOM     11  C   UNL     1      38.406   2.422  12.783  0.00  0.00    +0.000 A 
ATOM     12  C   UNL     1      38.355   1.426  13.737  0.00  0.00    +0.000 A 
ATOM     13  N   UNL     1      39.253   0.394  13.695  0.00  0.00    +0.000 NA
ATOM     14  C   UNL     1      39.154  -0.542  14.649  0.00  0.00    +0.000 A 
ENDROOT
BRANCH   1  18
ATOM     15  C   UNL     1      43.208  -2.816  12.510  0.00  0.00    +0.000 A 
ATOM     16  C   UNL     1      41.962  -3.297  12.175  0.00  0.00    +0.000 A 
ATOM     17  C   UNL     1      40.885  -2.901  12.946  0.00  0.00    +0.000 A 
ATOM     18  C   UNL     1      40.994  -2.058  14.022  0.00  0.00    +0.000 A 
ATOM     19  C   UNL     1      42.245  -1.591  14.339  0.00  0.00    +0.000 A 
ATOM     20  C   UNL     1      43.354  -1.970  13.584  0.00  0.00    +0.000 A 
BRANCH  15  21
ATOM     21  O   UNL     1      44.355  -3.170  11.779  0.00  0.00    +0.000 OA
BRANCH  21  23
ATOM     22  C   UNL     1      45.657  -5.122  11.344  0.00  0.00    +0.000 C 
ATOM     23  C   UNL     1      45.306  -4.050  12.348  0.00  0.00    +0.000 C 
ENDBRANCH  21  23
ENDBRANCH  15  21
ENDBRANCH   1  18
BRANCH   4  24
ATOM     24  C   UNL     1      37.529  -1.899  17.637  0.00  0.00    +0.000 C 
ATOM     25  O   UNL     1      37.878  -1.393  18.726  0.00  0.00    +0.000 OA
BRANCH  24  26
ATOM     26  O   UNL     1      36.451  -2.726  17.606  0.00  0.00    +0.000 OA
BRANCH  26  27
ATOM     27  C   UNL     1      35.299  -2.707  16.993  0.00  0.00    +0.000 C 
BRANCH  27  28
ATOM     28  C   UNL     1      35.215  -2.900  15.410  0.00  0.00    +0.000 C 
ATOM     29  C   UNL     1      33.860  -3.871  15.480  0.00  0.00    +0.000 C 
BRANCH  28  30
ATOM     30  C   UNL     1      36.198  -4.172  15.174  0.00  0.00    +0.000 C 
ATOM     31  C   UNL     1      36.992  -3.816  13.935  0.00  0.00    +0.000 C 
ENDBRANCH  28  30
ENDBRANCH  27  28
ENDBRANCH  26  27
ENDBRANCH  24  26
ENDBRANCH   4  24
TORSDOF 8
ENDMDL
MODEL 4
REMARK VINA RESULT:      -6.8      3.759      6.507
REMARK  Name = 
REMARK  8 active torsions:
REMARK  status: ('A' for Active; 'I' for Inactive)
REMARK    1  A    between atoms: C_2  and  O_3
REMARK    2  A    between atoms: O_3  and  C_4
REMARK    3  A    between atoms: C_7  and  N_8
REMARK    4  A    between atoms: C_11  and  C_12
REMARK    5  A    between atoms: C_12  and  O_14
REMARK    6  A    between atoms: O_14  and  C_15
REMARK    7  A    between atoms: C_15  and  C_16
REMARK    8  A    between atoms: C_16  and  C_18
REMARK                            x       y       z     vdW  Elec       q    Type
REMARK                         _______ _______ _______ _____ _____    ______ ____
ROOT
ATOM      1  N   UNL     1      39.046   0.120  13.917  0.00  0.00    +0.000 N 
ATOM      2  C   UNL     1      39.241   1.440  14.090  0.00  0.00    +0.000 A 
ATOM      3  N   UNL     1      40.303   2.166  13.475  0.00  0.00    +0.000 NA
ATOM      4  C   UNL     1      38.304   2.004  14.924  0.00  0.00    +0.000 A 
ATOM      5  C   UNL     1      37.474   0.947  15.285  0.00  0.00    +0.000 A 
ATOM      6  N   UNL     1      36.403   0.923  16.078  0.00  0.00    +0.000 NA
ATOM      7  C   UNL     1      35.774  -0.274  16.256  0.00  0.00    +0.000 A 
ATOM      8  C   UNL     1      34.651  -0.355  17.073  0.00  0.00    +0.000 A 
ATOM      9  C   UNL     1      34.009  -1.554  17.260  0.00  0.00    +0.000 A 
ATOM     10  C   UNL     1      34.485  -2.670  16.636  0.00  0.00    +0.000 A 
ATOM     11  C   UNL     1      35.594  -2.587  15.831  0.00  0.00    +0.000 A 
ATOM     12  C   UNL     1      36.259  -1.396  15.624  0.00  0.00    +0.000 A 
ATOM     13  N   UNL     1      37.361  -1.360  14.813  0.00  0.00    +0.000 NA
ATOM     14  C   UNL     1      37.963  -0.175  14.650  0.00  0.00    +0.000 A 
ENDROOT
BRANCH   1  18
ATOM     15  C   UNL     1      41.368  -2.580  11.684  0.00  0.00    +0.000 A 
ATOM     16  C   UNL     1      40.361  -1.891  11.047  0.00  0.00    +0.000 A 
ATOM     17  C   UNL     1      39.606  -1.007  11.794  0.00  0.00    +0.000 A 
ATOM     18  C   UNL     1      39.808  -0.781  13.131  0.00  0.00    +0.000 A 
ATOM     19  C   UNL     1      40.817  -1.479  13.748  0.00  0.00    +0.000 A 
ATOM     20  C   UNL     1      41.598  -2.380  13.025  0.00  0.00    +0.000 A 
BRANCH  15  21
ATOM     21  O   UNL     1      42.182  -3.498  10.998  0.00  0.00    +0.000 OA
BRANCH  21  23
ATOM     22  C   UNL     1      42.108  -5.488   9.684  0.00  0.00    +0.000 C 
ATOM     23  C   UNL     1      41.754  -4.022   9.755  0.00  0.00    +0.000 C 
ENDBRANCH  21  23
ENDBRANCH  15  21
ENDBRANCH   1  18
BRANCH   4  24
ATOM     24  C   UNL     1      38.195   3.414  15.345  0.00  0.00    +0.000 C 
ATOM     25  O   UNL     1      37.632   4.200  14.553  0.00  0.00    +0.000 OA
BRANCH  24  26
ATOM     26  O   UNL     1      38.667   3.889  16.527  0.00  0.00    +0.000 OA
BRANCH  26  27
ATOM     27  C   UNL     1      39.063   5.057  16.953  0.00  0.00    +0.000 C 
BRANCH  27  28
ATOM     28  C   UNL     1      39.114   5.380  18.516  0.00  0.00    +0.000 C 
ATOM     29  C   UNL     1      38.329   6.845  18.360  0.00  0.00    +0.000 C 
BRANCH  28  30
ATOM     30  C   UNL     1      40.564   6.095  18.664  0.00  0.00    +0.000 C 
ATOM     31  C   UNL     1      40.592   6.610  20.089  0.00  0.00    +0.000 C 
ENDBRANCH  28  30
ENDBRANCH  27  28
ENDBRANCH  26  27
ENDBRANCH  24  26
ENDBRANCH   4  24
TORSDOF 8
ENDMDL
MODEL 5
REMARK VINA RESULT:      -6.7      4.319      9.632
REMARK  Name = 
REMARK  8 active torsions:
REMARK  status: ('A' for Active; 'I' for Inactive)
REMARK    1  A    between atoms: C_2  and  O_3
REMARK    2  A    between atoms: O_3  and  C_4
REMARK    3  A    between atoms: C_7  and  N_8
REMARK    4  A    between atoms: C_11  and  C_12
REMARK    5  A    between atoms: C_12  and  O_14
REMARK    6  A    between atoms: O_14  and  C_15
REMARK    7  A    between atoms: C_15  and  C_16
REMARK    8  A    between atoms: C_16  and  C_18
REMARK                            x       y       z     vdW  Elec       q    Type
REMARK                         _______ _______ _______ _____ _____    ______ ____
ROOT
ATOM      1  N   UNL     1      38.650   3.879  15.764  0.00  0.00    +0.000 N 
ATOM      2  C   UNL     1      39.434   3.725  14.681  0.00  0.00    +0.000 A 
ATOM      3  N   UNL     1      40.374   4.705  14.246  0.00  0.00    +0.000 NA
ATOM      4  C   UNL     1      39.224   2.523  14.047  0.00  0.00    +0.000 A 
ATOM      5  C   UNL     1      38.237   1.896  14.802  0.00  0.00    +0.000 A 
ATOM      6  N   UNL     1      37.652   0.709  14.642  0.00  0.00    +0.000 NA
ATOM      7  C   UNL     1      36.700   0.346  15.548  0.00  0.00    +0.000 A 
ATOM      8  C   UNL     1      36.058  -0.883  15.428  0.00  0.00    +0.000 A 
ATOM      9  C   UNL     1      35.098  -1.261  16.333  0.00  0.00    +0.000 A 
ATOM     10  C   UNL     1      34.778  -0.417  17.356  0.00  0.00    +0.000 A 
ATOM     11  C   UNL     1      35.413   0.794  17.472  0.00  0.00    +0.000 A 
ATOM     12  C   UNL     1      36.381   1.201  16.577  0.00  0.00    +0.000 A 
ATOM     13  N   UNL     1      36.988   2.418  16.732  0.00  0.00    +0.000 NA
ATOM     14  C   UNL     1      37.920   2.756  15.832  0.00  0.00    +0.000 A 
ENDROOT
BRANCH   1  18
ATOM     15  C   UNL     1      38.431   7.210  18.316  0.00  0.00    +0.000 A 
ATOM     16  C   UNL     1      38.956   6.036  18.807  0.00  0.00    +0.000 A 
ATOM     17  C   UNL     1      39.021   4.949  17.956  0.00  0.00    +0.000 A 
ATOM     18  C   UNL     1      38.592   4.981  16.654  0.00  0.00    +0.000 A 
ATOM     19  C   UNL     1      38.072   6.161  16.184  0.00  0.00    +0.000 A 
ATOM     20  C   UNL     1      37.990   7.278  17.016  0.00  0.00    +0.000 A 
BRANCH  15  21
ATOM     21  O   UNL     1      38.328   8.362  19.116  0.00  0.00    +0.000 OA
BRANCH  21  23
ATOM     22  C   UNL     1      38.582   9.687  21.084  0.00  0.00    +0.000 C 
ATOM     23  C   UNL     1      38.861   8.357  20.427  0.00  0.00    +0.000 C 
ENDBRANCH  21  23
ENDBRANCH  15  21
ENDBRANCH   1  18
BRANCH   4  24
ATOM     24  C   UNL     1      39.892   2.005  12.838  0.00  0.00    +0.000 C 
ATOM     25  O   UNL     1      39.496   2.447  11.738  0.00  0.00    +0.000 OA
BRANCH  24  26
ATOM     26  O   UNL     1      40.896   1.089  12.862  0.00  0.00    +0.000 OA
BRANCH  26  27
ATOM     27  C   UNL     1      40.957  -0.198  13.060  0.00  0.00    +0.000 C 
BRANCH  27  28
ATOM     28  C   UNL     1      40.923  -0.798  14.539  0.00  0.00    +0.000 C 
ATOM     29  C   UNL     1      42.234  -1.801  14.292  0.00  0.00    +0.000 C 
BRANCH  28  30
ATOM     30  C   UNL     1      39.869  -2.023  14.381  0.00  0.00    +0.000 C 
ATOM     31  C   UNL     1      39.602  -2.483  15.800  0.00  0.00    +0.000 C 
ENDBRANCH  28  30
ENDBRANCH  27  28
ENDBRANCH  26  27
ENDBRANCH  24  26
ENDBRANCH   4  24
TORSDOF 8
ENDMDL
MODEL 6
REMARK VINA RESULT:      -6.6      2.608      7.247
REMARK  Name = 
REMARK  8 active torsions:
REMARK  status: ('A' for Active; 'I' for Inactive)
REMARK    1  A    between atoms: C_2  and  O_3
REMARK    2  A    between atoms: O_3  and  C_4
REMARK    3  A    between atoms: C_7  and  N_8
REMARK    4  A    between atoms: C_11  and  C_12
REMARK    5  A    between atoms: C_12  and  O_14
REMARK    6  A    between atoms: O_14  and  C_15
REMARK    7  A    between atoms: C_15  and  C_16
REMARK    8  A    between atoms: C_16  and  C_18
REMARK                            x       y       z     vdW  Elec       q    Type
REMARK                         _______ _______ _______ _____ _____    ______ ____
ROOT
ATOM      1  N   UNL     1      37.889   0.171  14.566  0.00  0.00    +0.000 N 
ATOM      2  C   UNL     1      37.834  -0.742  15.552  0.00  0.00    +0.000 A 
ATOM      3  N   UNL     1      37.246  -0.490  16.826  0.00  0.00    +0.000 NA
ATOM      4  C   UNL     1      38.407  -1.939  15.191  0.00  0.00    +0.000 A 
ATOM      5  C   UNL     1      38.845  -1.738  13.885  0.00  0.00    +0.000 A 
ATOM      6  N   UNL     1      39.471  -2.566  13.048  0.00  0.00    +0.000 NA
ATOM      7  C   UNL     1      39.784  -2.093  11.807  0.00  0.00    +0.000 A 
ATOM      8  C   UNL     1      40.438  -2.916  10.895  0.00  0.00    +0.000 A 
ATOM      9  C   UNL     1      40.759  -2.452   9.644  0.00  0.00    +0.000 A 
ATOM     10  C   UNL     1      40.430  -1.173   9.301  0.00  0.00    +0.000 A 
ATOM     11  C   UNL     1      39.786  -0.365  10.204  0.00  0.00    +0.000 A 
ATOM     12  C   UNL     1      39.450  -0.803  11.469  0.00  0.00    +0.000 A 
ATOM     13  N   UNL     1      38.807   0.039  12.336  0.00  0.00    +0.000 NA
ATOM     14  C   UNL     1      38.508  -0.445  13.549  0.00  0.00    +0.000 A 
ENDROOT
BRANCH   1  18
ATOM     15  C   UNL     1      36.553   4.156  14.636  0.00  0.00    +0.000 A 
ATOM     16  C   UNL     1      35.660   3.166  14.292  0.00  0.00    +0.000 A 
ATOM     17  C   UNL     1      36.115   1.861  14.273  0.00  0.00    +0.000 A 
ATOM     18  C   UNL     1      37.402   1.503  14.578  0.00  0.00    +0.000 A 
ATOM     19  C   UNL     1      38.277   2.505  14.919  0.00  0.00    +0.000 A 
ATOM     20  C   UNL     1      37.853   3.834  14.947  0.00  0.00    +0.000 A 
BRANCH  15  21
ATOM     21  O   UNL     1      36.174   5.509  14.679  0.00  0.00    +0.000 OA
BRANCH  21  23
ATOM     22  C   UNL     1      34.100   6.536  14.097  0.00  0.00    +0.000 C 
ATOM     23  C   UNL     1      35.447   6.069  13.601  0.00  0.00    +0.000 C 
ENDBRANCH  21  23
ENDBRANCH  15  21
ENDBRANCH   1  18
BRANCH   4  24
ATOM     24  C   UNL     1      38.534  -3.166  16.000  0.00  0.00    +0.000 C 
ATOM     25  O   UNL     1      39.683  -3.476  16.384  0.00  0.00    +0.000 OA
BRANCH  24  26
ATOM     26  O   UNL     1      37.485  -3.960  16.340  0.00  0.00    +0.000 OA
BRANCH  26  27
ATOM     27  C   UNL     1      36.505  -4.514  15.681  0.00  0.00    +0.000 C 
BRANCH  27  28
ATOM     28  C   UNL     1      35.499  -3.625  14.817  0.00  0.00    +0.000 C 
ATOM     29  C   UNL     1      34.760  -2.949  16.152  0.00  0.00    +0.000 C 
BRANCH  28  30
ATOM     30  C   UNL     1      34.267  -4.654  14.571  0.00  0.00    +0.000 C 
ATOM     31  C   UNL     1      34.701  -5.939  15.247  0.00  0.00    +0.000 C 
ENDBRANCH  28  30
ENDBRANCH  27  28
ENDBRANCH  26  27
ENDBRANCH  24  26
ENDBRANCH   4  24
TORSDOF 8
ENDMDL
MODEL 7
REMARK VINA RESULT:      -6.5      2.793      7.254
REMARK  Name = 
REMARK  8 active torsions:
REMARK  status: ('A' for Active; 'I' for Inactive)
REMARK    1  A    between atoms: C_2  and  O_3
REMARK    2  A    between atoms: O_3  and  C_4
REMARK    3  A    between atoms: C_7  and  N_8
REMARK    4  A    between atoms: C_11  and  C_12
REMARK    5  A    between atoms: C_12  and  O_14
REMARK    6  A    between atoms: O_14  and  C_15
REMARK    7  A    between atoms: C_15  and  C_16
REMARK    8  A    between atoms: C_16  and  C_18
REMARK                            x       y       z     vdW  Elec       q    Type
REMARK                         _______ _______ _______ _____ _____    ______ ____
ROOT
ATOM      1  N   UNL     1      39.427  -1.104  14.824  0.00  0.00    +0.000 N 
ATOM      2  C   UNL     1      39.259  -2.118  15.692  0.00  0.00    +0.000 A 
ATOM      3  N   UNL     1      40.159  -3.218  15.801  0.00  0.00    +0.000 NA
ATOM      4  C   UNL     1      38.126  -1.971  16.457  0.00  0.00    +0.000 A 
ATOM      5  C   UNL     1      37.561  -0.775  16.020  0.00  0.00    +0.000 A 
ATOM      6  N   UNL     1      36.453  -0.150  16.417  0.00  0.00    +0.000 NA
ATOM      7  C   UNL     1      36.136   1.026  15.803  0.00  0.00    +0.000 A 
ATOM      8  C   UNL     1      34.990   1.720  16.179  0.00  0.00    +0.000 A 
ATOM      9  C   UNL     1      34.661   2.905  15.568  0.00  0.00    +0.000 A 
ATOM     10  C   UNL     1      35.470   3.398  14.587  0.00  0.00    +0.000 A 
ATOM     11  C   UNL     1      36.600   2.710  14.219  0.00  0.00    +0.000 A 
ATOM     12  C   UNL     1      36.956   1.517  14.814  0.00  0.00    +0.000 A 
ATOM     13  N   UNL     1      38.092   0.866  14.414  0.00  0.00    +0.000 NA
ATOM     14  C   UNL     1      38.385  -0.286  15.030  0.00  0.00    +0.000 A 
ENDROOT
BRANCH   1  18
ATOM     15  C   UNL     1      42.589  -0.498  12.121  0.00  0.00    +0.000 A 
ATOM     16  C   UNL     1      41.499  -1.231  11.709  0.00  0.00    +0.000 A 
ATOM     17  C   UNL     1      40.468  -1.422  12.609  0.00  0.00    +0.000 A 
ATOM     18  C   UNL     1      40.474  -0.921  13.885  0.00  0.00    +0.000 A 
ATOM     19  C   UNL     1      41.570  -0.193  14.276  0.00  0.00    +0.000 A 
ATOM     20  C   UNL     1      42.630   0.019  13.395  0.00  0.00    +0.000 A 
BRANCH  15  21
ATOM     21  O   UNL     1      43.681  -0.257  11.269  0.00  0.00    +0.000 OA
BRANCH  21  23
ATOM     22  C   UNL     1      44.423  -1.411   9.317  0.00  0.00    +0.000 C 
ATOM     23  C   UNL     1      43.510  -0.343   9.867  0.00  0.00    +0.000 C 
ENDBRANCH  21  23
ENDBRANCH  15  21
ENDBRANCH   1  18
BRANCH   4  24
ATOM     24  C   UNL     1      37.616  -2.872  17.507  0.00  0.00    +0.000 C 
ATOM     25  O   UNL     1      37.980  -2.639  18.680  0.00  0.00    +0.000 OA
BRANCH  24  26
ATOM     26  O   UNL     1      36.787  -3.922  17.267  0.00  0.00    +0.000 OA
BRANCH  26  27
ATOM     27  C   UNL     1      36.255  -4.443  16.196  0.00  0.00    +0.000 C 
BRANCH  27  28
ATOM     28  C   UNL     1      35.459  -3.530  15.155  0.00  0.00    +0.000 C 
ATOM     29  C   UNL     1      34.310  -3.054  16.268  0.00  0.00    +0.000 C 
BRANCH  28  30
ATOM     30  C   UNL     1      34.450  -4.602  14.470  0.00  0.00    +0.000 C 
ATOM     31  C   UNL     1      33.129  -4.391  15.179  0.00  0.00    +0.000 C 
ENDBRANCH  28  30
ENDBRANCH  27  28
ENDBRANCH  26  27
ENDBRANCH  24  26
ENDBRANCH   4  24
TORSDOF 8
ENDMDL
MODEL 8
REMARK VINA RESULT:      -6.5      4.070      7.832
REMARK  Name = 
REMARK  8 active torsions:
REMARK  status: ('A' for Active; 'I' for Inactive)
REMARK    1  A    between atoms: C_2  and  O_3
REMARK    2  A    between atoms: O_3  and  C_4
REMARK    3  A    between atoms: C_7  and  N_8
REMARK    4  A    between atoms: C_11  and  C_12
REMARK    5  A    between atoms: C_12  and  O_14
REMARK    6  A    between atoms: O_14  and  C_15
REMARK    7  A    between atoms: C_15  and  C_16
REMARK    8  A    between atoms: C_16  and  C_18
REMARK                            x       y       z     vdW  Elec       q    Type
REMARK                         _______ _______ _______ _____ _____    ______ ____
ROOT
ATOM      1  N   UNL     1      37.790   0.313  14.744  0.00  0.00    +0.000 N 
ATOM      2  C   UNL     1      38.528  -0.210  13.748  0.00  0.00    +0.000 A 
ATOM      3  N   UNL     1      38.634   0.380  12.454  0.00  0.00    +0.000 NA
ATOM      4  C   UNL     1      39.164  -1.371  14.120  0.00  0.00    +0.000 A 
ATOM      5  C   UNL     1      38.785  -1.570  15.445  0.00  0.00    +0.000 A 
ATOM      6  N   UNL     1      39.107  -2.542  16.298  0.00  0.00    +0.000 NA
ATOM      7  C   UNL     1      38.579  -2.483  17.554  0.00  0.00    +0.000 A 
ATOM      8  C   UNL     1      38.883  -3.472  18.484  0.00  0.00    +0.000 A 
ATOM      9  C   UNL     1      38.358  -3.423  19.751  0.00  0.00    +0.000 A 
ATOM     10  C   UNL     1      37.533  -2.392  20.092  0.00  0.00    +0.000 A 
ATOM     11  C   UNL     1      37.235  -1.418  19.172  0.00  0.00    +0.000 A 
ATOM     12  C   UNL     1      37.747  -1.441  17.891  0.00  0.00    +0.000 A 
ATOM     13  N   UNL     1      37.423  -0.447  17.007  0.00  0.00    +0.000 NA
ATOM     14  C   UNL     1      37.952  -0.524  15.779  0.00  0.00    +0.000 A 
ENDROOT
BRANCH   1  18
ATOM     15  C   UNL     1      35.560   3.875  14.702  0.00  0.00    +0.000 A 
ATOM     16  C   UNL     1      34.896   2.679  14.551  0.00  0.00    +0.000 A 
ATOM     17  C   UNL     1      35.643   1.516  14.566  0.00  0.00    +0.000 A 
ATOM     18  C   UNL     1      37.005   1.493  14.725  0.00  0.00    +0.000 A 
ATOM     19  C   UNL     1      37.647   2.697  14.874  0.00  0.00    +0.000 A 
ATOM     20  C   UNL     1      36.926   3.891  14.863  0.00  0.00    +0.000 A 
BRANCH  15  21
ATOM     21  O   UNL     1      34.876   5.103  14.697  0.00  0.00    +0.000 OA
BRANCH  21  23
ATOM     22  C   UNL     1      33.777   6.928  13.623  0.00  0.00    +0.000 C 
ATOM     23  C   UNL     1      34.884   5.906  13.532  0.00  0.00    +0.000 C 
ENDBRANCH  21  23
ENDBRANCH  15  21
ENDBRANCH   1  18
BRANCH   4  24
ATOM     24  C   UNL     1      40.053  -2.221  13.305  0.00  0.00    +0.000 C 
ATOM     25  O   UNL     1      39.516  -2.909  12.410  0.00  0.00    +0.000 OA
BRANCH  24  26
ATOM     26  O   UNL     1      41.399  -2.293  13.478  0.00  0.00    +0.000 OA
BRANCH  26  27
ATOM     27  C   UNL     1      42.243  -1.771  14.324  0.00  0.00    +0.000 C 
BRANCH  27  28
ATOM     28  C   UNL     1      42.698  -0.247  14.186  0.00  0.00    +0.000 C 
ATOM     29  C   UNL     1      43.340  -0.451  12.660  0.00  0.00    +0.000 C 
BRANCH  28  30
ATOM     30  C   UNL     1      44.166  -0.269  14.881  0.00  0.00    +0.000 C 
ATOM     31  C   UNL     1      45.086  -0.817  13.810  0.00  0.00    +0.000 C 
ENDBRANCH  28  30
ENDBRANCH  27  28
ENDBRANCH  26  27
ENDBRANCH  24  26
ENDBRANCH   4  24
TORSDOF 8
ENDMDL
MODEL 9
REMARK VINA RESULT:      -6.5      4.047      5.872
REMARK  Name = 
REMARK  8 active torsions:
REMARK  status: ('A' for Active; 'I' for Inactive)
REMARK    1  A    between atoms: C_2  and  O_3
REMARK    2  A    between atoms: O_3  and  C_4
REMARK    3  A    between atoms: C_7  and  N_8
REMARK    4  A    between atoms: C_11  and  C_12
REMARK    5  A    between atoms: C_12  and  O_14
REMARK    6  A    between atoms: O_14  and  C_15
REMARK    7  A    between atoms: C_15  and  C_16
REMARK    8  A    between atoms: C_16  and  C_18
REMARK                            x       y       z     vdW  Elec       q    Type
REMARK                         _______ _______ _______ _____ _____    ______ ____
ROOT
ATOM      1  N   UNL     1      38.636  -0.335  13.951  0.00  0.00    +0.000 N 
ATOM      2  C   UNL     1      37.873   0.749  13.715  0.00  0.00    +0.000 A 
ATOM      3  N   UNL     1      37.882   1.464  12.483  0.00  0.00    +0.000 NA
ATOM      4  C   UNL     1      37.090   1.083  14.795  0.00  0.00    +0.000 A 
ATOM      5  C   UNL     1      37.399   0.130  15.761  0.00  0.00    +0.000 A 
ATOM      6  N   UNL     1      36.934  -0.024  17.001  0.00  0.00    +0.000 NA
ATOM      7  C   UNL     1      37.424  -1.063  17.736  0.00  0.00    +0.000 A 
ATOM      8  C   UNL     1      36.972  -1.270  19.036  0.00  0.00    +0.000 A 
ATOM      9  C   UNL     1      37.457  -2.312  19.786  0.00  0.00    +0.000 A 
ATOM     10  C   UNL     1      38.389  -3.147  19.243  0.00  0.00    +0.000 A 
ATOM     11  C   UNL     1      38.832  -2.941  17.961  0.00  0.00    +0.000 A 
ATOM     12  C   UNL     1      38.363  -1.902  17.183  0.00  0.00    +0.000 A 
ATOM     13  N   UNL     1      38.835  -1.734  15.909  0.00  0.00    +0.000 NA
ATOM     14  C   UNL     1      38.341  -0.708  15.204  0.00  0.00    +0.000 A 
ENDROOT
BRANCH   1  18
ATOM     15  C   UNL     1      41.286  -2.269  11.323  0.00  0.00    +0.000 A 
ATOM     16  C   UNL     1      41.752  -1.212  12.072  0.00  0.00    +0.000 A 
ATOM     17  C   UNL     1      40.869  -0.586  12.931  0.00  0.00    +0.000 A 
ATOM     18  C   UNL     1      39.558  -0.962  13.076  0.00  0.00    +0.000 A 
ATOM     19  C   UNL     1      39.113  -2.018  12.320  0.00  0.00    +0.000 A 
ATOM     20  C   UNL     1      39.977  -2.673  11.442  0.00  0.00    +0.000 A 
BRANCH  15  21
ATOM     21  O   UNL     1      42.117  -2.960  10.425  0.00  0.00    +0.000 OA
BRANCH  21  23
ATOM     22  C   UNL     1      42.390  -5.229   9.740  0.00  0.00    +0.000 C 
ATOM     23  C   UNL     1      41.571  -3.970   9.597  0.00  0.00    +0.000 C 
ENDBRANCH  21  23
ENDBRANCH  15  21
ENDBRANCH   1  18
BRANCH   4  24
ATOM     24  C   UNL     1      36.132   2.199  14.911  0.00  0.00    +0.000 C 
ATOM     25  O   UNL     1      34.961   1.984  14.530  0.00  0.00    +0.000 OA
BRANCH  24  26
ATOM     26  O   UNL     1      36.455   3.425  15.402  0.00  0.00    +0.000 OA
BRANCH  26  27
ATOM     27  C   UNL     1      37.439   3.896  16.117  0.00  0.00    +0.000 C 
BRANCH  27  28
ATOM     28  C   UNL     1      38.377   5.056  15.548  0.00  0.00    +0.000 C 
ATOM     29  C   UNL     1      39.478   3.999  14.874  0.00  0.00    +0.000 C 
BRANCH  28  30
ATOM     30  C   UNL     1      39.343   5.360  16.818  0.00  0.00    +0.000 C 
ATOM     31  C   UNL     1      38.671   4.665  17.984  0.00  0.00    +0.000 C 
ENDBRANCH  28  30
ENDBRANCH  27  28
ENDBRANCH  26  27
ENDBRANCH  24  26
ENDBRANCH   4  24
TORSDOF 8
ENDMDL
MODEL 10
REMARK VINA RESULT:      -6.5      3.848      6.697
REMARK  Name = 
REMARK  8 active torsions:
REMARK  status: ('A' for Active; 'I' for Inactive)
REMARK    1  A    between atoms: C_2  and  O_3
REMARK    2  A    between atoms: O_3  and  C_4
REMARK    3  A    between atoms: C_7  and  N_8
REMARK    4  A    between atoms: C_11  and  C_12
REMARK    5  A    between atoms: C_12  and  O_14
REMARK    6  A    between atoms: O_14  and  C_15
REMARK    7  A    between atoms: C_15  and  C_16
REMARK    8  A    between atoms: C_16  and  C_18
REMARK                            x       y       z     vdW  Elec       q    Type
REMARK                         _______ _______ _______ _____ _____    ______ ____
ROOT
ATOM      1  N   UNL     1      37.629   2.192  14.598  0.00  0.00    +0.000 N 
ATOM      2  C   UNL     1      37.289   2.605  13.364  0.00  0.00    +0.000 A 
ATOM      3  N   UNL     1      36.949   1.716  12.302  0.00  0.00    +0.000 NA
ATOM      4  C   UNL     1      37.309   3.975  13.245  0.00  0.00    +0.000 A 
ATOM      5  C   UNL     1      37.689   4.431  14.504  0.00  0.00    +0.000 A 
ATOM      6  N   UNL     1      37.867   5.673  14.955  0.00  0.00    +0.000 NA
ATOM      7  C   UNL     1      38.248   5.826  16.255  0.00  0.00    +0.000 A 
ATOM      8  C   UNL     1      38.448   7.100  16.776  0.00  0.00    +0.000 A 
ATOM      9  C   UNL     1      38.831   7.267  18.084  0.00  0.00    +0.000 A 
ATOM     10  C   UNL     1      39.015   6.168  18.871  0.00  0.00    +0.000 A 
ATOM     11  C   UNL     1      38.817   4.912  18.353  0.00  0.00    +0.000 A 
ATOM     12  C   UNL     1      38.432   4.714  17.043  0.00  0.00    +0.000 A 
ATOM     13  N   UNL     1      38.246   3.442  16.571  0.00  0.00    +0.000 NA
ATOM     14  C   UNL     1      37.872   3.314  15.291  0.00  0.00    +0.000 A 
ENDROOT
BRANCH   1  18
ATOM     15  C   UNL     1      37.999  -1.755  15.994  0.00  0.00    +0.000 A 
ATOM     16  C   UNL     1      36.810  -1.091  16.198  0.00  0.00    +0.000 A 
ATOM     17  C   UNL     1      36.704   0.206  15.733  0.00  0.00    +0.000 A 
ATOM     18  C   UNL     1      37.717   0.863  15.083  0.00  0.00    +0.000 A 
ATOM     19  C   UNL     1      38.894   0.183  14.890  0.00  0.00    +0.000 A 
ATOM     20  C   UNL     1      39.037  -1.127  15.346  0.00  0.00    +0.000 A 
BRANCH  15  21
ATOM     21  O   UNL     1      38.191  -3.076  16.435  0.00  0.00    +0.000 OA
BRANCH  21  23
ATOM     22  C   UNL     1      36.652  -4.795  15.828  0.00  0.00    +0.000 C 
ATOM     23  C   UNL     1      37.086  -3.827  16.902  0.00  0.00    +0.000 C 
ENDBRANCH  21  23
ENDBRANCH  15  21
ENDBRANCH   1  18
BRANCH   4  24
ATOM     24  C   UNL     1      36.996   4.788  12.054  0.00  0.00    +0.000 C 
ATOM     25  O   UNL     1      37.868   4.843  11.160  0.00  0.00    +0.000 OA
BRANCH  24  26
ATOM     26  O   UNL     1      35.832   5.469  11.887  0.00  0.00    +0.000 OA
BRANCH  26  27
ATOM     27  C   UNL     1      35.486   6.724  11.958  0.00  0.00    +0.000 C 
BRANCH  27  28
ATOM     28  C   UNL     1      33.995   7.137  12.354  0.00  0.00    +0.000 C 
ATOM     29  C   UNL     1      34.408   8.703  12.758  0.00  0.00    +0.000 C 
BRANCH  28  30
ATOM     30  C   UNL     1      33.923   6.682  13.912  0.00  0.00    +0.000 C 
ATOM     31  C   UNL     1      33.753   7.977  14.680  0.00  0.00    +0.000 C 
ENDBRANCH  28  30
ENDBRANCH  27  28
ENDBRANCH  26  27
ENDBRANCH  24  26
ENDBRANCH   4  24
TORSDOF 8
ENDMDL
