MODEL 1
REMARK VINA RESULT:      -7.3      0.000      0.000
REMARK  Name = 
REMARK  3 active torsions:
REMARK  status: ('A' for Active; 'I' for Inactive)
REMARK    1  A    between atoms: C_6  and  N_7
REMARK    2  A    between atoms: C_8  and  C_10
REMARK    3  A    between atoms: C_14  and  N_15
REMARK                            x       y       z     vdW  Elec       q    Type
REMARK                         _______ _______ _______ _____ _____    ______ ____
ROOT
ATOM      1  N   UNL     1      15.563  10.959  36.383  0.00  0.00    +0.000 NA
ATOM      2  C   UNL     1      15.854  12.256  35.912  0.00  0.00    +0.000 C 
ATOM      3  O   UNL     1      16.741  12.926  36.481  0.00  0.00    +0.000 OA
ENDROOT
BRANCH   1   9
ATOM      4  C   UNL     1      15.545   9.764  41.079  0.00  0.00    +0.000 C 
ATOM      5  C   UNL     1      16.282   9.884  39.787  0.00  0.00    +0.000 A 
ATOM      6  C   UNL     1      17.610   9.530  39.677  0.00  0.00    +0.000 A 
ATOM      7  C   UNL     1      18.321   9.631  38.489  0.00  0.00    +0.000 A 
ATOM      8  C   UNL     1      17.629  10.111  37.391  0.00  0.00    +0.000 A 
ATOM      9  C   UNL     1      16.297  10.465  37.495  0.00  0.00    +0.000 A 
ATOM     10  C   UNL     1      15.615  10.354  38.697  0.00  0.00    +0.000 A 
ATOM     11  C   UNL     1      14.170  10.747  38.775  0.00  0.00    +0.000 C 
ENDBRANCH   1   9
BRANCH   2  12
ATOM     12  C   UNL     1      15.113  12.783  34.771  0.00  0.00    +0.000 A 
ATOM     13  C   UNL     1      14.105  13.715  34.955  0.00  0.00    +0.000 A 
ATOM     14  C   UNL     1      13.413  14.205  33.887  0.00  0.00    +0.000 A 
ATOM     15  C   UNL     1      13.728  13.763  32.620  0.00  0.00    +0.000 A 
ATOM     16  C   UNL     1      14.746  12.823  32.435  0.00  0.00    +0.000 A 
ATOM     17  C   UNL     1      15.441  12.331  33.511  0.00  0.00    +0.000 A 
ATOM     18  C   UNL     1      16.537  11.323  33.353  0.00  0.00    +0.000 C 
BRANCH  16  19
ATOM     19  N   UNL     1      15.055  12.381  31.119  0.00  0.00    +0.000 N 
ATOM     20  O   UNL     1      14.447  11.372  30.695  0.00  0.00    +0.000 OA
ATOM     21  O   UNL     1      15.987  13.077  30.399  0.00  0.00    +0.000 OA
ENDBRANCH  16  19
ENDBRANCH   2  12
TORSDOF 3
ENDMDL
MODEL 2
REMARK VINA RESULT:      -7.1      2.374      6.953
REMARK  Name = 
REMARK  3 active torsions:
REMARK  status: ('A' for Active; 'I' for Inactive)
REMARK    1  A    between atoms: C_6  and  N_7
REMARK    2  A    between atoms: C_8  and  C_10
REMARK    3  A    between atoms: C_14  and  N_15
REMARK                            x       y       z     vdW  Elec       q    Type
REMARK                         _______ _______ _______ _____ _____    ______ ____
ROOT
ATOM      1  N   UNL     1      15.270  11.081  34.721  0.00  0.00    +0.000 NA
ATOM      2  C   UNL     1      16.464  11.265  35.447  0.00  0.00    +0.000 C 
ATOM      3  O   UNL     1      17.437  11.817  34.892  0.00  0.00    +0.000 OA
ENDROOT
BRANCH   1   9
ATOM      4  C   UNL     1      13.876  14.539  31.625  0.00  0.00    +0.000 C 
ATOM      5  C   UNL     1      14.540  13.226  31.870  0.00  0.00    +0.000 A 
ATOM      6  C   UNL     1      15.085  12.489  30.839  0.00  0.00    +0.000 A 
ATOM      7  C   UNL     1      15.709  11.265  31.036  0.00  0.00    +0.000 A 
ATOM      8  C   UNL     1      15.767  10.800  32.338  0.00  0.00    +0.000 A 
ATOM      9  C   UNL     1      15.223  11.535  33.374  0.00  0.00    +0.000 A 
ATOM     10  C   UNL     1      14.605  12.754  33.145  0.00  0.00    +0.000 A 
ATOM     11  C   UNL     1      14.026  13.526  34.293  0.00  0.00    +0.000 C 
ENDBRANCH   1   9
BRANCH   2  12
ATOM     12  C   UNL     1      16.534  10.807  36.832  0.00  0.00    +0.000 A 
ATOM     13  C   UNL     1      15.524  11.113  37.727  0.00  0.00    +0.000 A 
ATOM     14  C   UNL     1      15.593  10.684  39.020  0.00  0.00    +0.000 A 
ATOM     15  C   UNL     1      16.679   9.940  39.426  0.00  0.00    +0.000 A 
ATOM     16  C   UNL     1      17.699   9.630  38.520  0.00  0.00    +0.000 A 
ATOM     17  C   UNL     1      17.627  10.063  37.220  0.00  0.00    +0.000 A 
ATOM     18  C   UNL     1      18.699   9.752  36.222  0.00  0.00    +0.000 C 
BRANCH  16  19
ATOM     19  N   UNL     1      18.811   8.861  38.961  0.00  0.00    +0.000 N 
ATOM     20  O   UNL     1      19.915   9.444  39.043  0.00  0.00    +0.000 OA
ATOM     21  O   UNL     1      18.612   7.543  39.266  0.00  0.00    +0.000 OA
ENDBRANCH  16  19
ENDBRANCH   2  12
TORSDOF 3
ENDMDL
MODEL 3
REMARK VINA RESULT:      -6.7      0.652      2.031
REMARK  Name = 
REMARK  3 active torsions:
REMARK  status: ('A' for Active; 'I' for Inactive)
REMARK    1  A    between atoms: C_6  and  N_7
REMARK    2  A    between atoms: C_8  and  C_10
REMARK    3  A    between atoms: C_14  and  N_15
REMARK                            x       y       z     vdW  Elec       q    Type
REMARK                         _______ _______ _______ _____ _____    ______ ____
ROOT
ATOM      1  N   UNL     1      15.776  10.793  36.630  0.00  0.00    +0.000 NA
ATOM      2  C   UNL     1      15.778  12.168  36.316  0.00  0.00    +0.000 C 
ATOM      3  O   UNL     1      16.325  12.971  37.099  0.00  0.00    +0.000 OA
ENDROOT
BRANCH   1   9
ATOM      4  C   UNL     1      19.757   9.038  38.767  0.00  0.00    +0.000 C 
ATOM      5  C   UNL     1      18.348   9.520  38.872  0.00  0.00    +0.000 A 
ATOM      6  C   UNL     1      17.688   9.562  40.082  0.00  0.00    +0.000 A 
ATOM      7  C   UNL     1      16.379  10.005  40.211  0.00  0.00    +0.000 A 
ATOM      8  C   UNL     1      15.746  10.415  39.051  0.00  0.00    +0.000 A 
ATOM      9  C   UNL     1      16.403  10.377  37.836  0.00  0.00    +0.000 A 
ATOM     10  C   UNL     1      17.711   9.928  37.740  0.00  0.00    +0.000 A 
ATOM     11  C   UNL     1      18.395   9.899  36.406  0.00  0.00    +0.000 C 
ENDBRANCH   1   9
BRANCH   2  12
ATOM     12  C   UNL     1      15.139  12.617  35.083  0.00  0.00    +0.000 A 
ATOM     13  C   UNL     1      14.157  13.593  35.113  0.00  0.00    +0.000 A 
ATOM     14  C   UNL     1      13.562  14.010  33.959  0.00  0.00    +0.000 A 
ATOM     15  C   UNL     1      13.949  13.450  32.760  0.00  0.00    +0.000 A 
ATOM     16  C   UNL     1      14.941  12.466  32.731  0.00  0.00    +0.000 A 
ATOM     17  C   UNL     1      15.539  12.047  33.893  0.00  0.00    +0.000 A 
ATOM     18  C   UNL     1      16.605  10.995  33.902  0.00  0.00    +0.000 C 
BRANCH  16  19
ATOM     19  N   UNL     1      15.326  11.902  31.483  0.00  0.00    +0.000 N 
ATOM     20  O   UNL     1      16.229  12.487  30.844  0.00  0.00    +0.000 OA
ATOM     21  O   UNL     1      14.694  10.765  31.059  0.00  0.00    +0.000 OA
ENDBRANCH  16  19
ENDBRANCH   2  12
TORSDOF 3
ENDMDL
MODEL 4
REMARK VINA RESULT:      -6.7     21.644     23.485
REMARK  Name = 
REMARK  3 active torsions:
REMARK  status: ('A' for Active; 'I' for Inactive)
REMARK    1  A    between atoms: C_6  and  N_7
REMARK    2  A    between atoms: C_8  and  C_10
REMARK    3  A    between atoms: C_14  and  N_15
REMARK                            x       y       z     vdW  Elec       q    Type
REMARK                         _______ _______ _______ _____ _____    ______ ____
ROOT
ATOM      1  N   UNL     1      22.060  -6.761  23.905  0.00  0.00    +0.000 NA
ATOM      2  C   UNL     1      21.585  -7.262  25.134  0.00  0.00    +0.000 C 
ATOM      3  O   UNL     1      22.273  -8.095  25.759  0.00  0.00    +0.000 OA
ENDROOT
BRANCH   1   9
ATOM      4  C   UNL     1      24.433  -9.855  21.027  0.00  0.00    +0.000 C 
ATOM      5  C   UNL     1      24.465  -8.741  22.020  0.00  0.00    +0.000 A 
ATOM      6  C   UNL     1      25.655  -8.191  22.450  0.00  0.00    +0.000 A 
ATOM      7  C   UNL     1      25.716  -7.155  23.371  0.00  0.00    +0.000 A 
ATOM      8  C   UNL     1      24.508  -6.682  23.854  0.00  0.00    +0.000 A 
ATOM      9  C   UNL     1      23.314  -7.229  23.425  0.00  0.00    +0.000 A 
ATOM     10  C   UNL     1      23.286  -8.264  22.504  0.00  0.00    +0.000 A 
ATOM     11  C   UNL     1      21.972  -8.835  22.061  0.00  0.00    +0.000 C 
ENDBRANCH   1   9
BRANCH   2  12
ATOM     12  C   UNL     1      20.299  -6.795  25.645  0.00  0.00    +0.000 A 
ATOM     13  C   UNL     1      20.142  -5.486  26.066  0.00  0.00    +0.000 A 
ATOM     14  C   UNL     1      18.941  -5.053  26.543  0.00  0.00    +0.000 A 
ATOM     15  C   UNL     1      17.882  -5.934  26.602  0.00  0.00    +0.000 A 
ATOM     16  C   UNL     1      18.042  -7.256  26.177  0.00  0.00    +0.000 A 
ATOM     17  C   UNL     1      19.251  -7.689  25.696  0.00  0.00    +0.000 A 
ATOM     18  C   UNL     1      19.461  -9.098  25.231  0.00  0.00    +0.000 C 
BRANCH  16  19
ATOM     19  N   UNL     1      16.936  -8.148  26.246  0.00  0.00    +0.000 N 
ATOM     20  O   UNL     1      16.085  -8.079  25.330  0.00  0.00    +0.000 OA
ATOM     21  O   UNL     1      16.867  -9.020  27.297  0.00  0.00    +0.000 OA
ENDBRANCH  16  19
ENDBRANCH   2  12
TORSDOF 3
ENDMDL
MODEL 5
REMARK VINA RESULT:      -6.6      1.430      2.074
REMARK  Name = 
REMARK  3 active torsions:
REMARK  status: ('A' for Active; 'I' for Inactive)
REMARK    1  A    between atoms: C_6  and  N_7
REMARK    2  A    between atoms: C_8  and  C_10
REMARK    3  A    between atoms: C_14  and  N_15
REMARK                            x       y       z     vdW  Elec       q    Type
REMARK                         _______ _______ _______ _____ _____    ______ ____
ROOT
ATOM      1  N   UNL     1      16.912  10.129  37.533  0.00  0.00    +0.000 NA
ATOM      2  C   UNL     1      17.122  11.376  36.908  0.00  0.00    +0.000 C 
ATOM      3  O   UNL     1      18.093  12.078  37.259  0.00  0.00    +0.000 OA
ENDROOT
BRANCH   1   9
ATOM      4  C   UNL     1      17.612   9.064  42.209  0.00  0.00    +0.000 C 
ATOM      5  C   UNL     1      18.158   9.203  40.827  0.00  0.00    +0.000 A 
ATOM      6  C   UNL     1      19.483   8.945  40.545  0.00  0.00    +0.000 A 
ATOM      7  C   UNL     1      20.019   9.064  39.271  0.00  0.00    +0.000 A 
ATOM      8  C   UNL     1      19.152   9.462  38.268  0.00  0.00    +0.000 A 
ATOM      9  C   UNL     1      17.824   9.721  38.545  0.00  0.00    +0.000 A 
ATOM     10  C   UNL     1      17.318   9.593  39.829  0.00  0.00    +0.000 A 
ATOM     11  C   UNL     1      15.871   9.881  40.095  0.00  0.00    +0.000 C 
ENDBRANCH   1   9
BRANCH   2  12
ATOM     12  C   UNL     1      16.198  11.815  35.867  0.00  0.00    +0.000 A 
ATOM     13  C   UNL     1      15.177  12.704  36.160  0.00  0.00    +0.000 A 
ATOM     14  C   UNL     1      14.315  13.111  35.185  0.00  0.00    +0.000 A 
ATOM     15  C   UNL     1      14.472  12.630  33.902  0.00  0.00    +0.000 A 
ATOM     16  C   UNL     1      15.503  11.733  33.608  0.00  0.00    +0.000 A 
ATOM     17  C   UNL     1      16.370  11.325  34.590  0.00  0.00    +0.000 A 
ATOM     18  C   UNL     1      17.486  10.365  34.314  0.00  0.00    +0.000 C 
BRANCH  16  19
ATOM     19  N   UNL     1      15.646  11.250  32.278  0.00  0.00    +0.000 N 
ATOM     20  O   UNL     1      16.349  11.927  31.494  0.00  0.00    +0.000 OA
ATOM     21  O   UNL     1      15.016  10.085  31.937  0.00  0.00    +0.000 OA
ENDBRANCH  16  19
ENDBRANCH   2  12
TORSDOF 3
ENDMDL
MODEL 6
REMARK VINA RESULT:      -6.6     18.597     20.262
REMARK  Name = 
REMARK  3 active torsions:
REMARK  status: ('A' for Active; 'I' for Inactive)
REMARK    1  A    between atoms: C_6  and  N_7
REMARK    2  A    between atoms: C_8  and  C_10
REMARK    3  A    between atoms: C_14  and  N_15
REMARK                            x       y       z     vdW  Elec       q    Type
REMARK                         _______ _______ _______ _____ _____    ______ ____
ROOT
ATOM      1  N   UNL     1      28.216  22.555  26.603  0.00  0.00    +0.000 NA
ATOM      2  C   UNL     1      27.664  23.726  26.044  0.00  0.00    +0.000 C 
ATOM      3  O   UNL     1      27.480  24.722  26.773  0.00  0.00    +0.000 OA
ENDROOT
BRANCH   1   9
ATOM      4  C   UNL     1      31.676  22.896  29.980  0.00  0.00    +0.000 C 
ATOM      5  C   UNL     1      30.235  22.726  29.629  0.00  0.00    +0.000 A 
ATOM      6  C   UNL     1      29.267  22.582  30.601  0.00  0.00    +0.000 A 
ATOM      7  C   UNL     1      27.921  22.422  30.305  0.00  0.00    +0.000 A 
ATOM      8  C   UNL     1      27.577  22.414  28.965  0.00  0.00    +0.000 A 
ATOM      9  C   UNL     1      28.543  22.559  27.987  0.00  0.00    +0.000 A 
ATOM     10  C   UNL     1      29.880  22.716  28.315  0.00  0.00    +0.000 A 
ATOM     11  C   UNL     1      30.902  22.871  27.229  0.00  0.00    +0.000 C 
ENDBRANCH   1   9
BRANCH   2  12
ATOM     12  C   UNL     1      27.321  23.744  24.625  0.00  0.00    +0.000 A 
ATOM     13  C   UNL     1      26.127  23.201  24.182  0.00  0.00    +0.000 A 
ATOM     14  C   UNL     1      25.810  23.218  22.856  0.00  0.00    +0.000 A 
ATOM     15  C   UNL     1      26.691  23.784  21.959  0.00  0.00    +0.000 A 
ATOM     16  C   UNL     1      27.896  24.332  22.408  0.00  0.00    +0.000 A 
ATOM     17  C   UNL     1      28.214  24.313  23.743  0.00  0.00    +0.000 A 
ATOM     18  C   UNL     1      29.495  24.890  24.261  0.00  0.00    +0.000 C 
BRANCH  16  19
ATOM     19  N   UNL     1      28.791  24.910  21.466  0.00  0.00    +0.000 N 
ATOM     20  O   UNL     1      29.692  24.174  21.004  0.00  0.00    +0.000 OA
ATOM     21  O   UNL     1      28.617  26.222  21.121  0.00  0.00    +0.000 OA
ENDBRANCH  16  19
ENDBRANCH   2  12
TORSDOF 3
ENDMDL
MODEL 7
REMARK VINA RESULT:      -6.3     18.452     20.725
REMARK  Name = 
REMARK  3 active torsions:
REMARK  status: ('A' for Active; 'I' for Inactive)
REMARK    1  A    between atoms: C_6  and  N_7
REMARK    2  A    between atoms: C_8  and  C_10
REMARK    3  A    between atoms: C_14  and  N_15
REMARK                            x       y       z     vdW  Elec       q    Type
REMARK                         _______ _______ _______ _____ _____    ______ ____
ROOT
ATOM      1  N   UNL     1      29.073  22.220  26.692  0.00  0.00    +0.000 NA
ATOM      2  C   UNL     1      29.567  23.186  27.593  0.00  0.00    +0.000 C 
ATOM      3  O   UNL     1      29.188  24.370  27.486  0.00  0.00    +0.000 OA
ENDROOT
BRANCH   1   9
ATOM      4  C   UNL     1      28.414  23.735  22.135  0.00  0.00    +0.000 C 
ATOM      5  C   UNL     1      27.841  23.379  23.467  0.00  0.00    +0.000 A 
ATOM      6  C   UNL     1      26.486  23.453  23.713  0.00  0.00    +0.000 A 
ATOM      7  C   UNL     1      25.924  23.129  24.940  0.00  0.00    +0.000 A 
ATOM      8  C   UNL     1      26.797  22.717  25.932  0.00  0.00    +0.000 A 
ATOM      9  C   UNL     1      28.156  22.641  25.690  0.00  0.00    +0.000 A 
ATOM     10  C   UNL     1      28.686  22.972  24.454  0.00  0.00    +0.000 A 
ATOM     11  C   UNL     1      30.165  22.878  24.225  0.00  0.00    +0.000 C 
ENDBRANCH   1   9
BRANCH   2  12
ATOM     12  C   UNL     1      30.510  22.776  28.629  0.00  0.00    +0.000 A 
ATOM     13  C   UNL     1      31.822  22.470  28.307  0.00  0.00    +0.000 A 
ATOM     14  C   UNL     1      32.700  22.087  29.277  0.00  0.00    +0.000 A 
ATOM     15  C   UNL     1      32.269  22.008  30.584  0.00  0.00    +0.000 A 
ATOM     16  C   UNL     1      30.944  22.317  30.908  0.00  0.00    +0.000 A 
ATOM     17  C   UNL     1      30.062  22.702  29.931  0.00  0.00    +0.000 A 
ATOM     18  C   UNL     1      28.636  23.041  30.239  0.00  0.00    +0.000 C 
BRANCH  16  19
ATOM     19  N   UNL     1      30.521  22.228  32.263  0.00  0.00    +0.000 N 
ATOM     20  O   UNL     1      30.206  21.095  32.692  0.00  0.00    +0.000 OA
ATOM     21  O   UNL     1      30.482  23.373  33.010  0.00  0.00    +0.000 OA
ENDBRANCH  16  19
ENDBRANCH   2  12
TORSDOF 3
ENDMDL
MODEL 8
REMARK VINA RESULT:      -6.3     18.024     19.050
REMARK  Name = 
REMARK  3 active torsions:
REMARK  status: ('A' for Active; 'I' for Inactive)
REMARK    1  A    between atoms: C_6  and  N_7
REMARK    2  A    between atoms: C_8  and  C_10
REMARK    3  A    between atoms: C_14  and  N_15
REMARK                            x       y       z     vdW  Elec       q    Type
REMARK                         _______ _______ _______ _____ _____    ______ ____
ROOT
ATOM      1  N   UNL     1      28.868  23.576  28.911  0.00  0.00    +0.000 NA
ATOM      2  C   UNL     1      27.742  22.877  28.428  0.00  0.00    +0.000 C 
ATOM      3  O   UNL     1      27.547  21.702  28.801  0.00  0.00    +0.000 OA
ENDROOT
BRANCH   1   9
ATOM      4  C   UNL     1      33.156  21.425  29.601  0.00  0.00    +0.000 C 
ATOM      5  C   UNL     1      31.834  21.858  30.141  0.00  0.00    +0.000 A 
ATOM      6  C   UNL     1      31.477  21.622  31.453  0.00  0.00    +0.000 A 
ATOM      7  C   UNL     1      30.255  22.012  31.983  0.00  0.00    +0.000 A 
ATOM      8  C   UNL     1      29.387  22.665  31.126  0.00  0.00    +0.000 A 
ATOM      9  C   UNL     1      29.741  22.906  29.812  0.00  0.00    +0.000 A 
ATOM     10  C   UNL     1      30.968  22.502  29.311  0.00  0.00    +0.000 A 
ATOM     11  C   UNL     1      31.320  22.780  27.880  0.00  0.00    +0.000 C 
ENDBRANCH   1   9
BRANCH   2  12
ATOM     12  C   UNL     1      26.833  23.546  27.502  0.00  0.00    +0.000 A 
ATOM     13  C   UNL     1      25.740  24.253  27.974  0.00  0.00    +0.000 A 
ATOM     14  C   UNL     1      24.892  24.875  27.107  0.00  0.00    +0.000 A 
ATOM     15  C   UNL     1      25.135  24.794  25.752  0.00  0.00    +0.000 A 
ATOM     16  C   UNL     1      26.239  24.081  25.276  0.00  0.00    +0.000 A 
ATOM     17  C   UNL     1      27.091  23.455  26.151  0.00  0.00    +0.000 A 
ATOM     18  C   UNL     1      28.283  22.682  25.679  0.00  0.00    +0.000 C 
BRANCH  16  19
ATOM     19  N   UNL     1      26.470  24.010  23.875  0.00  0.00    +0.000 N 
ATOM     20  O   UNL     1      27.146  24.928  23.358  0.00  0.00    +0.000 OA
ATOM     21  O   UNL     1      25.947  22.955  23.179  0.00  0.00    +0.000 OA
ENDBRANCH  16  19
ENDBRANCH   2  12
TORSDOF 3
ENDMDL
MODEL 9
REMARK VINA RESULT:      -6.3     18.612     20.758
REMARK  Name = 
REMARK  3 active torsions:
REMARK  status: ('A' for Active; 'I' for Inactive)
REMARK    1  A    between atoms: C_6  and  N_7
REMARK    2  A    between atoms: C_8  and  C_10
REMARK    3  A    between atoms: C_14  and  N_15
REMARK                            x       y       z     vdW  Elec       q    Type
REMARK                         _______ _______ _______ _____ _____    ______ ____
ROOT
ATOM      1  N   UNL     1      30.454  21.846  27.409  0.00  0.00    +0.000 NA
ATOM      2  C   UNL     1      31.108  22.781  28.236  0.00  0.00    +0.000 C 
ATOM      3  O   UNL     1      31.108  23.987  27.914  0.00  0.00    +0.000 OA
ENDROOT
BRANCH   1   9
ATOM      4  C   UNL     1      26.317  23.181  25.264  0.00  0.00    +0.000 C 
ATOM      5  C   UNL     1      27.793  22.970  25.191  0.00  0.00    +0.000 A 
ATOM      6  C   UNL     1      28.502  23.226  24.036  0.00  0.00    +0.000 A 
ATOM      7  C   UNL     1      29.874  23.040  23.938  0.00  0.00    +0.000 A 
ATOM      8  C   UNL     1      30.520  22.577  25.071  0.00  0.00    +0.000 A 
ATOM      9  C   UNL     1      29.814  22.320  26.231  0.00  0.00    +0.000 A 
ATOM     10  C   UNL     1      28.444  22.515  26.297  0.00  0.00    +0.000 A 
ATOM     11  C   UNL     1      27.708  22.227  27.572  0.00  0.00    +0.000 C 
ENDBRANCH   1   9
BRANCH   2  12
ATOM     12  C   UNL     1      31.772  22.315  29.451  0.00  0.00    +0.000 A 
ATOM     13  C   UNL     1      33.048  21.781  29.396  0.00  0.00    +0.000 A 
ATOM     14  C   UNL     1      33.664  21.346  30.532  0.00  0.00    +0.000 A 
ATOM     15  C   UNL     1      33.003  21.445  31.737  0.00  0.00    +0.000 A 
ATOM     16  C   UNL     1      31.715  21.984  31.791  0.00  0.00    +0.000 A 
ATOM     17  C   UNL     1      31.096  22.422  30.647  0.00  0.00    +0.000 A 
ATOM     18  C   UNL     1      29.717  23.005  30.665  0.00  0.00    +0.000 C 
BRANCH  16  19
ATOM     19  N   UNL     1      31.051  22.076  33.046  0.00  0.00    +0.000 N 
ATOM     20  O   UNL     1      30.352  21.100  33.398  0.00  0.00    +0.000 OA
ATOM     21  O   UNL     1      31.214  23.214  33.788  0.00  0.00    +0.000 OA
ENDBRANCH  16  19
ENDBRANCH   2  12
TORSDOF 3
ENDMDL
MODEL 10
REMARK VINA RESULT:      -6.3     20.055     22.121
REMARK  Name = 
REMARK  3 active torsions:
REMARK  status: ('A' for Active; 'I' for Inactive)
REMARK    1  A    between atoms: C_6  and  N_7
REMARK    2  A    between atoms: C_8  and  C_10
REMARK    3  A    between atoms: C_14  and  N_15
REMARK                            x       y       z     vdW  Elec       q    Type
REMARK                         _______ _______ _______ _____ _____    ______ ____
ROOT
ATOM      1  N   UNL     1      34.416  -0.554  34.321  0.00  0.00    +0.000 NA
ATOM      2  C   UNL     1      33.383   0.296  34.767  0.00  0.00    +0.000 C 
ATOM      3  O   UNL     1      32.340  -0.206  35.234  0.00  0.00    +0.000 OA
ENDROOT
BRANCH   1   9
ATOM      4  C   UNL     1      35.329  -4.630  36.779  0.00  0.00    +0.000 C 
ATOM      5  C   UNL     1      34.674  -3.944  35.627  0.00  0.00    +0.000 A 
ATOM      6  C   UNL     1      33.917  -4.639  34.707  0.00  0.00    +0.000 A 
ATOM      7  C   UNL     1      33.296  -4.028  33.627  0.00  0.00    +0.000 A 
ATOM      8  C   UNL     1      33.468  -2.661  33.504  0.00  0.00    +0.000 A 
ATOM      9  C   UNL     1      34.225  -1.959  34.424  0.00  0.00    +0.000 A 
ATOM     10  C   UNL     1      34.833  -2.598  35.492  0.00  0.00    +0.000 A 
ATOM     11  C   UNL     1      35.647  -1.807  36.472  0.00  0.00    +0.000 C 
ENDBRANCH   1   9
BRANCH   2  12
ATOM     12  C   UNL     1      33.559   1.742  34.671  0.00  0.00    +0.000 A 
ATOM     13  C   UNL     1      33.347   2.399  33.471  0.00  0.00    +0.000 A 
ATOM     14  C   UNL     1      33.512   3.750  33.385  0.00  0.00    +0.000 A 
ATOM     15  C   UNL     1      33.893   4.455  34.506  0.00  0.00    +0.000 A 
ATOM     16  C   UNL     1      34.107   3.790  35.717  0.00  0.00    +0.000 A 
ATOM     17  C   UNL     1      33.939   2.431  35.802  0.00  0.00    +0.000 A 
ATOM     18  C   UNL     1      34.159   1.684  37.082  0.00  0.00    +0.000 C 
BRANCH  16  19
ATOM     19  N   UNL     1      34.499   4.538  36.862  0.00  0.00    +0.000 N 
ATOM     20  O   UNL     1      33.588   5.018  37.573  0.00  0.00    +0.000 OA
ATOM     21  O   UNL     1      35.834   4.688  37.116  0.00  0.00    +0.000 OA
ENDBRANCH  16  19
ENDBRANCH   2  12
TORSDOF 3
ENDMDL
