MODEL 1
REMARK VINA RESULT:      -8.9      0.000      0.000
REMARK  Name = 
REMARK  6 active torsions:
REMARK  status: ('A' for Active; 'I' for Inactive)
REMARK    1  A    between atoms: C_2  and  O_3
REMARK    2  A    between atoms: O_3  and  C_4
REMARK    3  A    between atoms: C_9  and  C_10
REMARK    4  A    between atoms: C_10  and  N_11
REMARK    5  A    between atoms: C_12  and  C_14
REMARK    6  A    between atoms: C_16  and  C_17
REMARK                            x       y       z     vdW  Elec       q    Type
REMARK                         _______ _______ _______ _____ _____    ______ ____
ROOT
ATOM      1  C   UNL     1      37.156   3.934  16.056  0.00  0.00    +0.000 A 
ATOM      2  C   UNL     1      38.114   4.244  16.993  0.00  0.00    +0.000 A 
ATOM      3  C   UNL     1      38.762   5.455  16.886  0.00  0.00    +0.000 A 
ATOM      4  N   UNL     1      38.445   6.300  15.877  0.00  0.00    +0.000 NA
ATOM      5  C   UNL     1      37.514   6.005  14.960  0.00  0.00    +0.000 A 
ATOM      6  C   UNL     1      37.211   6.899  13.930  0.00  0.00    +0.000 A 
ATOM      7  C   UNL     1      36.244   6.555  13.008  0.00  0.00    +0.000 A 
ATOM      8  C   UNL     1      35.579   5.339  13.098  0.00  0.00    +0.000 A 
ATOM      9  C   UNL     1      35.869   4.450  14.107  0.00  0.00    +0.000 A 
ATOM     10  C   UNL     1      36.846   4.806  15.034  0.00  0.00    +0.000 A 
ENDROOT
BRANCH   3  11
ATOM     11  C   UNL     1      39.794   5.873  17.832  0.00  0.00    +0.000 A 
ATOM     12  C   UNL     1      39.547   5.990  19.183  0.00  0.00    +0.000 A 
ATOM     13  C   UNL     1      40.508   6.384  20.095  0.00  0.00    +0.000 A 
ATOM     14  C   UNL     1      41.763   6.665  19.597  0.00  0.00    +0.000 A 
ATOM     15  C   UNL     1      42.865   7.100  20.522  0.00  0.00    +0.000 C 
ATOM     16  C   UNL     1      42.079   6.569  18.252  0.00  0.00    +0.000 A 
ATOM     17  C   UNL     1      43.455   6.884  17.745  0.00  0.00    +0.000 C 
ATOM     18  C   UNL     1      41.070   6.170  17.400  0.00  0.00    +0.000 A 
ENDBRANCH   3  11
BRANCH   1  20
ATOM     19  N   UNL     1      36.989   1.425  15.734  0.00  0.00    +0.000 NA
ATOM     20  C   UNL     1      36.428   2.649  16.119  0.00  0.00    +0.000 C 
ATOM     21  O   UNL     1      35.236   2.646  16.540  0.00  0.00    +0.000 OA
BRANCH  19  22
ATOM     22  C   UNL     1      36.250   0.179  15.808  0.00  0.00    +0.000 C 
BRANCH  22  28
ATOM     23  C   UNL     1      37.745  -1.479  16.802  0.00  0.00    +0.000 A 
ATOM     24  C   UNL     1      38.215  -2.161  17.904  0.00  0.00    +0.000 A 
ATOM     25  C   UNL     1      37.744  -1.968  19.186  0.00  0.00    +0.000 A 
ATOM     26  C   UNL     1      36.747  -1.029  19.341  0.00  0.00    +0.000 A 
ATOM     27  C   UNL     1      36.232  -0.311  18.283  0.00  0.00    +0.000 A 
ATOM     28  C   UNL     1      36.747  -0.550  17.006  0.00  0.00    +0.000 A 
BRANCH  23  29
ATOM     29  O   UNL     1      38.238  -1.695  15.528  0.00  0.00    +0.000 OA
BRANCH  29  31
ATOM     30  C   UNL     1      39.934  -0.279  14.712  0.00  0.00    +0.000 C 
ATOM     31  C   UNL     1      39.589  -1.684  15.187  0.00  0.00    +0.000 C 
ENDBRANCH  29  31
ENDBRANCH  23  29
ENDBRANCH  22  28
ENDBRANCH  19  22
ENDBRANCH   1  20
TORSDOF 6
ENDMDL
MODEL 2
REMARK VINA RESULT:      -8.8      0.742      2.041
REMARK  Name = 
REMARK  6 active torsions:
REMARK  status: ('A' for Active; 'I' for Inactive)
REMARK    1  A    between atoms: C_2  and  O_3
REMARK    2  A    between atoms: O_3  and  C_4
REMARK    3  A    between atoms: C_9  and  C_10
REMARK    4  A    between atoms: C_10  and  N_11
REMARK    5  A    between atoms: C_12  and  C_14
REMARK    6  A    between atoms: C_16  and  C_17
REMARK                            x       y       z     vdW  Elec       q    Type
REMARK                         _______ _______ _______ _____ _____    ______ ____
ROOT
ATOM      1  C   UNL     1      37.297   3.907  16.071  0.00  0.00    +0.000 A 
ATOM      2  C   UNL     1      38.257   4.230  17.001  0.00  0.00    +0.000 A 
ATOM      3  C   UNL     1      38.819   5.487  16.948  0.00  0.00    +0.000 A 
ATOM      4  N   UNL     1      38.421   6.361  15.995  0.00  0.00    +0.000 NA
ATOM      5  C   UNL     1      37.487   6.054  15.084  0.00  0.00    +0.000 A 
ATOM      6  C   UNL     1      37.099   6.981  14.113  0.00  0.00    +0.000 A 
ATOM      7  C   UNL     1      36.134   6.622  13.195  0.00  0.00    +0.000 A 
ATOM      8  C   UNL     1      35.553   5.360  13.232  0.00  0.00    +0.000 A 
ATOM      9  C   UNL     1      35.928   4.440  14.183  0.00  0.00    +0.000 A 
ATOM     10  C   UNL     1      36.903   4.811  15.106  0.00  0.00    +0.000 A 
ENDROOT
BRANCH   3  11
ATOM     11  C   UNL     1      39.845   5.922  17.893  0.00  0.00    +0.000 A 
ATOM     12  C   UNL     1      39.588   6.072  19.238  0.00  0.00    +0.000 A 
ATOM     13  C   UNL     1      40.543   6.482  20.149  0.00  0.00    +0.000 A 
ATOM     14  C   UNL     1      41.804   6.745  19.655  0.00  0.00    +0.000 A 
ATOM     15  C   UNL     1      42.900   7.196  20.579  0.00  0.00    +0.000 C 
ATOM     16  C   UNL     1      42.131   6.616  18.316  0.00  0.00    +0.000 A 
ATOM     17  C   UNL     1      43.513   6.911  17.813  0.00  0.00    +0.000 C 
ATOM     18  C   UNL     1      41.127   6.202  17.465  0.00  0.00    +0.000 A 
ENDBRANCH   3  11
BRANCH   1  20
ATOM     19  N   UNL     1      37.271   1.423  15.569  0.00  0.00    +0.000 NA
ATOM     20  C   UNL     1      36.657   2.575  16.078  0.00  0.00    +0.000 C 
ATOM     21  O   UNL     1      35.497   2.460  16.566  0.00  0.00    +0.000 OA
BRANCH  19  22
ATOM     22  C   UNL     1      36.619   0.127  15.591  0.00  0.00    +0.000 C 
BRANCH  22  28
ATOM     23  C   UNL     1      37.563  -1.742  16.849  0.00  0.00    +0.000 A 
ATOM     24  C   UNL     1      38.546  -2.692  17.029  0.00  0.00    +0.000 A 
ATOM     25  C   UNL     1      39.636  -2.835  16.196  0.00  0.00    +0.000 A 
ATOM     26  C   UNL     1      39.717  -1.965  15.131  0.00  0.00    +0.000 A 
ATOM     27  C   UNL     1      38.770  -0.992  14.894  0.00  0.00    +0.000 A 
ATOM     28  C   UNL     1      37.687  -0.893  15.771  0.00  0.00    +0.000 A 
BRANCH  23  29
ATOM     29  O   UNL     1      36.480  -1.622  17.703  0.00  0.00    +0.000 OA
BRANCH  29  31
ATOM     30  C   UNL     1      36.253   0.225  19.146  0.00  0.00    +0.000 C 
ATOM     31  C   UNL     1      36.566  -1.263  19.046  0.00  0.00    +0.000 C 
ENDBRANCH  29  31
ENDBRANCH  23  29
ENDBRANCH  22  28
ENDBRANCH  19  22
ENDBRANCH   1  20
TORSDOF 6
ENDMDL
MODEL 3
REMARK VINA RESULT:      -8.3      2.485      7.786
REMARK  Name = 
REMARK  6 active torsions:
REMARK  status: ('A' for Active; 'I' for Inactive)
REMARK    1  A    between atoms: C_2  and  O_3
REMARK    2  A    between atoms: O_3  and  C_4
REMARK    3  A    between atoms: C_9  and  C_10
REMARK    4  A    between atoms: C_10  and  N_11
REMARK    5  A    between atoms: C_12  and  C_14
REMARK    6  A    between atoms: C_16  and  C_17
REMARK                            x       y       z     vdW  Elec       q    Type
REMARK                         _______ _______ _______ _____ _____    ______ ____
ROOT
ATOM      1  C   UNL     1      37.448   0.541  15.375  0.00  0.00    +0.000 A 
ATOM      2  C   UNL     1      38.597   0.089  14.769  0.00  0.00    +0.000 A 
ATOM      3  C   UNL     1      38.821  -1.269  14.731  0.00  0.00    +0.000 A 
ATOM      4  N   UNL     1      37.921  -2.116  15.282  0.00  0.00    +0.000 NA
ATOM      5  C   UNL     1      36.799  -1.683  15.875  0.00  0.00    +0.000 A 
ATOM      6  C   UNL     1      35.890  -2.584  16.434  0.00  0.00    +0.000 A 
ATOM      7  C   UNL     1      34.748  -2.095  17.035  0.00  0.00    +0.000 A 
ATOM      8  C   UNL     1      34.502  -0.728  17.083  0.00  0.00    +0.000 A 
ATOM      9  C   UNL     1      35.390   0.167  16.536  0.00  0.00    +0.000 A 
ATOM     10  C   UNL     1      36.540  -0.335  15.931  0.00  0.00    +0.000 A 
ENDROOT
BRANCH   3  11
ATOM     11  C   UNL     1      40.012  -1.845  14.110  0.00  0.00    +0.000 A 
ATOM     12  C   UNL     1      39.937  -2.707  13.037  0.00  0.00    +0.000 A 
ATOM     13  C   UNL     1      41.050  -3.263  12.434  0.00  0.00    +0.000 A 
ATOM     14  C   UNL     1      42.280  -2.917  12.956  0.00  0.00    +0.000 A 
ATOM     15  C   UNL     1      43.540  -3.477  12.358  0.00  0.00    +0.000 C 
ATOM     16  C   UNL     1      42.428  -2.057  14.031  0.00  0.00    +0.000 A 
ATOM     17  C   UNL     1      43.781  -1.703  14.573  0.00  0.00    +0.000 C 
ATOM     18  C   UNL     1      41.273  -1.541  14.582  0.00  0.00    +0.000 A 
ENDBRANCH   3  11
BRANCH   1  20
ATOM     19  N   UNL     1      37.654   2.829  16.448  0.00  0.00    +0.000 NA
ATOM     20  C   UNL     1      37.152   1.988  15.446  0.00  0.00    +0.000 C 
ATOM     21  O   UNL     1      36.407   2.500  14.563  0.00  0.00    +0.000 OA
BRANCH  19  22
ATOM     22  C   UNL     1      37.347   4.245  16.492  0.00  0.00    +0.000 C 
BRANCH  22  28
ATOM     23  C   UNL     1      39.442   5.441  16.101  0.00  0.00    +0.000 A 
ATOM     24  C   UNL     1      40.564   6.081  16.581  0.00  0.00    +0.000 A 
ATOM     25  C   UNL     1      40.844   6.239  17.922  0.00  0.00    +0.000 A 
ATOM     26  C   UNL     1      39.927   5.716  18.809  0.00  0.00    +0.000 A 
ATOM     27  C   UNL     1      38.785   5.064  18.397  0.00  0.00    +0.000 A 
ATOM     28  C   UNL     1      38.553   4.934  17.025  0.00  0.00    +0.000 A 
BRANCH  23  29
ATOM     29  O   UNL     1      39.189   5.299  14.748  0.00  0.00    +0.000 OA
BRANCH  29  31
ATOM     30  C   UNL     1      40.077   3.383  13.704  0.00  0.00    +0.000 C 
ATOM     31  C   UNL     1      40.132   4.902  13.802  0.00  0.00    +0.000 C 
ENDBRANCH  29  31
ENDBRANCH  23  29
ENDBRANCH  22  28
ENDBRANCH  19  22
ENDBRANCH   1  20
TORSDOF 6
ENDMDL
MODEL 4
REMARK VINA RESULT:      -8.2     25.538     28.332
REMARK  Name = 
REMARK  6 active torsions:
REMARK  status: ('A' for Active; 'I' for Inactive)
REMARK    1  A    between atoms: C_2  and  O_3
REMARK    2  A    between atoms: O_3  and  C_4
REMARK    3  A    between atoms: C_9  and  C_10
REMARK    4  A    between atoms: C_10  and  N_11
REMARK    5  A    between atoms: C_12  and  C_14
REMARK    6  A    between atoms: C_16  and  C_17
REMARK                            x       y       z     vdW  Elec       q    Type
REMARK                         _______ _______ _______ _____ _____    ______ ____
ROOT
ATOM      1  C   UNL     1      25.767  15.343  39.349  0.00  0.00    +0.000 A 
ATOM      2  C   UNL     1      26.598  14.252  39.447  0.00  0.00    +0.000 A 
ATOM      3  C   UNL     1      26.435  13.403  40.520  0.00  0.00    +0.000 A 
ATOM      4  N   UNL     1      25.475  13.659  41.440  0.00  0.00    +0.000 NA
ATOM      5  C   UNL     1      24.661  14.720  41.352  0.00  0.00    +0.000 A 
ATOM      6  C   UNL     1      23.681  14.955  42.318  0.00  0.00    +0.000 A 
ATOM      7  C   UNL     1      22.864  16.060  42.187  0.00  0.00    +0.000 A 
ATOM      8  C   UNL     1      23.012  16.928  41.113  0.00  0.00    +0.000 A 
ATOM      9  C   UNL     1      23.974  16.706  40.155  0.00  0.00    +0.000 A 
ATOM     10  C   UNL     1      24.793  15.588  40.295  0.00  0.00    +0.000 A 
ENDROOT
BRANCH   3  11
ATOM     11  C   UNL     1      27.269  12.219  40.711  0.00  0.00    +0.000 A 
ATOM     12  C   UNL     1      28.639  12.256  40.568  0.00  0.00    +0.000 A 
ATOM     13  C   UNL     1      29.448  11.148  40.744  0.00  0.00    +0.000 A 
ATOM     14  C   UNL     1      28.821   9.966  41.078  0.00  0.00    +0.000 A 
ATOM     15  C   UNL     1      29.627   8.715  41.288  0.00  0.00    +0.000 C 
ATOM     16  C   UNL     1      27.450   9.858  41.237  0.00  0.00    +0.000 A 
ATOM     17  C   UNL     1      26.801   8.555  41.600  0.00  0.00    +0.000 C 
ATOM     18  C   UNL     1      26.707  11.004  41.046  0.00  0.00    +0.000 A 
ENDBRANCH   3  11
BRANCH   1  20
ATOM     19  N   UNL     1      25.097  16.226  37.069  0.00  0.00    +0.000 NA
ATOM     20  C   UNL     1      25.893  16.288  38.220  0.00  0.00    +0.000 C 
ATOM     21  O   UNL     1      26.763  17.203  38.288  0.00  0.00    +0.000 OA
BRANCH  19  22
ATOM     22  C   UNL     1      25.243  17.168  35.976  0.00  0.00    +0.000 C 
BRANCH  22  28
ATOM     23  C   UNL     1      24.700  16.939  33.605  0.00  0.00    +0.000 A 
ATOM     24  C   UNL     1      24.727  16.213  32.434  0.00  0.00    +0.000 A 
ATOM     25  C   UNL     1      25.297  14.961  32.319  0.00  0.00    +0.000 A 
ATOM     26  C   UNL     1      25.865  14.436  33.459  0.00  0.00    +0.000 A 
ATOM     27  C   UNL     1      25.873  15.108  34.662  0.00  0.00    +0.000 A 
ATOM     28  C   UNL     1      25.280  16.372  34.720  0.00  0.00    +0.000 A 
BRANCH  23  29
ATOM     29  O   UNL     1      24.121  18.193  33.689  0.00  0.00    +0.000 OA
BRANCH  29  31
ATOM     30  C   UNL     1      23.313  19.577  31.964  0.00  0.00    +0.000 C 
ATOM     31  C   UNL     1      24.477  19.285  32.901  0.00  0.00    +0.000 C 
ENDBRANCH  29  31
ENDBRANCH  23  29
ENDBRANCH  22  28
ENDBRANCH  19  22
ENDBRANCH   1  20
TORSDOF 6
ENDMDL
MODEL 5
REMARK VINA RESULT:      -8.1      1.952      2.517
REMARK  Name = 
REMARK  6 active torsions:
REMARK  status: ('A' for Active; 'I' for Inactive)
REMARK    1  A    between atoms: C_2  and  O_3
REMARK    2  A    between atoms: O_3  and  C_4
REMARK    3  A    between atoms: C_9  and  C_10
REMARK    4  A    between atoms: C_10  and  N_11
REMARK    5  A    between atoms: C_12  and  C_14
REMARK    6  A    between atoms: C_16  and  C_17
REMARK                            x       y       z     vdW  Elec       q    Type
REMARK                         _______ _______ _______ _____ _____    ______ ____
ROOT
ATOM      1  C   UNL     1      37.680   3.078  15.753  0.00  0.00    +0.000 A 
ATOM      2  C   UNL     1      37.749   3.914  16.842  0.00  0.00    +0.000 A 
ATOM      3  C   UNL     1      38.478   5.077  16.726  0.00  0.00    +0.000 A 
ATOM      4  N   UNL     1      39.101   5.365  15.559  0.00  0.00    +0.000 NA
ATOM      5  C   UNL     1      39.040   4.556  14.494  0.00  0.00    +0.000 A 
ATOM      6  C   UNL     1      39.695   4.883  13.304  0.00  0.00    +0.000 A 
ATOM      7  C   UNL     1      39.605   4.020  12.232  0.00  0.00    +0.000 A 
ATOM      8  C   UNL     1      38.873   2.843  12.328  0.00  0.00    +0.000 A 
ATOM      9  C   UNL     1      38.224   2.510  13.494  0.00  0.00    +0.000 A 
ATOM     10  C   UNL     1      38.321   3.387  14.571  0.00  0.00    +0.000 A 
ENDROOT
BRANCH   3  11
ATOM     11  C   UNL     1      38.610   6.028  17.827  0.00  0.00    +0.000 A 
ATOM     12  C   UNL     1      39.520   5.849  18.847  0.00  0.00    +0.000 A 
ATOM     13  C   UNL     1      39.662   6.736  19.897  0.00  0.00    +0.000 A 
ATOM     14  C   UNL     1      38.838   7.842  19.895  0.00  0.00    +0.000 A 
ATOM     15  C   UNL     1      38.928   8.855  21.002  0.00  0.00    +0.000 C 
ATOM     16  C   UNL     1      37.902   8.084  18.904  0.00  0.00    +0.000 A 
ATOM     17  C   UNL     1      37.021   9.298  18.934  0.00  0.00    +0.000 C 
ATOM     18  C   UNL     1      37.817   7.156  17.886  0.00  0.00    +0.000 A 
ENDBRANCH   3  11
BRANCH   1  20
ATOM     19  N   UNL     1      37.478   0.587  16.180  0.00  0.00    +0.000 NA
ATOM     20  C   UNL     1      36.912   1.817  15.818  0.00  0.00    +0.000 C 
ATOM     21  O   UNL     1      35.681   1.839  15.533  0.00  0.00    +0.000 OA
BRANCH  19  22
ATOM     22  C   UNL     1      36.699  -0.635  16.235  0.00  0.00    +0.000 C 
BRANCH  22  28
ATOM     23  C   UNL     1      38.213  -2.405  16.974  0.00  0.00    +0.000 A 
ATOM     24  C   UNL     1      38.751  -3.180  17.978  0.00  0.00    +0.000 A 
ATOM     25  C   UNL     1      38.401  -3.066  19.308  0.00  0.00    +0.000 A 
ATOM     26  C   UNL     1      37.456  -2.112  19.616  0.00  0.00    +0.000 A 
ATOM     27  C   UNL     1      36.878  -1.304  18.661  0.00  0.00    +0.000 A 
ATOM     28  C   UNL     1      37.271  -1.464  17.330  0.00  0.00    +0.000 A 
BRANCH  23  29
ATOM     29  O   UNL     1      38.585  -2.543  15.648  0.00  0.00    +0.000 OA
BRANCH  29  31
ATOM     30  C   UNL     1      40.227  -1.120  14.741  0.00  0.00    +0.000 C 
ATOM     31  C   UNL     1      39.900  -2.538  15.189  0.00  0.00    +0.000 C 
ENDBRANCH  29  31
ENDBRANCH  23  29
ENDBRANCH  22  28
ENDBRANCH  19  22
ENDBRANCH   1  20
TORSDOF 6
ENDMDL
MODEL 6
REMARK VINA RESULT:      -8.1      2.483      8.151
REMARK  Name = 
REMARK  6 active torsions:
REMARK  status: ('A' for Active; 'I' for Inactive)
REMARK    1  A    between atoms: C_2  and  O_3
REMARK    2  A    between atoms: O_3  and  C_4
REMARK    3  A    between atoms: C_9  and  C_10
REMARK    4  A    between atoms: C_10  and  N_11
REMARK    5  A    between atoms: C_12  and  C_14
REMARK    6  A    between atoms: C_16  and  C_17
REMARK                            x       y       z     vdW  Elec       q    Type
REMARK                         _______ _______ _______ _____ _____    ______ ____
ROOT
ATOM      1  C   UNL     1      37.977   1.925  15.234  0.00  0.00    +0.000 A 
ATOM      2  C   UNL     1      38.982   1.250  14.582  0.00  0.00    +0.000 A 
ATOM      3  C   UNL     1      38.884  -0.120  14.477  0.00  0.00    +0.000 A 
ATOM      4  N   UNL     1      37.818  -0.761  15.010  0.00  0.00    +0.000 NA
ATOM      5  C   UNL     1      36.835  -0.111  15.647  0.00  0.00    +0.000 A 
ATOM      6  C   UNL     1      35.748  -0.803  16.186  0.00  0.00    +0.000 A 
ATOM      7  C   UNL     1      34.758  -0.092  16.835  0.00  0.00    +0.000 A 
ATOM      8  C   UNL     1      34.837   1.290  16.951  0.00  0.00    +0.000 A 
ATOM      9  C   UNL     1      35.903   1.981  16.424  0.00  0.00    +0.000 A 
ATOM     10  C   UNL     1      36.897   1.256  15.771  0.00  0.00    +0.000 A 
ENDROOT
BRANCH   3  11
ATOM     11  C   UNL     1      39.901  -0.924  13.803  0.00  0.00    +0.000 A 
ATOM     12  C   UNL     1      41.119  -1.206  14.384  0.00  0.00    +0.000 A 
ATOM     13  C   UNL     1      42.094  -1.964  13.765  0.00  0.00    +0.000 A 
ATOM     14  C   UNL     1      41.804  -2.447  12.506  0.00  0.00    +0.000 A 
ATOM     15  C   UNL     1      42.811  -3.280  11.764  0.00  0.00    +0.000 C 
ATOM     16  C   UNL     1      40.602  -2.202  11.863  0.00  0.00    +0.000 A 
ATOM     17  C   UNL     1      40.320  -2.742  10.493  0.00  0.00    +0.000 C 
ATOM     18  C   UNL     1      39.676  -1.437  12.542  0.00  0.00    +0.000 A 
ENDBRANCH   3  11
BRANCH   1  20
ATOM     19  N   UNL     1      38.540   4.042  16.510  0.00  0.00    +0.000 NA
ATOM     20  C   UNL     1      38.026   3.396  15.379  0.00  0.00    +0.000 C 
ATOM     21  O   UNL     1      37.584   4.114  14.438  0.00  0.00    +0.000 OA
BRANCH  19  22
ATOM     22  C   UNL     1      38.576   5.488  16.624  0.00  0.00    +0.000 C 
BRANCH  22  28
ATOM     23  C   UNL     1      40.483   6.132  18.009  0.00  0.00    +0.000 A 
ATOM     24  C   UNL     1      41.807   6.494  18.132  0.00  0.00    +0.000 A 
ATOM     25  C   UNL     1      42.672   6.616  17.064  0.00  0.00    +0.000 A 
ATOM     26  C   UNL     1      42.152   6.352  15.816  0.00  0.00    +0.000 A 
ATOM     27  C   UNL     1      40.837   5.985  15.622  0.00  0.00    +0.000 A 
ATOM     28  C   UNL     1      40.007   5.878  16.741  0.00  0.00    +0.000 A 
BRANCH  23  29
ATOM     29  O   UNL     1      39.639   6.018  19.100  0.00  0.00    +0.000 OA
BRANCH  29  31
ATOM     30  C   UNL     1      38.487   8.044  19.439  0.00  0.00    +0.000 C 
ATOM     31  C   UNL     1      39.432   7.016  20.049  0.00  0.00    +0.000 C 
ENDBRANCH  29  31
ENDBRANCH  23  29
ENDBRANCH  22  28
ENDBRANCH  19  22
ENDBRANCH   1  20
TORSDOF 6
ENDMDL
MODEL 7
REMARK VINA RESULT:      -7.9      2.972      7.243
REMARK  Name = 
REMARK  6 active torsions:
REMARK  status: ('A' for Active; 'I' for Inactive)
REMARK    1  A    between atoms: C_2  and  O_3
REMARK    2  A    between atoms: O_3  and  C_4
REMARK    3  A    between atoms: C_9  and  C_10
REMARK    4  A    between atoms: C_10  and  N_11
REMARK    5  A    between atoms: C_12  and  C_14
REMARK    6  A    between atoms: C_16  and  C_17
REMARK                            x       y       z     vdW  Elec       q    Type
REMARK                         _______ _______ _______ _____ _____    ______ ____
ROOT
ATOM      1  C   UNL     1      36.816   5.001  15.070  0.00  0.00    +0.000 A 
ATOM      2  C   UNL     1      37.834   5.611  15.765  0.00  0.00    +0.000 A 
ATOM      3  C   UNL     1      38.338   4.972  16.876  0.00  0.00    +0.000 A 
ATOM      4  N   UNL     1      37.828   3.776  17.253  0.00  0.00    +0.000 NA
ATOM      5  C   UNL     1      36.835   3.176  16.582  0.00  0.00    +0.000 A 
ATOM      6  C   UNL     1      36.331   1.942  16.998  0.00  0.00    +0.000 A 
ATOM      7  C   UNL     1      35.309   1.359  16.277  0.00  0.00    +0.000 A 
ATOM      8  C   UNL     1      34.787   1.987  15.153  0.00  0.00    +0.000 A 
ATOM      9  C   UNL     1      35.276   3.202  14.734  0.00  0.00    +0.000 A 
ATOM     10  C   UNL     1      36.308   3.782  15.468  0.00  0.00    +0.000 A 
ENDROOT
BRANCH   3  11
ATOM     11  C   UNL     1      39.419   5.540  17.678  0.00  0.00    +0.000 A 
ATOM     12  C   UNL     1      39.290   5.760  19.033  0.00  0.00    +0.000 A 
ATOM     13  C   UNL     1      40.299   6.296  19.811  0.00  0.00    +0.000 A 
ATOM     14  C   UNL     1      41.478   6.614  19.170  0.00  0.00    +0.000 A 
ATOM     15  C   UNL     1      42.625   7.201  19.944  0.00  0.00    +0.000 C 
ATOM     16  C   UNL     1      41.676   6.420  17.814  0.00  0.00    +0.000 A 
ATOM     17  C   UNL     1      42.972   6.778  17.149  0.00  0.00    +0.000 C 
ATOM     18  C   UNL     1      40.625   5.881  17.101  0.00  0.00    +0.000 A 
ENDBRANCH   3  11
BRANCH   1  20
ATOM     19  N   UNL     1      35.014   6.325  13.875  0.00  0.00    +0.000 NA
ATOM     20  C   UNL     1      36.235   5.639  13.869  0.00  0.00    +0.000 C 
ATOM     21  O   UNL     1      36.866   5.565  12.777  0.00  0.00    +0.000 OA
BRANCH  19  22
ATOM     22  C   UNL     1      34.468   6.941  12.681  0.00  0.00    +0.000 C 
BRANCH  22  28
ATOM     23  C   UNL     1      34.912   9.211  11.894  0.00  0.00    +0.000 A 
ATOM     24  C   UNL     1      34.907  10.574  12.100  0.00  0.00    +0.000 A 
ATOM     25  C   UNL     1      34.476  11.173  13.266  0.00  0.00    +0.000 A 
ATOM     26  C   UNL     1      34.029  10.332  14.262  0.00  0.00    +0.000 A 
ATOM     27  C   UNL     1      34.007   8.961  14.121  0.00  0.00    +0.000 A 
ATOM     28  C   UNL     1      34.456   8.410  12.919  0.00  0.00    +0.000 A 
BRANCH  23  29
ATOM     29  O   UNL     1      35.352   8.640  10.713  0.00  0.00    +0.000 OA
BRANCH  29  31
ATOM     30  C   UNL     1      34.287   7.497   8.950  0.00  0.00    +0.000 C 
ATOM     31  C   UNL     1      34.767   8.848   9.465  0.00  0.00    +0.000 C 
ENDBRANCH  29  31
ENDBRANCH  23  29
ENDBRANCH  22  28
ENDBRANCH  19  22
ENDBRANCH   1  20
TORSDOF 6
ENDMDL
MODEL 8
REMARK VINA RESULT:      -7.7      2.546      7.898
REMARK  Name = 
REMARK  6 active torsions:
REMARK  status: ('A' for Active; 'I' for Inactive)
REMARK    1  A    between atoms: C_2  and  O_3
REMARK    2  A    between atoms: O_3  and  C_4
REMARK    3  A    between atoms: C_9  and  C_10
REMARK    4  A    between atoms: C_10  and  N_11
REMARK    5  A    between atoms: C_12  and  C_14
REMARK    6  A    between atoms: C_16  and  C_17
REMARK                            x       y       z     vdW  Elec       q    Type
REMARK                         _______ _______ _______ _____ _____    ______ ____
ROOT
ATOM      1  C   UNL     1      37.996   2.100  15.240  0.00  0.00    +0.000 A 
ATOM      2  C   UNL     1      39.087   1.432  14.735  0.00  0.00    +0.000 A 
ATOM      3  C   UNL     1      39.084   0.055  14.775  0.00  0.00    +0.000 A 
ATOM      4  N   UNL     1      38.023  -0.599  15.303  0.00  0.00    +0.000 NA
ATOM      5  C   UNL     1      36.957   0.044  15.797  0.00  0.00    +0.000 A 
ATOM      6  C   UNL     1      35.878  -0.662  16.335  0.00  0.00    +0.000 A 
ATOM      7  C   UNL     1      34.800   0.041  16.833  0.00  0.00    +0.000 A 
ATOM      8  C   UNL     1      34.783   1.429  16.801  0.00  0.00    +0.000 A 
ATOM      9  C   UNL     1      35.840   2.135  16.274  0.00  0.00    +0.000 A 
ATOM     10  C   UNL     1      36.923   1.417  15.774  0.00  0.00    +0.000 A 
ENDROOT
BRANCH   3  11
ATOM     11  C   UNL     1      40.196  -0.742  14.264  0.00  0.00    +0.000 A 
ATOM     12  C   UNL     1      40.047  -2.063  13.902  0.00  0.00    +0.000 A 
ATOM     13  C   UNL     1      41.086  -2.835  13.416  0.00  0.00    +0.000 A 
ATOM     14  C   UNL     1      42.317  -2.224  13.300  0.00  0.00    +0.000 A 
ATOM     15  C   UNL     1      43.498  -2.993  12.780  0.00  0.00    +0.000 C 
ATOM     16  C   UNL     1      42.537  -0.901  13.646  0.00  0.00    +0.000 A 
ATOM     17  C   UNL     1      43.890  -0.269  13.508  0.00  0.00    +0.000 C 
ATOM     18  C   UNL     1      41.454  -0.192  14.124  0.00  0.00    +0.000 A 
ENDBRANCH   3  11
BRANCH   1  20
ATOM     19  N   UNL     1      38.268   4.373  16.329  0.00  0.00    +0.000 NA
ATOM     20  C   UNL     1      37.942   3.577  15.223  0.00  0.00    +0.000 C 
ATOM     21  O   UNL     1      37.583   4.160  14.162  0.00  0.00    +0.000 OA
BRANCH  19  22
ATOM     22  C   UNL     1      38.207   5.821  16.284  0.00  0.00    +0.000 C 
BRANCH  22  28
ATOM     23  C   UNL     1      38.157   7.523  18.037  0.00  0.00    +0.000 A 
ATOM     24  C   UNL     1      38.577   7.993  19.263  0.00  0.00    +0.000 A 
ATOM     25  C   UNL     1      39.472   7.329  20.075  0.00  0.00    +0.000 A 
ATOM     26  C   UNL     1      39.955   6.127  19.607  0.00  0.00    +0.000 A 
ATOM     27  C   UNL     1      39.577   5.599  18.391  0.00  0.00    +0.000 A 
ATOM     28  C   UNL     1      38.668   6.316  17.609  0.00  0.00    +0.000 A 
BRANCH  23  29
ATOM     29  O   UNL     1      37.258   8.213  17.244  0.00  0.00    +0.000 OA
BRANCH  29  31
ATOM     30  C   UNL     1      36.909  10.215  16.054  0.00  0.00    +0.000 C 
ATOM     31  C   UNL     1      36.905   9.549  17.423  0.00  0.00    +0.000 C 
ENDBRANCH  29  31
ENDBRANCH  23  29
ENDBRANCH  22  28
ENDBRANCH  19  22
ENDBRANCH   1  20
TORSDOF 6
ENDMDL
MODEL 9
REMARK VINA RESULT:      -7.6      2.537      4.842
REMARK  Name = 
REMARK  6 active torsions:
REMARK  status: ('A' for Active; 'I' for Inactive)
REMARK    1  A    between atoms: C_2  and  O_3
REMARK    2  A    between atoms: O_3  and  C_4
REMARK    3  A    between atoms: C_9  and  C_10
REMARK    4  A    between atoms: C_10  and  N_11
REMARK    5  A    between atoms: C_12  and  C_14
REMARK    6  A    between atoms: C_16  and  C_17
REMARK                            x       y       z     vdW  Elec       q    Type
REMARK                         _______ _______ _______ _____ _____    ______ ____
ROOT
ATOM      1  C   UNL     1      39.944   6.549  17.920  0.00  0.00    +0.000 A 
ATOM      2  C   UNL     1      41.231   6.258  18.309  0.00  0.00    +0.000 A 
ATOM      3  C   UNL     1      41.675   6.756  19.515  0.00  0.00    +0.000 A 
ATOM      4  N   UNL     1      40.848   7.509  20.277  0.00  0.00    +0.000 NA
ATOM      5  C   UNL     1      39.594   7.798  19.905  0.00  0.00    +0.000 A 
ATOM      6  C   UNL     1      38.766   8.578  20.715  0.00  0.00    +0.000 A 
ATOM      7  C   UNL     1      37.481   8.851  20.293  0.00  0.00    +0.000 A 
ATOM      8  C   UNL     1      37.013   8.358  19.081  0.00  0.00    +0.000 A 
ATOM      9  C   UNL     1      37.819   7.588  18.275  0.00  0.00    +0.000 A 
ATOM     10  C   UNL     1      39.115   7.318  18.710  0.00  0.00    +0.000 A 
ENDROOT
BRANCH   3  11
ATOM     11  C   UNL     1      43.025   6.501  20.013  0.00  0.00    +0.000 A 
ATOM     12  C   UNL     1      44.147   6.747  19.251  0.00  0.00    +0.000 A 
ATOM     13  C   UNL     1      45.433   6.514  19.703  0.00  0.00    +0.000 A 
ATOM     14  C   UNL     1      45.563   6.011  20.980  0.00  0.00    +0.000 A 
ATOM     15  C   UNL     1      46.926   5.729  21.547  0.00  0.00    +0.000 C 
ATOM     16  C   UNL     1      44.480   5.741  21.799  0.00  0.00    +0.000 A 
ATOM     17  C   UNL     1      44.659   5.193  23.184  0.00  0.00    +0.000 C 
ATOM     18  C   UNL     1      43.227   5.998  21.282  0.00  0.00    +0.000 A 
ENDBRANCH   3  11
BRANCH   1  20
ATOM     19  N   UNL     1      38.755   4.812  16.508  0.00  0.00    +0.000 NA
ATOM     20  C   UNL     1      39.411   6.043  16.638  0.00  0.00    +0.000 C 
ATOM     21  O   UNL     1      39.551   6.750  15.600  0.00  0.00    +0.000 OA
BRANCH  19  22
ATOM     22  C   UNL     1      38.242   4.341  15.237  0.00  0.00    +0.000 C 
BRANCH  22  28
ATOM     23  C   UNL     1      37.686   1.970  15.439  0.00  0.00    +0.000 A 
ATOM     24  C   UNL     1      36.777   0.971  15.715  0.00  0.00    +0.000 A 
ATOM     25  C   UNL     1      35.468   1.204  16.082  0.00  0.00    +0.000 A 
ATOM     26  C   UNL     1      35.077   2.523  16.169  0.00  0.00    +0.000 A 
ATOM     27  C   UNL     1      35.935   3.569  15.906  0.00  0.00    +0.000 A 
ATOM     28  C   UNL     1      37.250   3.273  15.538  0.00  0.00    +0.000 A 
BRANCH  23  29
ATOM     29  O   UNL     1      38.994   1.704  15.073  0.00  0.00    +0.000 OA
BRANCH  29  31
ATOM     30  C   UNL     1      40.013  -0.371  14.625  0.00  0.00    +0.000 C 
ATOM     31  C   UNL     1      39.369   0.870  14.022  0.00  0.00    +0.000 C 
ENDBRANCH  29  31
ENDBRANCH  23  29
ENDBRANCH  22  28
ENDBRANCH  19  22
ENDBRANCH   1  20
TORSDOF 6
ENDMDL
MODEL 10
REMARK VINA RESULT:      -7.6      2.564      8.019
REMARK  Name = 
REMARK  6 active torsions:
REMARK  status: ('A' for Active; 'I' for Inactive)
REMARK    1  A    between atoms: C_2  and  O_3
REMARK    2  A    between atoms: O_3  and  C_4
REMARK    3  A    between atoms: C_9  and  C_10
REMARK    4  A    between atoms: C_10  and  N_11
REMARK    5  A    between atoms: C_12  and  C_14
REMARK    6  A    between atoms: C_16  and  C_17
REMARK                            x       y       z     vdW  Elec       q    Type
REMARK                         _______ _______ _______ _____ _____    ______ ____
ROOT
ATOM      1  C   UNL     1      37.735   4.264  16.019  0.00  0.00    +0.000 A 
ATOM      2  C   UNL     1      37.526   2.910  16.141  0.00  0.00    +0.000 A 
ATOM      3  C   UNL     1      36.546   2.330  15.367  0.00  0.00    +0.000 A 
ATOM      4  N   UNL     1      35.821   3.093  14.517  0.00  0.00    +0.000 NA
ATOM      5  C   UNL     1      36.017   4.413  14.392  0.00  0.00    +0.000 A 
ATOM      6  C   UNL     1      35.251   5.172  13.505  0.00  0.00    +0.000 A 
ATOM      7  C   UNL     1      35.487   6.528  13.409  0.00  0.00    +0.000 A 
ATOM      8  C   UNL     1      36.472   7.133  14.180  0.00  0.00    +0.000 A 
ATOM      9  C   UNL     1      37.232   6.395  15.057  0.00  0.00    +0.000 A 
ATOM     10  C   UNL     1      36.987   5.027  15.147  0.00  0.00    +0.000 A 
ENDROOT
BRANCH   3  11
ATOM     11  C   UNL     1      36.251   0.900  15.426  0.00  0.00    +0.000 A 
ATOM     12  C   UNL     1      36.827  -0.006  14.561  0.00  0.00    +0.000 A 
ATOM     13  C   UNL     1      36.562  -1.361  14.600  0.00  0.00    +0.000 A 
ATOM     14  C   UNL     1      35.674  -1.796  15.562  0.00  0.00    +0.000 A 
ATOM     15  C   UNL     1      35.332  -3.256  15.672  0.00  0.00    +0.000 C 
ATOM     16  C   UNL     1      35.060  -0.942  16.462  0.00  0.00    +0.000 A 
ATOM     17  C   UNL     1      34.098  -1.450  17.496  0.00  0.00    +0.000 C 
ATOM     18  C   UNL     1      35.372   0.398  16.364  0.00  0.00    +0.000 A 
ENDBRANCH   3  11
BRANCH   1  20
ATOM     19  N   UNL     1      38.624   5.235  18.185  0.00  0.00    +0.000 NA
ATOM     20  C   UNL     1      38.773   4.943  16.823  0.00  0.00    +0.000 C 
ATOM     21  O   UNL     1      39.853   5.281  16.261  0.00  0.00    +0.000 OA
BRANCH  19  22
ATOM     22  C   UNL     1      39.661   5.902  18.949  0.00  0.00    +0.000 C 
BRANCH  22  28
ATOM     23  C   UNL     1      39.877   7.966  20.240  0.00  0.00    +0.000 A 
ATOM     24  C   UNL     1      39.375   9.183  20.647  0.00  0.00    +0.000 A 
ATOM     25  C   UNL     1      38.155   9.684  20.243  0.00  0.00    +0.000 A 
ATOM     26  C   UNL     1      37.420   8.899  19.382  0.00  0.00    +0.000 A 
ATOM     27  C   UNL     1      37.863   7.672  18.937  0.00  0.00    +0.000 A 
ATOM     28  C   UNL     1      39.106   7.214  19.379  0.00  0.00    +0.000 A 
BRANCH  23  29
ATOM     29  O   UNL     1      41.106   7.490  20.663  0.00  0.00    +0.000 OA
BRANCH  29  31
ATOM     30  C   UNL     1      43.065   7.176  19.395  0.00  0.00    +0.000 C 
ATOM     31  C   UNL     1      42.330   8.086  20.370  0.00  0.00    +0.000 C 
ENDBRANCH  29  31
ENDBRANCH  23  29
ENDBRANCH  22  28
ENDBRANCH  19  22
ENDBRANCH   1  20
TORSDOF 6
ENDMDL
