MODEL 1
REMARK VINA RESULT:      -7.9      0.000      0.000
REMARK  Name = 
REMARK  3 active torsions:
REMARK  status: ('A' for Active; 'I' for Inactive)
REMARK    1  A    between atoms: C_5  and  C_6
REMARK    2  A    between atoms: N_8  and  C_9
REMARK    3  A    between atoms: C_18  and  N_19
REMARK                            x       y       z     vdW  Elec       q    Type
REMARK                         _______ _______ _______ _____ _____    ______ ____
ROOT
ATOM      1  C   UNL     1      15.539  12.218  36.404  0.00  0.00    +0.000 C 
ATOM      2  O   UNL     1      16.349  13.109  36.075  0.00  0.00    +0.000 OA
ATOM      3  N   UNL     1      14.390  12.052  35.583  0.00  0.00    +0.000 NA
ENDROOT
BRANCH   3   4
ATOM      4  C   UNL     1      14.173  12.866  34.437  0.00  0.00    +0.000 A 
ATOM      5  C   UNL     1      13.543  14.085  34.570  0.00  0.00    +0.000 A 
ATOM      6  C   UNL     1      13.318  14.904  33.464  0.00  0.00    +0.000 A 
ATOM      7  C   UNL     1      13.732  14.495  32.201  0.00  0.00    +0.000 A 
ATOM      8  C   UNL     1      14.357  13.289  32.060  0.00  0.00    +0.000 A 
ATOM      9  C   UNL     1      14.787  12.881  30.701  0.00  0.00    +0.000 C 
ATOM     10  C   UNL     1      14.574  12.484  33.177  0.00  0.00    +0.000 A 
ATOM     11  C   UNL     1      15.250  11.184  33.020  0.00  0.00    +0.000 C 
ENDBRANCH   3   4
BRANCH   1  16
ATOM     12  C   UNL     1      16.184   8.948  41.020  0.00  0.00    +0.000 C 
ATOM     13  C   UNL     1      16.060   9.799  39.801  0.00  0.00    +0.000 A 
ATOM     14  C   UNL     1      14.802  10.308  39.527  0.00  0.00    +0.000 A 
ATOM     15  C   UNL     1      14.671  11.098  38.402  0.00  0.00    +0.000 A 
ATOM     16  C   UNL     1      15.750  11.367  37.588  0.00  0.00    +0.000 A 
ATOM     17  C   UNL     1      16.994  10.849  37.882  0.00  0.00    +0.000 A 
ATOM     18  C   UNL     1      17.157  10.056  38.999  0.00  0.00    +0.000 A 
BRANCH  18  19
ATOM     19  N   UNL     1      18.430   9.498  39.342  0.00  0.00    +0.000 N 
ATOM     20  O   UNL     1      18.698   8.389  38.837  0.00  0.00    +0.000 OA
ATOM     21  O   UNL     1      19.315  10.131  40.174  0.00  0.00    +0.000 OA
ENDBRANCH  18  19
ENDBRANCH   1  16
TORSDOF 3
ENDMDL
MODEL 2
REMARK VINA RESULT:      -7.5      1.590      2.055
REMARK  Name = 
REMARK  3 active torsions:
REMARK  status: ('A' for Active; 'I' for Inactive)
REMARK    1  A    between atoms: C_5  and  C_6
REMARK    2  A    between atoms: N_8  and  C_9
REMARK    3  A    between atoms: C_18  and  N_19
REMARK                            x       y       z     vdW  Elec       q    Type
REMARK                         _______ _______ _______ _____ _____    ______ ____
ROOT
ATOM      1  C   UNL     1      16.496  11.746  36.321  0.00  0.00    +0.000 C 
ATOM      2  O   UNL     1      16.978  12.884  36.149  0.00  0.00    +0.000 OA
ATOM      3  N   UNL     1      15.362  11.396  35.538  0.00  0.00    +0.000 NA
ENDROOT
BRANCH   3   4
ATOM      4  C   UNL     1      14.800  12.305  34.600  0.00  0.00    +0.000 A 
ATOM      5  C   UNL     1      14.037  13.365  35.042  0.00  0.00    +0.000 A 
ATOM      6  C   UNL     1      13.474  14.271  34.145  0.00  0.00    +0.000 A 
ATOM      7  C   UNL     1      13.680  14.115  32.779  0.00  0.00    +0.000 A 
ATOM      8  C   UNL     1      14.435  13.069  32.332  0.00  0.00    +0.000 A 
ATOM      9  C   UNL     1      14.637  12.929  30.869  0.00  0.00    +0.000 C 
ATOM     10  C   UNL     1      14.990  12.173  33.243  0.00  0.00    +0.000 A 
ATOM     11  C   UNL     1      15.804  11.045  32.756  0.00  0.00    +0.000 C 
ENDBRANCH   3   4
BRANCH   1  16
ATOM     12  C   UNL     1      18.832   8.026  39.945  0.00  0.00    +0.000 C 
ATOM     13  C   UNL     1      18.187   9.010  39.027  0.00  0.00    +0.000 A 
ATOM     14  C   UNL     1      18.782   9.183  37.788  0.00  0.00    +0.000 A 
ATOM     15  C   UNL     1      18.198  10.090  36.928  0.00  0.00    +0.000 A 
ATOM     16  C   UNL     1      17.068  10.793  37.290  0.00  0.00    +0.000 A 
ATOM     17  C   UNL     1      16.493  10.603  38.529  0.00  0.00    +0.000 A 
ATOM     18  C   UNL     1      17.054   9.703  39.411  0.00  0.00    +0.000 A 
BRANCH  18  19
ATOM     19  N   UNL     1      16.491   9.475  40.707  0.00  0.00    +0.000 N 
ATOM     20  O   UNL     1      15.424   8.828  40.737  0.00  0.00    +0.000 OA
ATOM     21  O   UNL     1      17.076   9.933  41.859  0.00  0.00    +0.000 OA
ENDBRANCH  18  19
ENDBRANCH   1  16
TORSDOF 3
ENDMDL
MODEL 3
REMARK VINA RESULT:      -7.3      2.606      7.647
REMARK  Name = 
REMARK  3 active torsions:
REMARK  status: ('A' for Active; 'I' for Inactive)
REMARK    1  A    between atoms: C_5  and  C_6
REMARK    2  A    between atoms: N_8  and  C_9
REMARK    3  A    between atoms: C_18  and  N_19
REMARK                            x       y       z     vdW  Elec       q    Type
REMARK                         _______ _______ _______ _____ _____    ______ ____
ROOT
ATOM      1  C   UNL     1      16.574  10.773  35.843  0.00  0.00    +0.000 C 
ATOM      2  O   UNL     1      16.857   9.580  35.608  0.00  0.00    +0.000 OA
ATOM      3  N   UNL     1      17.004  11.310  37.087  0.00  0.00    +0.000 NA
ENDROOT
BRANCH   3   4
ATOM      4  C   UNL     1      17.726  10.520  38.024  0.00  0.00    +0.000 A 
ATOM      5  C   UNL     1      19.075  10.302  37.845  0.00  0.00    +0.000 A 
ATOM      6  C   UNL     1      19.807   9.531  38.748  0.00  0.00    +0.000 A 
ATOM      7  C   UNL     1      19.176   8.970  39.852  0.00  0.00    +0.000 A 
ATOM      8  C   UNL     1      17.840   9.181  40.038  0.00  0.00    +0.000 A 
ATOM      9  C   UNL     1      17.196   8.569  41.226  0.00  0.00    +0.000 C 
ATOM     10  C   UNL     1      17.125   9.953  39.125  0.00  0.00    +0.000 A 
ATOM     11  C   UNL     1      15.682  10.179  39.331  0.00  0.00    +0.000 C 
ENDBRANCH   3   4
BRANCH   1  16
ATOM     12  C   UNL     1      13.612  14.063  32.261  0.00  0.00    +0.000 C 
ATOM     13  C   UNL     1      14.408  13.179  33.163  0.00  0.00    +0.000 A 
ATOM     14  C   UNL     1      14.240  13.372  34.524  0.00  0.00    +0.000 A 
ATOM     15  C   UNL     1      14.968  12.563  35.371  0.00  0.00    +0.000 A 
ATOM     16  C   UNL     1      15.827  11.603  34.880  0.00  0.00    +0.000 A 
ATOM     17  C   UNL     1      15.978  11.429  33.520  0.00  0.00    +0.000 A 
ATOM     18  C   UNL     1      15.262  12.223  32.648  0.00  0.00    +0.000 A 
BRANCH  18  19
ATOM     19  N   UNL     1      15.388  12.077  31.229  0.00  0.00    +0.000 N 
ATOM     20  O   UNL     1      16.333  12.692  30.694  0.00  0.00    +0.000 OA
ATOM     21  O   UNL     1      14.529  11.310  30.485  0.00  0.00    +0.000 OA
ENDBRANCH  18  19
ENDBRANCH   1  16
TORSDOF 3
ENDMDL
MODEL 4
REMARK VINA RESULT:      -6.7      1.954      3.068
REMARK  Name = 
REMARK  3 active torsions:
REMARK  status: ('A' for Active; 'I' for Inactive)
REMARK    1  A    between atoms: C_5  and  C_6
REMARK    2  A    between atoms: N_8  and  C_9
REMARK    3  A    between atoms: C_18  and  N_19
REMARK                            x       y       z     vdW  Elec       q    Type
REMARK                         _______ _______ _______ _____ _____    ______ ____
ROOT
ATOM      1  C   UNL     1      17.434  11.345  36.488  0.00  0.00    +0.000 C 
ATOM      2  O   UNL     1      17.948  12.365  35.984  0.00  0.00    +0.000 OA
ATOM      3  N   UNL     1      16.437  10.676  35.727  0.00  0.00    +0.000 NA
ENDROOT
BRANCH   3   4
ATOM      4  C   UNL     1      16.042  11.150  34.446  0.00  0.00    +0.000 A 
ATOM      5  C   UNL     1      16.583  10.589  33.309  0.00  0.00    +0.000 A 
ATOM      6  C   UNL     1      16.214  11.033  32.040  0.00  0.00    +0.000 A 
ATOM      7  C   UNL     1      15.285  12.060  31.906  0.00  0.00    +0.000 A 
ATOM      8  C   UNL     1      14.744  12.621  33.027  0.00  0.00    +0.000 A 
ATOM      9  C   UNL     1      13.756  13.713  32.852  0.00  0.00    +0.000 C 
ATOM     10  C   UNL     1      15.125  12.164  34.287  0.00  0.00    +0.000 A 
ATOM     11  C   UNL     1      14.538  12.774  35.494  0.00  0.00    +0.000 C 
ENDBRANCH   3   4
BRANCH   1  16
ATOM     12  C   UNL     1      19.139   9.482  41.592  0.00  0.00    +0.000 C 
ATOM     13  C   UNL     1      18.651   9.950  40.261  0.00  0.00    +0.000 A 
ATOM     14  C   UNL     1      19.539  10.695  39.504  0.00  0.00    +0.000 A 
ATOM     15  C   UNL     1      19.103  11.135  38.271  0.00  0.00    +0.000 A 
ATOM     16  C   UNL     1      17.835  10.843  37.816  0.00  0.00    +0.000 A 
ATOM     17  C   UNL     1      16.968  10.099  38.588  0.00  0.00    +0.000 A 
ATOM     18  C   UNL     1      17.376   9.645  39.825  0.00  0.00    +0.000 A 
BRANCH  18  19
ATOM     19  N   UNL     1      16.509   8.869  40.660  0.00  0.00    +0.000 N 
ATOM     20  O   UNL     1      15.610   9.498  41.255  0.00  0.00    +0.000 OA
ATOM     21  O   UNL     1      16.644   7.513  40.809  0.00  0.00    +0.000 OA
ENDBRANCH  18  19
ENDBRANCH   1  16
TORSDOF 3
ENDMDL
MODEL 5
REMARK VINA RESULT:      -6.6     18.810     19.954
REMARK  Name = 
REMARK  3 active torsions:
REMARK  status: ('A' for Active; 'I' for Inactive)
REMARK    1  A    between atoms: C_5  and  C_6
REMARK    2  A    between atoms: N_8  and  C_9
REMARK    3  A    between atoms: C_18  and  N_19
REMARK                            x       y       z     vdW  Elec       q    Type
REMARK                         _______ _______ _______ _____ _____    ______ ____
ROOT
ATOM      1  C   UNL     1      29.584  23.047  27.656  0.00  0.00    +0.000 C 
ATOM      2  O   UNL     1      29.218  24.238  27.598  0.00  0.00    +0.000 OA
ATOM      3  N   UNL     1      29.091  22.166  26.654  0.00  0.00    +0.000 NA
ENDROOT
BRANCH   3   4
ATOM      4  C   UNL     1      28.217  22.625  25.630  0.00  0.00    +0.000 A 
ATOM      5  C   UNL     1      26.860  22.689  25.861  0.00  0.00    +0.000 A 
ATOM      6  C   UNL     1      25.980  23.134  24.876  0.00  0.00    +0.000 A 
ATOM      7  C   UNL     1      26.469  23.524  23.634  0.00  0.00    +0.000 A 
ATOM      8  C   UNL     1      27.813  23.465  23.396  0.00  0.00    +0.000 A 
ATOM      9  C   UNL     1      28.303  23.888  22.062  0.00  0.00    +0.000 C 
ATOM     10  C   UNL     1      28.676  23.017  24.393  0.00  0.00    +0.000 A 
ATOM     11  C   UNL     1      30.125  22.955  24.131  0.00  0.00    +0.000 C 
ENDBRANCH   3   4
BRANCH   1  16
ATOM     12  C   UNL     1      33.193  21.104  31.609  0.00  0.00    +0.000 C 
ATOM     13  C   UNL     1      32.218  21.627  30.607  0.00  0.00    +0.000 A 
ATOM     14  C   UNL     1      32.574  21.503  29.274  0.00  0.00    +0.000 A 
ATOM     15  C   UNL     1      31.683  21.981  28.335  0.00  0.00    +0.000 A 
ATOM     16  C   UNL     1      30.489  22.557  28.712  0.00  0.00    +0.000 A 
ATOM     17  C   UNL     1      30.155  22.669  30.045  0.00  0.00    +0.000 A 
ATOM     18  C   UNL     1      31.026  22.200  31.008  0.00  0.00    +0.000 A 
BRANCH  18  19
ATOM     19  N   UNL     1      30.720  22.295  32.403  0.00  0.00    +0.000 N 
ATOM     20  O   UNL     1      30.942  23.399  32.941  0.00  0.00    +0.000 OA
ATOM     21  O   UNL     1      30.213  21.245  33.123  0.00  0.00    +0.000 OA
ENDBRANCH  18  19
ENDBRANCH   1  16
TORSDOF 3
ENDMDL
MODEL 6
REMARK VINA RESULT:      -6.5      4.648      7.369
REMARK  Name = 
REMARK  3 active torsions:
REMARK  status: ('A' for Active; 'I' for Inactive)
REMARK    1  A    between atoms: C_5  and  C_6
REMARK    2  A    between atoms: N_8  and  C_9
REMARK    3  A    between atoms: C_18  and  N_19
REMARK                            x       y       z     vdW  Elec       q    Type
REMARK                         _______ _______ _______ _____ _____    ______ ____
ROOT
ATOM      1  C   UNL     1      20.012  11.095  38.035  0.00  0.00    +0.000 C 
ATOM      2  O   UNL     1      19.630  12.115  38.645  0.00  0.00    +0.000 OA
ATOM      3  N   UNL     1      19.043  10.083  37.793  0.00  0.00    +0.000 NA
ENDROOT
BRANCH   3   4
ATOM      4  C   UNL     1      17.697  10.227  38.229  0.00  0.00    +0.000 A 
ATOM      5  C   UNL     1      16.792  10.915  37.449  0.00  0.00    +0.000 A 
ATOM      6  C   UNL     1      15.466  11.072  37.852  0.00  0.00    +0.000 A 
ATOM      7  C   UNL     1      15.038  10.529  39.059  0.00  0.00    +0.000 A 
ATOM      8  C   UNL     1      15.928   9.846  39.837  0.00  0.00    +0.000 A 
ATOM      9  C   UNL     1      15.440   9.280  41.118  0.00  0.00    +0.000 C 
ATOM     10  C   UNL     1      17.248   9.700  39.419  0.00  0.00    +0.000 A 
ATOM     11  C   UNL     1      18.205   8.961  40.263  0.00  0.00    +0.000 C 
ENDBRANCH   3   4
BRANCH   1  16
ATOM     12  C   UNL     1      25.337  10.326  36.171  0.00  0.00    +0.000 C 
ATOM     13  C   UNL     1      23.956  10.564  36.684  0.00  0.00    +0.000 A 
ATOM     14  C   UNL     1      22.973   9.695  36.242  0.00  0.00    +0.000 A 
ATOM     15  C   UNL     1      21.691   9.902  36.708  0.00  0.00    +0.000 A 
ATOM     16  C   UNL     1      21.404  10.932  37.577  0.00  0.00    +0.000 A 
ATOM     17  C   UNL     1      22.400  11.785  38.004  0.00  0.00    +0.000 A 
ATOM     18  C   UNL     1      23.692  11.603  37.557  0.00  0.00    +0.000 A 
BRANCH  18  19
ATOM     19  N   UNL     1      24.757  12.465  37.974  0.00  0.00    +0.000 N 
ATOM     20  O   UNL     1      24.903  13.516  37.318  0.00  0.00    +0.000 OA
ATOM     21  O   UNL     1      25.577  12.168  39.031  0.00  0.00    +0.000 OA
ENDBRANCH  18  19
ENDBRANCH   1  16
TORSDOF 3
ENDMDL
MODEL 7
REMARK VINA RESULT:      -6.5      2.884      7.671
REMARK  Name = 
REMARK  3 active torsions:
REMARK  status: ('A' for Active; 'I' for Inactive)
REMARK    1  A    between atoms: C_5  and  C_6
REMARK    2  A    between atoms: N_8  and  C_9
REMARK    3  A    between atoms: C_18  and  N_19
REMARK                            x       y       z     vdW  Elec       q    Type
REMARK                         _______ _______ _______ _____ _____    ______ ____
ROOT
ATOM      1  C   UNL     1      17.245  10.208  36.415  0.00  0.00    +0.000 C 
ATOM      2  O   UNL     1      17.701   9.110  36.035  0.00  0.00    +0.000 OA
ATOM      3  N   UNL     1      17.576  10.628  37.732  0.00  0.00    +0.000 NA
ENDROOT
BRANCH   3   4
ATOM      4  C   UNL     1      18.391   9.829  38.581  0.00  0.00    +0.000 A 
ATOM      5  C   UNL     1      17.814   8.872  39.387  0.00  0.00    +0.000 A 
ATOM      6  C   UNL     1      18.589   8.075  40.228  0.00  0.00    +0.000 A 
ATOM      7  C   UNL     1      19.969   8.240  40.263  0.00  0.00    +0.000 A 
ATOM      8  C   UNL     1      20.550   9.185  39.468  0.00  0.00    +0.000 A 
ATOM      9  C   UNL     1      22.024   9.336  39.528  0.00  0.00    +0.000 C 
ATOM     10  C   UNL     1      19.759   9.972  38.634  0.00  0.00    +0.000 A 
ATOM     11  C   UNL     1      20.391  10.992  37.777  0.00  0.00    +0.000 C 
ENDBRANCH   3   4
BRANCH   1  16
ATOM     12  C   UNL     1      13.920  13.533  33.203  0.00  0.00    +0.000 C 
ATOM     13  C   UNL     1      14.805  12.640  34.006  0.00  0.00    +0.000 A 
ATOM     14  C   UNL     1      14.826  12.856  35.374  0.00  0.00    +0.000 A 
ATOM     15  C   UNL     1      15.640  12.038  36.130  0.00  0.00    +0.000 A 
ATOM     16  C   UNL     1      16.398  11.046  35.546  0.00  0.00    +0.000 A 
ATOM     17  C   UNL     1      16.361  10.849  34.182  0.00  0.00    +0.000 A 
ATOM     18  C   UNL     1      15.557  11.651  33.398  0.00  0.00    +0.000 A 
BRANCH  18  19
ATOM     19  N   UNL     1      15.487  11.482  31.978  0.00  0.00    +0.000 N 
ATOM     20  O   UNL     1      14.689  10.616  31.566  0.00  0.00    +0.000 OA
ATOM     21  O   UNL     1      16.246  12.220  31.107  0.00  0.00    +0.000 OA
ENDBRANCH  18  19
ENDBRANCH   1  16
TORSDOF 3
ENDMDL
MODEL 8
REMARK VINA RESULT:      -6.4      2.213      3.071
REMARK  Name = 
REMARK  3 active torsions:
REMARK  status: ('A' for Active; 'I' for Inactive)
REMARK    1  A    between atoms: C_5  and  C_6
REMARK    2  A    between atoms: N_8  and  C_9
REMARK    3  A    between atoms: C_18  and  N_19
REMARK                            x       y       z     vdW  Elec       q    Type
REMARK                         _______ _______ _______ _____ _____    ______ ____
ROOT
ATOM      1  C   UNL     1      17.707  11.255  37.391  0.00  0.00    +0.000 C 
ATOM      2  O   UNL     1      17.964  12.448  37.130  0.00  0.00    +0.000 OA
ATOM      3  N   UNL     1      16.720  10.614  36.594  0.00  0.00    +0.000 NA
ENDROOT
BRANCH   3   4
ATOM      4  C   UNL     1      16.054  11.304  35.544  0.00  0.00    +0.000 A 
ATOM      5  C   UNL     1      15.049  12.200  35.839  0.00  0.00    +0.000 A 
ATOM      6  C   UNL     1      14.379  12.890  34.830  0.00  0.00    +0.000 A 
ATOM      7  C   UNL     1      14.722  12.680  33.499  0.00  0.00    +0.000 A 
ATOM      8  C   UNL     1      15.717  11.795  33.197  0.00  0.00    +0.000 A 
ATOM      9  C   UNL     1      16.060  11.593  31.768  0.00  0.00    +0.000 C 
ATOM     10  C   UNL     1      16.375  11.114  34.219  0.00  0.00    +0.000 A 
ATOM     11  C   UNL     1      17.449  10.160  33.888  0.00  0.00    +0.000 C 
ENDBRANCH   3   4
BRANCH   1  16
ATOM     12  C   UNL     1      20.460   8.580  41.598  0.00  0.00    +0.000 C 
ATOM     13  C   UNL     1      19.709   9.246  40.493  0.00  0.00    +0.000 A 
ATOM     14  C   UNL     1      20.169  10.489  40.093  0.00  0.00    +0.000 A 
ATOM     15  C   UNL     1      19.486  11.117  39.072  0.00  0.00    +0.000 A 
ATOM     16  C   UNL     1      18.390  10.528  38.477  0.00  0.00    +0.000 A 
ATOM     17  C   UNL     1      17.951   9.288  38.892  0.00  0.00    +0.000 A 
ATOM     18  C   UNL     1      18.614   8.635  39.910  0.00  0.00    +0.000 A 
BRANCH  18  19
ATOM     19  N   UNL     1      18.192   7.348  40.373  0.00  0.00    +0.000 N 
ATOM     20  O   UNL     1      18.702   6.363  39.800  0.00  0.00    +0.000 OA
ATOM     21  O   UNL     1      17.283   7.187  41.386  0.00  0.00    +0.000 OA
ENDBRANCH  18  19
ENDBRANCH   1  16
TORSDOF 3
ENDMDL
MODEL 9
REMARK VINA RESULT:      -6.4      4.362      7.699
REMARK  Name = 
REMARK  3 active torsions:
REMARK  status: ('A' for Active; 'I' for Inactive)
REMARK    1  A    between atoms: C_5  and  C_6
REMARK    2  A    between atoms: N_8  and  C_9
REMARK    3  A    between atoms: C_18  and  N_19
REMARK                            x       y       z     vdW  Elec       q    Type
REMARK                         _______ _______ _______ _____ _____    ______ ____
ROOT
ATOM      1  C   UNL     1      19.737  10.078  38.060  0.00  0.00    +0.000 C 
ATOM      2  O   UNL     1      20.249   9.216  38.804  0.00  0.00    +0.000 OA
ATOM      3  N   UNL     1      20.608  10.775  37.179  0.00  0.00    +0.000 NA
ENDROOT
BRANCH   3   4
ATOM      4  C   UNL     1      22.004  10.502  37.148  0.00  0.00    +0.000 A 
ATOM      5  C   UNL     1      22.472   9.390  36.483  0.00  0.00    +0.000 A 
ATOM      6  C   UNL     1      23.835   9.098  36.437  0.00  0.00    +0.000 A 
ATOM      7  C   UNL     1      24.746   9.937  37.069  0.00  0.00    +0.000 A 
ATOM      8  C   UNL     1      24.291  11.042  37.730  0.00  0.00    +0.000 A 
ATOM      9  C   UNL     1      25.288  11.916  38.393  0.00  0.00    +0.000 C 
ATOM     10  C   UNL     1      22.926  11.317  37.765  0.00  0.00    +0.000 A 
ATOM     11  C   UNL     1      22.440  12.511  38.480  0.00  0.00    +0.000 C 
ENDBRANCH   3   4
BRANCH   1  16
ATOM     12  C   UNL     1      14.144  11.121  38.296  0.00  0.00    +0.000 C 
ATOM     13  C   UNL     1      15.612  10.870  38.194  0.00  0.00    +0.000 A 
ATOM     14  C   UNL     1      16.190  10.151  39.226  0.00  0.00    +0.000 A 
ATOM     15  C   UNL     1      17.547   9.912  39.146  0.00  0.00    +0.000 A 
ATOM     16  C   UNL     1      18.292  10.370  38.081  0.00  0.00    +0.000 A 
ATOM     17  C   UNL     1      17.694  11.084  37.064  0.00  0.00    +0.000 A 
ATOM     18  C   UNL     1      16.339  11.340  37.116  0.00  0.00    +0.000 A 
BRANCH  18  19
ATOM     19  N   UNL     1      15.676  12.077  36.083  0.00  0.00    +0.000 N 
ATOM     20  O   UNL     1      15.737  13.320  36.169  0.00  0.00    +0.000 OA
ATOM     21  O   UNL     1      15.010  11.468  35.051  0.00  0.00    +0.000 OA
ENDBRANCH  18  19
ENDBRANCH   1  16
TORSDOF 3
ENDMDL
MODEL 10
REMARK VINA RESULT:      -6.3     22.792     25.965
REMARK  Name = 
REMARK  3 active torsions:
REMARK  status: ('A' for Active; 'I' for Inactive)
REMARK    1  A    between atoms: C_5  and  C_6
REMARK    2  A    between atoms: N_8  and  C_9
REMARK    3  A    between atoms: C_18  and  N_19
REMARK                            x       y       z     vdW  Elec       q    Type
REMARK                         _______ _______ _______ _____ _____    ______ ____
ROOT
ATOM      1  C   UNL     1      29.560  25.458  21.357  0.00  0.00    +0.000 C 
ATOM      2  O   UNL     1      29.614  24.275  20.964  0.00  0.00    +0.000 OA
ATOM      3  N   UNL     1      29.552  25.675  22.762  0.00  0.00    +0.000 NA
ENDROOT
BRANCH   3   4
ATOM      4  C   UNL     1      29.601  24.589  23.680  0.00  0.00    +0.000 A 
ATOM      5  C   UNL     1      30.802  23.965  23.942  0.00  0.00    +0.000 A 
ATOM      6  C   UNL     1      30.880  22.898  24.836  0.00  0.00    +0.000 A 
ATOM      7  C   UNL     1      29.733  22.447  25.481  0.00  0.00    +0.000 A 
ATOM      8  C   UNL     1      28.539  23.060  25.227  0.00  0.00    +0.000 A 
ATOM      9  C   UNL     1      27.335  22.556  25.930  0.00  0.00    +0.000 C 
ATOM     10  C   UNL     1      28.481  24.124  24.330  0.00  0.00    +0.000 A 
ATOM     11  C   UNL     1      27.190  24.782  24.060  0.00  0.00    +0.000 C 
ENDBRANCH   3   4
BRANCH   1  16
ATOM     12  C   UNL     1      29.273  29.936  17.852  0.00  0.00    +0.000 C 
ATOM     13  C   UNL     1      29.371  28.739  18.738  0.00  0.00    +0.000 A 
ATOM     14  C   UNL     1      28.806  28.853  19.997  0.00  0.00    +0.000 A 
ATOM     15  C   UNL     1      28.889  27.755  20.828  0.00  0.00    +0.000 A 
ATOM     16  C   UNL     1      29.509  26.593  20.418  0.00  0.00    +0.000 A 
ATOM     17  C   UNL     1      30.064  26.503  19.159  0.00  0.00    +0.000 A 
ATOM     18  C   UNL     1      29.997  27.585  18.305  0.00  0.00    +0.000 A 
BRANCH  18  19
ATOM     19  N   UNL     1      30.560  27.535  16.989  0.00  0.00    +0.000 N 
ATOM     20  O   UNL     1      29.870  26.969  16.117  0.00  0.00    +0.000 OA
ATOM     21  O   UNL     1      31.783  28.074  16.687  0.00  0.00    +0.000 OA
ENDBRANCH  18  19
ENDBRANCH   1  16
TORSDOF 3
ENDMDL
