MODEL 1
REMARK VINA RESULT:      -7.1      0.000      0.000
REMARK  Name = 
REMARK  2 active torsions:
REMARK  status: ('A' for Active; 'I' for Inactive)
REMARK    1  A    between atoms: C_2  and  C_4
REMARK    2  A    between atoms: C_10  and  C_11
REMARK                            x       y       z     vdW  Elec       q    Type
REMARK                         _______ _______ _______ _____ _____    ______ ____
ROOT
ATOM      1  C   UNL     1      14.572  12.798  33.062  0.00  0.00    +0.000 A 
ATOM      2  C   UNL     1      15.553  11.888  33.005  0.00  0.00    +0.000 A 
ATOM      3  C   UNL     1      16.183  11.488  34.105  0.00  0.00    +0.000 A 
ATOM      4  C   UNL     1      15.782  12.051  35.295  0.00  0.00    +0.000 A 
ATOM      5  S   UNL     1      14.536  13.105  34.746  0.00  0.00    +0.000 S 
ATOM      6  N   UNL     1      16.388  11.696  36.544  0.00  0.00    +0.000 NA
ATOM      7  C   UNL     1      16.747  10.169  36.686  0.00  0.00    +0.000 C 
ATOM      8  N   UNL     1      17.828  10.250  35.555  0.00  0.00    +0.000 NA
ATOM      9  C   UNL     1      17.297  10.511  34.268  0.00  0.00    +0.000 C 
ATOM     10  O   UNL     1      17.756   9.921  33.238  0.00  0.00    +0.000 OA
ENDROOT
BRANCH   7  11
ATOM     11  C   UNL     1      17.692  10.286  37.906  0.00  0.00    +0.000 A 
ATOM     12  C   UNL     1      17.513   9.664  39.089  0.00  0.00    +0.000 A 
ATOM     13  C   UNL     1      18.390   9.816  40.143  0.00  0.00    +0.000 A 
ATOM     14  C   UNL     1      19.475  10.621  39.987  0.00  0.00    +0.000 A 
ATOM     15  C   UNL     1      19.696  11.271  38.803  0.00  0.00    +0.000 A 
ATOM     16  C   UNL     1      18.775  11.092  37.739  0.00  0.00    +0.000 A 
ENDBRANCH   7  11
BRANCH   1  18
ATOM     17  C   UNL     1      14.422  13.130  30.622  0.00  0.00    +0.000 C 
ATOM     18  C   UNL     1      13.727  13.395  31.966  0.00  0.00    +0.000 C 
ATOM     19  C   UNL     1      13.675  14.907  32.087  0.00  0.00    +0.000 C 
ENDBRANCH   1  18
TORSDOF 2
ENDMDL
MODEL 2
REMARK VINA RESULT:      -6.3     21.784     23.546
REMARK  Name = 
REMARK  2 active torsions:
REMARK  status: ('A' for Active; 'I' for Inactive)
REMARK    1  A    between atoms: C_2  and  C_4
REMARK    2  A    between atoms: C_10  and  C_11
REMARK                            x       y       z     vdW  Elec       q    Type
REMARK                         _______ _______ _______ _____ _____    ______ ____
ROOT
ATOM      1  C   UNL     1      25.688  -8.538  23.344  0.00  0.00    +0.000 A 
ATOM      2  C   UNL     1      24.975  -9.274  24.208  0.00  0.00    +0.000 A 
ATOM      3  C   UNL     1      23.812  -8.841  24.682  0.00  0.00    +0.000 A 
ATOM      4  C   UNL     1      23.379  -7.609  24.248  0.00  0.00    +0.000 A 
ATOM      5  S   UNL     1      24.669  -7.170  23.195  0.00  0.00    +0.000 S 
ATOM      6  N   UNL     1      22.140  -7.040  24.690  0.00  0.00    +0.000 NA
ATOM      7  C   UNL     1      20.964  -8.076  24.845  0.00  0.00    +0.000 C 
ATOM      8  N   UNL     1      21.682  -8.815  26.025  0.00  0.00    +0.000 NA
ATOM      9  C   UNL     1      22.874  -9.480  25.649  0.00  0.00    +0.000 C 
ATOM     10  O   UNL     1      23.164 -10.625  26.123  0.00  0.00    +0.000 OA
ENDROOT
BRANCH   7  11
ATOM     11  C   UNL     1      20.011  -7.191  25.683  0.00  0.00    +0.000 A 
ATOM     12  C   UNL     1      20.008  -5.842  25.690  0.00  0.00    +0.000 A 
ATOM     13  C   UNL     1      19.136  -5.110  26.468  0.00  0.00    +0.000 A 
ATOM     14  C   UNL     1      18.246  -5.768  27.258  0.00  0.00    +0.000 A 
ATOM     15  C   UNL     1      18.214  -7.136  27.282  0.00  0.00    +0.000 A 
ATOM     16  C   UNL     1      19.124  -7.859  26.469  0.00  0.00    +0.000 A 
ENDBRANCH   7  11
BRANCH   1  18
ATOM     17  C   UNL     1      27.951  -9.442  23.724  0.00  0.00    +0.000 C 
ATOM     18  C   UNL     1      27.012  -8.818  22.682  0.00  0.00    +0.000 C 
ATOM     19  C   UNL     1      27.692  -7.526  22.266  0.00  0.00    +0.000 C 
ENDBRANCH   1  18
TORSDOF 2
ENDMDL
MODEL 3
REMARK VINA RESULT:      -6.3      5.114      6.948
REMARK  Name = 
REMARK  2 active torsions:
REMARK  status: ('A' for Active; 'I' for Inactive)
REMARK    1  A    between atoms: C_2  and  C_4
REMARK    2  A    between atoms: C_10  and  C_11
REMARK                            x       y       z     vdW  Elec       q    Type
REMARK                         _______ _______ _______ _____ _____    ______ ____
ROOT
ATOM      1  C   UNL     1      22.914  10.614  37.187  0.00  0.00    +0.000 A 
ATOM      2  C   UNL     1      21.752  10.306  36.595  0.00  0.00    +0.000 A 
ATOM      3  C   UNL     1      20.688   9.957  37.311  0.00  0.00    +0.000 A 
ATOM      4  C   UNL     1      20.837   9.927  38.679  0.00  0.00    +0.000 A 
ATOM      5  S   UNL     1      22.486  10.401  38.831  0.00  0.00    +0.000 S 
ATOM      6  N   UNL     1      19.760   9.567  39.553  0.00  0.00    +0.000 NA
ATOM      7  C   UNL     1      18.350  10.110  39.108  0.00  0.00    +0.000 C 
ATOM      8  N   UNL     1      18.337   9.215  37.822  0.00  0.00    +0.000 NA
ATOM      9  C   UNL     1      19.320   9.566  36.865  0.00  0.00    +0.000 C 
ATOM     10  O   UNL     1      19.057   9.556  35.621  0.00  0.00    +0.000 OA
ENDROOT
BRANCH   7  11
ATOM     11  C   UNL     1      17.480   9.207  40.016  0.00  0.00    +0.000 A 
ATOM     12  C   UNL     1      16.302   9.565  40.566  0.00  0.00    +0.000 A 
ATOM     13  C   UNL     1      15.576   8.716  41.375  0.00  0.00    +0.000 A 
ATOM     14  C   UNL     1      16.063   7.471  41.629  0.00  0.00    +0.000 A 
ATOM     15  C   UNL     1      17.254   7.066  41.090  0.00  0.00    +0.000 A 
ATOM     16  C   UNL     1      17.975   7.965  40.262  0.00  0.00    +0.000 A 
ENDBRANCH   7  11
BRANCH   1  18
ATOM     17  C   UNL     1      25.268   9.937  36.895  0.00  0.00    +0.000 C 
ATOM     18  C   UNL     1      24.234  11.031  36.591  0.00  0.00    +0.000 C 
ATOM     19  C   UNL     1      24.767  12.275  37.278  0.00  0.00    +0.000 C 
ENDBRANCH   1  18
TORSDOF 2
ENDMDL
MODEL 4
REMARK VINA RESULT:      -6.2     18.727     20.233
REMARK  Name = 
REMARK  2 active torsions:
REMARK  status: ('A' for Active; 'I' for Inactive)
REMARK    1  A    between atoms: C_2  and  C_4
REMARK    2  A    between atoms: C_10  and  C_11
REMARK                            x       y       z     vdW  Elec       q    Type
REMARK                         _______ _______ _______ _____ _____    ______ ____
ROOT
ATOM      1  C   UNL     1      34.156   5.215  35.450  0.00  0.00    +0.000 A 
ATOM      2  C   UNL     1      34.049   4.551  34.292  0.00  0.00    +0.000 A 
ATOM      3  C   UNL     1      33.882   3.232  34.269  0.00  0.00    +0.000 A 
ATOM      4  C   UNL     1      33.827   2.588  35.484  0.00  0.00    +0.000 A 
ATOM      5  S   UNL     1      34.017   3.919  36.560  0.00  0.00    +0.000 S 
ATOM      6  N   UNL     1      33.649   1.170  35.584  0.00  0.00    +0.000 NA
ATOM      7  C   UNL     1      32.651   0.561  34.530  0.00  0.00    +0.000 C 
ATOM      8  N   UNL     1      33.597   0.913  33.331  0.00  0.00    +0.000 NA
ATOM      9  C   UNL     1      33.755   2.303  33.111  0.00  0.00    +0.000 C 
ATOM     10  O   UNL     1      33.789   2.780  31.932  0.00  0.00    +0.000 OA
ENDROOT
BRANCH   7  11
ATOM     11  C   UNL     1      33.047  -0.926  34.696  0.00  0.00    +0.000 A 
ATOM     12  C   UNL     1      32.180  -1.955  34.784  0.00  0.00    +0.000 A 
ATOM     13  C   UNL     1      32.597  -3.261  34.940  0.00  0.00    +0.000 A 
ATOM     14  C   UNL     1      33.930  -3.523  35.008  0.00  0.00    +0.000 A 
ATOM     15  C   UNL     1      34.845  -2.509  34.923  0.00  0.00    +0.000 A 
ATOM     16  C   UNL     1      34.382  -1.178  34.762  0.00  0.00    +0.000 A 
ENDBRANCH   7  11
BRANCH   1  18
ATOM     17  C   UNL     1      35.825   7.031  35.486  0.00  0.00    +0.000 C 
ATOM     18  C   UNL     1      34.347   6.685  35.720  0.00  0.00    +0.000 C 
ATOM     19  C   UNL     1      34.098   7.003  37.183  0.00  0.00    +0.000 C 
ENDBRANCH   1  18
TORSDOF 2
ENDMDL
MODEL 5
REMARK VINA RESULT:      -6.1     20.579     21.963
REMARK  Name = 
REMARK  2 active torsions:
REMARK  status: ('A' for Active; 'I' for Inactive)
REMARK    1  A    between atoms: C_2  and  C_4
REMARK    2  A    between atoms: C_10  and  C_11
REMARK                            x       y       z     vdW  Elec       q    Type
REMARK                         _______ _______ _______ _____ _____    ______ ____
ROOT
ATOM      1  C   UNL     1      27.181  27.902  21.240  0.00  0.00    +0.000 A 
ATOM      2  C   UNL     1      28.012  26.895  20.943  0.00  0.00    +0.000 A 
ATOM      3  C   UNL     1      28.310  25.963  21.843  0.00  0.00    +0.000 A 
ATOM      4  C   UNL     1      27.729  26.084  23.085  0.00  0.00    +0.000 A 
ATOM      5  S   UNL     1      26.802  27.519  22.865  0.00  0.00    +0.000 S 
ATOM      6  N   UNL     1      27.975  25.139  24.133  0.00  0.00    +0.000 NA
ATOM      7  C   UNL     1      28.075  23.643  23.654  0.00  0.00    +0.000 C 
ATOM      8  N   UNL     1      29.387  23.919  22.844  0.00  0.00    +0.000 NA
ATOM      9  C   UNL     1      29.209  24.779  21.733  0.00  0.00    +0.000 C 
ATOM     10  O   UNL     1      29.805  24.557  20.631  0.00  0.00    +0.000 OA
ENDROOT
BRANCH   7  11
ATOM     11  C   UNL     1      28.721  23.053  24.931  0.00  0.00    +0.000 A 
ATOM     12  C   UNL     1      30.041  22.846  25.108  0.00  0.00    +0.000 A 
ATOM     13  C   UNL     1      30.555  22.308  26.269  0.00  0.00    +0.000 A 
ATOM     14  C   UNL     1      29.702  21.973  27.274  0.00  0.00    +0.000 A 
ATOM     15  C   UNL     1      28.354  22.167  27.138  0.00  0.00    +0.000 A 
ATOM     16  C   UNL     1      27.859  22.723  25.930  0.00  0.00    +0.000 A 
ENDBRANCH   7  11
BRANCH   1  18
ATOM     17  C   UNL     1      25.596  28.547  19.463  0.00  0.00    +0.000 C 
ATOM     18  C   UNL     1      26.703  29.057  20.396  0.00  0.00    +0.000 C 
ATOM     19  C   UNL     1      27.804  29.541  19.470  0.00  0.00    +0.000 C 
ENDBRANCH   1  18
TORSDOF 2
ENDMDL
MODEL 6
REMARK VINA RESULT:      -5.9     18.701     19.545
REMARK  Name = 
REMARK  2 active torsions:
REMARK  status: ('A' for Active; 'I' for Inactive)
REMARK    1  A    between atoms: C_2  and  C_4
REMARK    2  A    between atoms: C_10  and  C_11
REMARK                            x       y       z     vdW  Elec       q    Type
REMARK                         _______ _______ _______ _____ _____    ______ ____
ROOT
ATOM      1  C   UNL     1      28.881  23.328  23.631  0.00  0.00    +0.000 A 
ATOM      2  C   UNL     1      28.178  23.253  24.769  0.00  0.00    +0.000 A 
ATOM      3  C   UNL     1      28.777  23.018  25.932  0.00  0.00    +0.000 A 
ATOM      4  C   UNL     1      30.144  22.857  25.911  0.00  0.00    +0.000 A 
ATOM      5  S   UNL     1      30.462  23.054  24.230  0.00  0.00    +0.000 S 
ATOM      6  N   UNL     1      30.897  22.601  27.102  0.00  0.00    +0.000 NA
ATOM      7  C   UNL     1      30.400  23.390  28.371  0.00  0.00    +0.000 C 
ATOM      8  N   UNL     1      29.039  22.614  28.403  0.00  0.00    +0.000 NA
ATOM      9  C   UNL     1      28.195  22.882  27.298  0.00  0.00    +0.000 C 
ATOM     10  O   UNL     1      26.939  23.013  27.449  0.00  0.00    +0.000 OA
ENDROOT
BRANCH   7  11
ATOM     11  C   UNL     1      31.152  22.565  29.443  0.00  0.00    +0.000 A 
ATOM     12  C   UNL     1      32.357  21.985  29.271  0.00  0.00    +0.000 A 
ATOM     13  C   UNL     1      32.973  21.254  30.266  0.00  0.00    +0.000 A 
ATOM     14  C   UNL     1      32.344  21.110  31.464  0.00  0.00    +0.000 A 
ATOM     15  C   UNL     1      31.120  21.683  31.681  0.00  0.00    +0.000 A 
ATOM     16  C   UNL     1      30.515  22.429  30.637  0.00  0.00    +0.000 A 
ENDBRANCH   7  11
BRANCH   1  18
ATOM     17  C   UNL     1      29.231  24.763  21.655  0.00  0.00    +0.000 C 
ATOM     18  C   UNL     1      28.427  23.580  22.216  0.00  0.00    +0.000 C 
ATOM     19  C   UNL     1      26.981  24.040  22.186  0.00  0.00    +0.000 C 
ENDBRANCH   1  18
TORSDOF 2
ENDMDL
MODEL 7
REMARK VINA RESULT:      -5.9     21.247     22.829
REMARK  Name = 
REMARK  2 active torsions:
REMARK  status: ('A' for Active; 'I' for Inactive)
REMARK    1  A    between atoms: C_2  and  C_4
REMARK    2  A    between atoms: C_10  and  C_11
REMARK                            x       y       z     vdW  Elec       q    Type
REMARK                         _______ _______ _______ _____ _____    ______ ____
ROOT
ATOM      1  C   UNL     1      18.207  -9.414  28.828  0.00  0.00    +0.000 A 
ATOM      2  C   UNL     1      18.124  -8.334  28.039  0.00  0.00    +0.000 A 
ATOM      3  C   UNL     1      19.067  -8.065  27.142  0.00  0.00    +0.000 A 
ATOM      4  C   UNL     1      20.125  -8.943  27.064  0.00  0.00    +0.000 A 
ATOM      5  S   UNL     1      19.685 -10.081  28.279  0.00  0.00    +0.000 S 
ATOM      6  N   UNL     1      21.199  -8.756  26.135  0.00  0.00    +0.000 NA
ATOM      7  C   UNL     1      20.756  -8.215  24.724  0.00  0.00    +0.000 C 
ATOM      8  N   UNL     1      20.300  -6.839  25.321  0.00  0.00    +0.000 NA
ATOM      9  C   UNL     1      19.182  -6.928  26.185  0.00  0.00    +0.000 C 
ATOM     10  O   UNL     1      18.263  -6.048  26.160  0.00  0.00    +0.000 OA
ENDROOT
BRANCH   7  11
ATOM     11  C   UNL     1      22.151  -7.784  24.213  0.00  0.00    +0.000 A 
ATOM     12  C   UNL     1      22.848  -8.406  23.240  0.00  0.00    +0.000 A 
ATOM     13  C   UNL     1      24.095  -7.977  22.835  0.00  0.00    +0.000 A 
ATOM     14  C   UNL     1      24.644  -6.887  23.436  0.00  0.00    +0.000 A 
ATOM     15  C   UNL     1      23.972  -6.225  24.427  0.00  0.00    +0.000 A 
ATOM     16  C   UNL     1      22.691  -6.693  24.820  0.00  0.00    +0.000 A 
ENDBRANCH   7  11
BRANCH   1  18
ATOM     17  C   UNL     1      18.031  -9.916  31.236  0.00  0.00    +0.000 C 
ATOM     18  C   UNL     1      17.274  -9.915  29.900  0.00  0.00    +0.000 C 
ATOM     19  C   UNL     1      16.904 -11.368  29.659  0.00  0.00    +0.000 C 
ENDBRANCH   1  18
TORSDOF 2
ENDMDL
MODEL 8
REMARK VINA RESULT:      -5.8     22.127     23.756
REMARK  Name = 
REMARK  2 active torsions:
REMARK  status: ('A' for Active; 'I' for Inactive)
REMARK    1  A    between atoms: C_2  and  C_4
REMARK    2  A    between atoms: C_10  and  C_11
REMARK                            x       y       z     vdW  Elec       q    Type
REMARK                         _______ _______ _______ _____ _____    ______ ____
ROOT
ATOM      1  C   UNL     1      23.840  -9.478  21.497  0.00  0.00    +0.000 A 
ATOM      2  C   UNL     1      24.096  -8.464  22.334  0.00  0.00    +0.000 A 
ATOM      3  C   UNL     1      23.194  -8.067  23.227  0.00  0.00    +0.000 A 
ATOM      4  C   UNL     1      21.994  -8.742  23.247  0.00  0.00    +0.000 A 
ATOM      5  S   UNL     1      22.253  -9.890  21.990  0.00  0.00    +0.000 S 
ATOM      6  N   UNL     1      20.949  -8.404  24.166  0.00  0.00    +0.000 NA
ATOM      7  C   UNL     1      21.447  -8.010  25.607  0.00  0.00    +0.000 C 
ATOM      8  N   UNL     1      22.156  -6.716  25.081  0.00  0.00    +0.000 NA
ATOM      9  C   UNL     1      23.261  -6.969  24.232  0.00  0.00    +0.000 C 
ATOM     10  O   UNL     1      24.322  -6.271  24.312  0.00  0.00    +0.000 OA
ENDROOT
BRANCH   7  11
ATOM     11  C   UNL     1      20.139  -7.357  26.113  0.00  0.00    +0.000 A 
ATOM     12  C   UNL     1      19.825  -6.051  25.990  0.00  0.00    +0.000 A 
ATOM     13  C   UNL     1      18.643  -5.527  26.471  0.00  0.00    +0.000 A 
ATOM     14  C   UNL     1      17.760  -6.355  27.093  0.00  0.00    +0.000 A 
ATOM     15  C   UNL     1      18.038  -7.687  27.239  0.00  0.00    +0.000 A 
ATOM     16  C   UNL     1      19.262  -8.193  26.732  0.00  0.00    +0.000 A 
ENDBRANCH   7  11
BRANCH   1  18
ATOM     17  C   UNL     1      26.153  -9.685  20.666  0.00  0.00    +0.000 C 
ATOM     18  C   UNL     1      24.694 -10.094  20.418  0.00  0.00    +0.000 C 
ATOM     19  C   UNL     1      24.350  -9.514  19.059  0.00  0.00    +0.000 C 
ENDBRANCH   1  18
TORSDOF 2
ENDMDL
MODEL 9
REMARK VINA RESULT:      -5.7     17.295     19.277
REMARK  Name = 
REMARK  2 active torsions:
REMARK  status: ('A' for Active; 'I' for Inactive)
REMARK    1  A    between atoms: C_2  and  C_4
REMARK    2  A    between atoms: C_10  and  C_11
REMARK                            x       y       z     vdW  Elec       q    Type
REMARK                         _______ _______ _______ _____ _____    ______ ____
ROOT
ATOM      1  C   UNL     1      30.108  22.812  31.187  0.00  0.00    +0.000 A 
ATOM      2  C   UNL     1      28.798  22.890  30.917  0.00  0.00    +0.000 A 
ATOM      3  C   UNL     1      28.358  22.941  29.664  0.00  0.00    +0.000 A 
ATOM      4  C   UNL     1      29.306  22.911  28.665  0.00  0.00    +0.000 A 
ATOM      5  S   UNL     1      30.749  22.812  29.599  0.00  0.00    +0.000 S 
ATOM      6  N   UNL     1      28.950  22.959  27.279  0.00  0.00    +0.000 NA
ATOM      7  C   UNL     1      27.654  22.145  26.909  0.00  0.00    +0.000 C 
ATOM      8  N   UNL     1      26.734  23.098  27.746  0.00  0.00    +0.000 NA
ATOM      9  C   UNL     1      26.965  23.043  29.142  0.00  0.00    +0.000 C 
ATOM     10  O   UNL     1      25.999  23.078  29.968  0.00  0.00    +0.000 OA
ENDROOT
BRANCH   7  11
ATOM     11  C   UNL     1      27.405  22.764  25.513  0.00  0.00    +0.000 A 
ATOM     12  C   UNL     1      28.367  23.117  24.637  0.00  0.00    +0.000 A 
ATOM     13  C   UNL     1      28.080  23.674  23.408  0.00  0.00    +0.000 A 
ATOM     14  C   UNL     1      26.779  23.876  23.064  0.00  0.00    +0.000 A 
ATOM     15  C   UNL     1      25.770  23.531  23.922  0.00  0.00    +0.000 A 
ATOM     16  C   UNL     1      26.101  22.960  25.178  0.00  0.00    +0.000 A 
ENDBRANCH   7  11
BRANCH   1  18
ATOM     17  C   UNL     1      30.501  21.399  33.170  0.00  0.00    +0.000 C 
ATOM     18  C   UNL     1      30.832  22.745  32.508  0.00  0.00    +0.000 C 
ATOM     19  C   UNL     1      30.303  23.794  33.468  0.00  0.00    +0.000 C 
ENDBRANCH   1  18
TORSDOF 2
ENDMDL
MODEL 10
REMARK VINA RESULT:      -5.7      8.762     11.521
REMARK  Name = 
REMARK  2 active torsions:
REMARK  status: ('A' for Active; 'I' for Inactive)
REMARK    1  A    between atoms: C_2  and  C_4
REMARK    2  A    between atoms: C_10  and  C_11
REMARK                            x       y       z     vdW  Elec       q    Type
REMARK                         _______ _______ _______ _____ _____    ______ ____
ROOT
ATOM      1  C   UNL     1      24.255   3.561  40.556  0.00  0.00    +0.000 A 
ATOM      2  C   UNL     1      23.134   2.838  40.438  0.00  0.00    +0.000 A 
ATOM      3  C   UNL     1      21.942   3.378  40.666  0.00  0.00    +0.000 A 
ATOM      4  C   UNL     1      21.915   4.706  41.027  0.00  0.00    +0.000 A 
ATOM      5  S   UNL     1      23.597   5.075  41.010  0.00  0.00    +0.000 S 
ATOM      6  N   UNL     1      20.688   5.395  41.297  0.00  0.00    +0.000 NA
ATOM      7  C   UNL     1      19.496   5.001  40.346  0.00  0.00    +0.000 C 
ATOM      8  N   UNL     1      19.441   3.540  40.910  0.00  0.00    +0.000 NA
ATOM      9  C   UNL     1      20.585   2.763  40.608  0.00  0.00    +0.000 C 
ATOM     10  O   UNL     1      20.477   1.537  40.284  0.00  0.00    +0.000 OA
ENDROOT
BRANCH   7  11
ATOM     11  C   UNL     1      18.346   5.607  41.186  0.00  0.00    +0.000 A 
ATOM     12  C   UNL     1      17.552   6.625  40.796  0.00  0.00    +0.000 A 
ATOM     13  C   UNL     1      16.547   7.127  41.596  0.00  0.00    +0.000 A 
ATOM     14  C   UNL     1      16.346   6.577  42.824  0.00  0.00    +0.000 A 
ATOM     15  C   UNL     1      17.128   5.542  43.261  0.00  0.00    +0.000 A 
ATOM     16  C   UNL     1      18.153   5.050  42.412  0.00  0.00    +0.000 A 
ENDBRANCH   7  11
BRANCH   1  18
ATOM     17  C   UNL     1      26.447   4.380  39.773  0.00  0.00    +0.000 C 
ATOM     18  C   UNL     1      25.697   3.171  40.351  0.00  0.00    +0.000 C 
ATOM     19  C   UNL     1      25.819   2.091  39.292  0.00  0.00    +0.000 C 
ENDBRANCH   1  18
TORSDOF 2
ENDMDL
