MODEL 1
REMARK VINA RESULT:      -8.2      0.000      0.000
REMARK  Name = 
REMARK  6 active torsions:
REMARK  status: ('A' for Active; 'I' for Inactive)
REMARK    1  A    between atoms: O_2  and  C_3
REMARK    2  A    between atoms: C_8  and  C_9
REMARK    3  A    between atoms: C_9  and  C_10
REMARK    4  A    between atoms: C_9  and  C_22
REMARK    5  A    between atoms: C_10  and  C_11
REMARK    6  A    between atoms: N_13  and  C_14
REMARK                            x       y       z     vdW  Elec       q    Type
REMARK                         _______ _______ _______ _____ _____    ______ ____
ROOT
ATOM      1  C   UNL     1      13.550  -0.043  27.315  0.00  0.00    +0.000 C 
ENDROOT
BRANCH   1   2
ATOM      2  C   UNL     1      13.042  -0.831  28.536  0.00  0.00    +0.000 A 
ATOM      3  C   UNL     1      12.980  -0.105  29.765  0.00  0.00    +0.000 A 
ATOM      4  N   UNL     1      12.530  -0.903  30.734  0.00  0.00    +0.000 NA
ATOM      5  C   UNL     1      12.313  -2.095  30.142  0.00  0.00    +0.000 A 
ATOM      6  C   UNL     1      11.856  -3.279  30.644  0.00  0.00    +0.000 A 
ATOM      7  C   UNL     1      11.714  -4.388  29.843  0.00  0.00    +0.000 A 
ATOM      8  C   UNL     1      12.041  -4.284  28.522  0.00  0.00    +0.000 A 
ATOM      9  C   UNL     1      12.501  -3.089  28.018  0.00  0.00    +0.000 A 
ATOM     10  C   UNL     1      12.849  -3.024  26.596  0.00  0.00    +0.000 C 
ATOM     11  N   UNL     1      12.636  -2.015  28.804  0.00  0.00    +0.000 N 
ENDBRANCH   1   2
BRANCH   1  17
ATOM     12  C   UNL     1      11.519   0.961  26.418  0.00  0.00    +0.000 A 
ATOM     13  C   UNL     1      10.651   1.991  26.111  0.00  0.00    +0.000 A 
ATOM     14  C   UNL     1      10.980   3.275  26.496  0.00  0.00    +0.000 A 
ATOM     15  C   UNL     1      12.155   3.512  27.173  0.00  0.00    +0.000 A 
ATOM     16  C   UNL     1      12.980   2.455  27.451  0.00  0.00    +0.000 A 
ATOM     17  C   UNL     1      12.684   1.193  27.088  0.00  0.00    +0.000 A 
BRANCH  12  19
ATOM     18  C   UNL     1       9.887  -0.515  25.286  0.00  0.00    +0.000 C 
ATOM     19  O   UNL     1      11.098  -0.318  25.985  0.00  0.00    +0.000 OA
ENDBRANCH  12  19
ENDBRANCH   1  17
BRANCH   1  20
ATOM     20  C   UNL     1      14.968   0.464  27.734  0.00  0.00    +0.000 C 
BRANCH  20  21
ATOM     21  C   UNL     1      15.864   0.129  26.608  0.00  0.00    +0.000 C 
ATOM     22  O   UNL     1      15.391  -0.239  25.514  0.00  0.00    +0.000 OA
ATOM     23  N   UNL     1      17.281   0.205  26.705  0.00  0.00    +0.000 NA
BRANCH  23  24
ATOM     24  C   UNL     1      18.154  -0.113  25.632  0.00  0.00    +0.000 A 
ATOM     25  C   UNL     1      18.363  -1.455  25.405  0.00  0.00    +0.000 A 
ATOM     26  C   UNL     1      19.185  -1.924  24.400  0.00  0.00    +0.000 A 
ATOM     27  C   UNL     1      19.813  -0.997  23.599  0.00  0.00    +0.000 A 
ATOM     28  C   UNL     1      20.727  -1.419  22.478  0.00  0.00    +0.000 C 
ATOM     29  C   UNL     1      19.596   0.348  23.835  0.00  0.00    +0.000 A 
ATOM     30  C   UNL     1      20.260   1.381  22.989  0.00  0.00    +0.000 C 
ATOM     31  C   UNL     1      18.771   0.799  24.845  0.00  0.00    +0.000 A 
ENDBRANCH  23  24
ENDBRANCH  20  21
ENDBRANCH   1  20
TORSDOF 6
ENDMDL
MODEL 2
REMARK VINA RESULT:      -8.0     23.103     26.351
REMARK  Name = 
REMARK  6 active torsions:
REMARK  status: ('A' for Active; 'I' for Inactive)
REMARK    1  A    between atoms: O_2  and  C_3
REMARK    2  A    between atoms: C_8  and  C_9
REMARK    3  A    between atoms: C_9  and  C_10
REMARK    4  A    between atoms: C_9  and  C_22
REMARK    5  A    between atoms: C_10  and  C_11
REMARK    6  A    between atoms: N_13  and  C_14
REMARK                            x       y       z     vdW  Elec       q    Type
REMARK                         _______ _______ _______ _____ _____    ______ ____
ROOT
ATOM      1  C   UNL     1      37.405  -1.915  15.770  0.00  0.00    +0.000 C 
ENDROOT
BRANCH   1   2
ATOM      2  C   UNL     1      38.391  -0.901  15.162  0.00  0.00    +0.000 A 
ATOM      3  C   UNL     1      37.851   0.385  14.851  0.00  0.00    +0.000 A 
ATOM      4  N   UNL     1      38.806   1.157  14.332  0.00  0.00    +0.000 NA
ATOM      5  C   UNL     1      39.914   0.390  14.314  0.00  0.00    +0.000 A 
ATOM      6  C   UNL     1      41.184   0.654  13.889  0.00  0.00    +0.000 A 
ATOM      7  C   UNL     1      42.175  -0.297  13.961  0.00  0.00    +0.000 A 
ATOM      8  C   UNL     1      41.864  -1.524  14.472  0.00  0.00    +0.000 A 
ATOM      9  C   UNL     1      40.583  -1.788  14.900  0.00  0.00    +0.000 A 
ATOM     10  C   UNL     1      40.291  -3.122  15.433  0.00  0.00    +0.000 C 
ATOM     11  N   UNL     1      39.626  -0.857  14.826  0.00  0.00    +0.000 N 
ENDBRANCH   1   2
BRANCH   1  17
ATOM     12  C   UNL     1      37.319  -1.520  18.174  0.00  0.00    +0.000 A 
ATOM     13  C   UNL     1      36.777  -1.056  19.356  0.00  0.00    +0.000 A 
ATOM     14  C   UNL     1      35.585  -0.360  19.314  0.00  0.00    +0.000 A 
ATOM     15  C   UNL     1      34.957  -0.142  18.108  0.00  0.00    +0.000 A 
ATOM     16  C   UNL     1      35.537  -0.624  16.965  0.00  0.00    +0.000 A 
ATOM     17  C   UNL     1      36.698  -1.304  16.978  0.00  0.00    +0.000 A 
BRANCH  12  19
ATOM     18  C   UNL     1      38.629  -3.443  19.012  0.00  0.00    +0.000 C 
ATOM     19  O   UNL     1      38.540  -2.219  18.315  0.00  0.00    +0.000 OA
ENDBRANCH  12  19
ENDBRANCH   1  17
BRANCH   1  20
ATOM     20  C   UNL     1      36.320  -2.123  14.664  0.00  0.00    +0.000 C 
BRANCH  20  21
ATOM     21  C   UNL     1      36.071  -3.579  14.613  0.00  0.00    +0.000 C 
ATOM     22  O   UNL     1      37.015  -4.373  14.429  0.00  0.00    +0.000 OA
ATOM     23  N   UNL     1      34.774  -4.141  14.767  0.00  0.00    +0.000 NA
BRANCH  23  24
ATOM     24  C   UNL     1      34.520  -5.537  14.721  0.00  0.00    +0.000 A 
ATOM     25  C   UNL     1      34.744  -6.228  15.891  0.00  0.00    +0.000 A 
ATOM     26  C   UNL     1      34.544  -7.589  16.006  0.00  0.00    +0.000 A 
ATOM     27  C   UNL     1      34.101  -8.269  14.894  0.00  0.00    +0.000 A 
ATOM     28  C   UNL     1      33.856  -9.755  14.928  0.00  0.00    +0.000 C 
ATOM     29  C   UNL     1      33.879  -7.566  13.724  0.00  0.00    +0.000 A 
ATOM     30  C   UNL     1      33.400  -8.269  12.499  0.00  0.00    +0.000 C 
ATOM     31  C   UNL     1      34.085  -6.205  13.628  0.00  0.00    +0.000 A 
ENDBRANCH  23  24
ENDBRANCH  20  21
ENDBRANCH   1  20
TORSDOF 6
ENDMDL
MODEL 3
REMARK VINA RESULT:      -8.0     23.030     26.742
REMARK  Name = 
REMARK  6 active torsions:
REMARK  status: ('A' for Active; 'I' for Inactive)
REMARK    1  A    between atoms: O_2  and  C_3
REMARK    2  A    between atoms: C_8  and  C_9
REMARK    3  A    between atoms: C_9  and  C_10
REMARK    4  A    between atoms: C_9  and  C_22
REMARK    5  A    between atoms: C_10  and  C_11
REMARK    6  A    between atoms: N_13  and  C_14
REMARK                            x       y       z     vdW  Elec       q    Type
REMARK                         _______ _______ _______ _____ _____    ______ ____
ROOT
ATOM      1  C   UNL     1      37.432   2.316  15.064  0.00  0.00    +0.000 C 
ENDROOT
BRANCH   1   2
ATOM      2  C   UNL     1      36.380   1.478  15.812  0.00  0.00    +0.000 A 
ATOM      3  C   UNL     1      35.165   2.152  16.143  0.00  0.00    +0.000 A 
ATOM      4  N   UNL     1      34.350   1.317  16.788  0.00  0.00    +0.000 NA
ATOM      5  C   UNL     1      35.023   0.150  16.863  0.00  0.00    +0.000 A 
ATOM      6  C   UNL     1      34.682  -1.051  17.414  0.00  0.00    +0.000 A 
ATOM      7  C   UNL     1      35.542  -2.124  17.378  0.00  0.00    +0.000 A 
ATOM      8  C   UNL     1      36.756  -1.966  16.775  0.00  0.00    +0.000 A 
ATOM      9  C   UNL     1      37.098  -0.754  16.220  0.00  0.00    +0.000 A 
ATOM     10  C   UNL     1      38.415  -0.625  15.591  0.00  0.00    +0.000 C 
ATOM     11  N   UNL     1      36.255   0.284  16.259  0.00  0.00    +0.000 N 
ENDBRANCH   1   2
BRANCH   1  17
ATOM     12  C   UNL     1      38.874   1.985  13.127  0.00  0.00    +0.000 A 
ATOM     13  C   UNL     1      39.190   1.577  11.845  0.00  0.00    +0.000 A 
ATOM     14  C   UNL     1      38.222   0.945  11.091  0.00  0.00    +0.000 A 
ATOM     15  C   UNL     1      36.968   0.731  11.617  0.00  0.00    +0.000 A 
ATOM     16  C   UNL     1      36.707   1.155  12.893  0.00  0.00    +0.000 A 
ATOM     17  C   UNL     1      37.632   1.773  13.651  0.00  0.00    +0.000 A 
BRANCH  12  19
ATOM     18  C   UNL     1      40.502   3.830  13.377  0.00  0.00    +0.000 C 
ATOM     19  O   UNL     1      39.928   2.621  13.824  0.00  0.00    +0.000 OA
ENDBRANCH  12  19
ENDBRANCH   1  17
BRANCH   1  20
ATOM     20  C   UNL     1      36.781   3.730  14.920  0.00  0.00    +0.000 C 
BRANCH  20  21
ATOM     21  C   UNL     1      37.662   4.657  15.661  0.00  0.00    +0.000 C 
ATOM     22  O   UNL     1      37.631   5.881  15.423  0.00  0.00    +0.000 OA
ATOM     23  N   UNL     1      38.572   4.216  16.662  0.00  0.00    +0.000 NA
BRANCH  23  24
ATOM     24  C   UNL     1      39.423   5.095  17.381  0.00  0.00    +0.000 A 
ATOM     25  C   UNL     1      39.038   5.385  18.671  0.00  0.00    +0.000 A 
ATOM     26  C   UNL     1      39.759   6.222  19.497  0.00  0.00    +0.000 A 
ATOM     27  C   UNL     1      40.912   6.783  18.995  0.00  0.00    +0.000 A 
ATOM     28  C   UNL     1      41.761   7.709  19.825  0.00  0.00    +0.000 C 
ATOM     29  C   UNL     1      41.290   6.487  17.698  0.00  0.00    +0.000 A 
ATOM     30  C   UNL     1      42.532   7.076  17.119  0.00  0.00    +0.000 C 
ATOM     31  C   UNL     1      40.556   5.647  16.886  0.00  0.00    +0.000 A 
ENDBRANCH  23  24
ENDBRANCH  20  21
ENDBRANCH   1  20
TORSDOF 6
ENDMDL
MODEL 4
REMARK VINA RESULT:      -7.8     23.575     26.790
REMARK  Name = 
REMARK  6 active torsions:
REMARK  status: ('A' for Active; 'I' for Inactive)
REMARK    1  A    between atoms: O_2  and  C_3
REMARK    2  A    between atoms: C_8  and  C_9
REMARK    3  A    between atoms: C_9  and  C_10
REMARK    4  A    between atoms: C_9  and  C_22
REMARK    5  A    between atoms: C_10  and  C_11
REMARK    6  A    between atoms: N_13  and  C_14
REMARK                            x       y       z     vdW  Elec       q    Type
REMARK                         _______ _______ _______ _____ _____    ______ ____
ROOT
ATOM      1  C   UNL     1      37.767  -1.926  15.569  0.00  0.00    +0.000 C 
ENDROOT
BRANCH   1   2
ATOM      2  C   UNL     1      37.815  -3.303  16.255  0.00  0.00    +0.000 A 
ATOM      3  C   UNL     1      38.949  -3.546  17.088  0.00  0.00    +0.000 A 
ATOM      4  N   UNL     1      38.866  -4.768  17.613  0.00  0.00    +0.000 NA
ATOM      5  C   UNL     1      37.717  -5.285  17.131  0.00  0.00    +0.000 A 
ATOM      6  C   UNL     1      37.124  -6.499  17.328  0.00  0.00    +0.000 A 
ATOM      7  C   UNL     1      35.932  -6.819  16.722  0.00  0.00    +0.000 A 
ATOM      8  C   UNL     1      35.344  -5.892  15.911  0.00  0.00    +0.000 A 
ATOM      9  C   UNL     1      35.943  -4.669  15.714  0.00  0.00    +0.000 A 
ATOM     10  C   UNL     1      35.282  -3.707  14.828  0.00  0.00    +0.000 C 
ATOM     11  N   UNL     1      37.103  -4.366  16.308  0.00  0.00    +0.000 N 
ENDBRANCH   1   2
BRANCH   1  17
ATOM     12  C   UNL     1      36.204  -0.056  15.574  0.00  0.00    +0.000 A 
ATOM     13  C   UNL     1      35.366   0.885  16.140  0.00  0.00    +0.000 A 
ATOM     14  C   UNL     1      35.184   0.876  17.508  0.00  0.00    +0.000 A 
ATOM     15  C   UNL     1      35.833  -0.057  18.284  0.00  0.00    +0.000 A 
ATOM     16  C   UNL     1      36.653  -0.968  17.672  0.00  0.00    +0.000 A 
ATOM     17  C   UNL     1      36.848  -0.983  16.341  0.00  0.00    +0.000 A 
BRANCH  12  19
ATOM     18  C   UNL     1      36.739   1.214  13.519  0.00  0.00    +0.000 C 
ATOM     19  O   UNL     1      36.328   0.029  14.167  0.00  0.00    +0.000 OA
ENDBRANCH  12  19
ENDBRANCH   1  17
BRANCH   1  20
ATOM     20  C   UNL     1      39.219  -1.364  15.709  0.00  0.00    +0.000 C 
BRANCH  20  21
ATOM     21  C   UNL     1      39.762  -1.302  14.336  0.00  0.00    +0.000 C 
ATOM     22  O   UNL     1      40.938  -0.933  14.140  0.00  0.00    +0.000 OA
ATOM     23  N   UNL     1      38.995  -1.649  13.191  0.00  0.00    +0.000 NA
BRANCH  23  24
ATOM     24  C   UNL     1      39.504  -1.594  11.867  0.00  0.00    +0.000 A 
ATOM     25  C   UNL     1      39.439  -0.365  11.247  0.00  0.00    +0.000 A 
ATOM     26  C   UNL     1      39.891  -0.151   9.962  0.00  0.00    +0.000 A 
ATOM     27  C   UNL     1      40.430  -1.221   9.283  0.00  0.00    +0.000 A 
ATOM     28  C   UNL     1      40.948  -1.079   7.876  0.00  0.00    +0.000 C 
ATOM     29  C   UNL     1      40.490  -2.451   9.914  0.00  0.00    +0.000 A 
ATOM     30  C   UNL     1      41.066  -3.633   9.210  0.00  0.00    +0.000 C 
ATOM     31  C   UNL     1      40.032  -2.646  11.200  0.00  0.00    +0.000 A 
ENDBRANCH  23  24
ENDBRANCH  20  21
ENDBRANCH   1  20
TORSDOF 6
ENDMDL
MODEL 5
REMARK VINA RESULT:      -7.7     24.300     27.058
REMARK  Name = 
REMARK  6 active torsions:
REMARK  status: ('A' for Active; 'I' for Inactive)
REMARK    1  A    between atoms: O_2  and  C_3
REMARK    2  A    between atoms: C_8  and  C_9
REMARK    3  A    between atoms: C_9  and  C_10
REMARK    4  A    between atoms: C_9  and  C_22
REMARK    5  A    between atoms: C_10  and  C_11
REMARK    6  A    between atoms: N_13  and  C_14
REMARK                            x       y       z     vdW  Elec       q    Type
REMARK                         _______ _______ _______ _____ _____    ______ ____
ROOT
ATOM      1  C   UNL     1      37.559   1.352  14.965  0.00  0.00    +0.000 C 
ENDROOT
BRANCH   1   2
ATOM      2  C   UNL     1      37.063   0.018  15.552  0.00  0.00    +0.000 A 
ATOM      3  C   UNL     1      35.690  -0.017  15.947  0.00  0.00    +0.000 A 
ATOM      4  N   UNL     1      35.396  -1.221  16.437  0.00  0.00    +0.000 NA
ATOM      5  C   UNL     1      36.542  -1.928  16.357  0.00  0.00    +0.000 A 
ATOM      6  C   UNL     1      36.833  -3.213  16.714  0.00  0.00    +0.000 A 
ATOM      7  C   UNL     1      38.094  -3.734  16.542  0.00  0.00    +0.000 A 
ATOM      8  C   UNL     1      39.061  -2.936  16.002  0.00  0.00    +0.000 A 
ATOM      9  C   UNL     1      38.765  -1.641  15.643  0.00  0.00    +0.000 A 
ATOM     10  C   UNL     1      39.836  -0.817  15.076  0.00  0.00    +0.000 C 
ATOM     11  N   UNL     1      37.536  -1.142  15.813  0.00  0.00    +0.000 N 
ENDBRANCH   1   2
BRANCH   1  17
ATOM     12  C   UNL     1      38.684   1.896  12.873  0.00  0.00    +0.000 A 
ATOM     13  C   UNL     1      38.847   1.933  11.501  0.00  0.00    +0.000 A 
ATOM     14  C   UNL     1      37.901   1.322  10.702  0.00  0.00    +0.000 A 
ATOM     15  C   UNL     1      36.819   0.691  11.274  0.00  0.00    +0.000 A 
ATOM     16  C   UNL     1      36.706   0.684  12.639  0.00  0.00    +0.000 A 
ATOM     17  C   UNL     1      37.613   1.271  13.442  0.00  0.00    +0.000 A 
BRANCH  12  19
ATOM     18  C   UNL     1      40.950   2.876  13.036  0.00  0.00    +0.000 C 
ATOM     19  O   UNL     1      39.702   2.546  13.609  0.00  0.00    +0.000 OA
ENDBRANCH  12  19
ENDBRANCH   1  17
BRANCH   1  20
ATOM     20  C   UNL     1      36.442   2.383  15.327  0.00  0.00    +0.000 C 
BRANCH  20  21
ATOM     21  C   UNL     1      37.148   3.598  15.785  0.00  0.00    +0.000 C 
ATOM     22  O   UNL     1      36.734   4.729  15.457  0.00  0.00    +0.000 OA
ATOM     23  N   UNL     1      38.309   3.549  16.604  0.00  0.00    +0.000 NA
BRANCH  23  24
ATOM     24  C   UNL     1      38.996   4.708  17.051  0.00  0.00    +0.000 A 
ATOM     25  C   UNL     1      39.800   5.327  16.120  0.00  0.00    +0.000 A 
ATOM     26  C   UNL     1      40.533   6.462  16.401  0.00  0.00    +0.000 A 
ATOM     27  C   UNL     1      40.444   6.986  17.672  0.00  0.00    +0.000 A 
ATOM     28  C   UNL     1      41.209   8.221  18.067  0.00  0.00    +0.000 C 
ATOM     29  C   UNL     1      39.634   6.356  18.600  0.00  0.00    +0.000 A 
ATOM     30  C   UNL     1      39.514   6.893  19.986  0.00  0.00    +0.000 C 
ATOM     31  C   UNL     1      38.909   5.222  18.300  0.00  0.00    +0.000 A 
ENDBRANCH  23  24
ENDBRANCH  20  21
ENDBRANCH   1  20
TORSDOF 6
ENDMDL
MODEL 6
REMARK VINA RESULT:      -7.7     23.948     27.689
REMARK  Name = 
REMARK  6 active torsions:
REMARK  status: ('A' for Active; 'I' for Inactive)
REMARK    1  A    between atoms: O_2  and  C_3
REMARK    2  A    between atoms: C_8  and  C_9
REMARK    3  A    between atoms: C_9  and  C_10
REMARK    4  A    between atoms: C_9  and  C_22
REMARK    5  A    between atoms: C_10  and  C_11
REMARK    6  A    between atoms: N_13  and  C_14
REMARK                            x       y       z     vdW  Elec       q    Type
REMARK                         _______ _______ _______ _____ _____    ______ ____
ROOT
ATOM      1  C   UNL     1      37.972  -2.080  14.963  0.00  0.00    +0.000 C 
ENDROOT
BRANCH   1   2
ATOM      2  C   UNL     1      37.210  -0.779  14.653  0.00  0.00    +0.000 A 
ATOM      3  C   UNL     1      37.249  -0.342  13.294  0.00  0.00    +0.000 A 
ATOM      4  N   UNL     1      36.557   0.790  13.167  0.00  0.00    +0.000 NA
ATOM      5  C   UNL     1      36.093   1.064  14.403  0.00  0.00    +0.000 A 
ATOM      6  C   UNL     1      35.329   2.095  14.870  0.00  0.00    +0.000 A 
ATOM      7  C   UNL     1      34.971   2.177  16.195  0.00  0.00    +0.000 A 
ATOM      8  C   UNL     1      35.397   1.199  17.046  0.00  0.00    +0.000 A 
ATOM      9  C   UNL     1      36.166   0.161  16.574  0.00  0.00    +0.000 A 
ATOM     10  C   UNL     1      36.610  -0.863  17.525  0.00  0.00    +0.000 C 
ATOM     11  N   UNL     1      36.510   0.088  15.284  0.00  0.00    +0.000 N 
ENDBRANCH   1   2
BRANCH   1  17
ATOM     12  C   UNL     1      37.364  -4.117  16.154  0.00  0.00    +0.000 A 
ATOM     13  C   UNL     1      36.589  -5.223  16.447  0.00  0.00    +0.000 A 
ATOM     14  C   UNL     1      35.416  -5.418  15.746  0.00  0.00    +0.000 A 
ATOM     15  C   UNL     1      35.036  -4.519  14.775  0.00  0.00    +0.000 A 
ATOM     16  C   UNL     1      35.840  -3.439  14.524  0.00  0.00    +0.000 A 
ATOM     17  C   UNL     1      36.989  -3.225  15.192  0.00  0.00    +0.000 A 
BRANCH  12  19
ATOM     18  C   UNL     1      38.532  -4.043  18.333  0.00  0.00    +0.000 C 
ATOM     19  O   UNL     1      38.546  -4.001  16.923  0.00  0.00    +0.000 OA
ENDBRANCH  12  19
ENDBRANCH   1  17
BRANCH   1  20
ATOM     20  C   UNL     1      38.752  -2.404  13.648  0.00  0.00    +0.000 C 
BRANCH  20  21
ATOM     21  C   UNL     1      40.180  -2.445  14.026  0.00  0.00    +0.000 C 
ATOM     22  O   UNL     1      40.546  -3.079  15.036  0.00  0.00    +0.000 OA
ATOM     23  N   UNL     1      41.191  -1.780  13.279  0.00  0.00    +0.000 NA
BRANCH  23  24
ATOM     24  C   UNL     1      42.566  -1.812  13.630  0.00  0.00    +0.000 A 
ATOM     25  C   UNL     1      43.335  -2.742  12.967  0.00  0.00    +0.000 A 
ATOM     26  C   UNL     1      44.687  -2.896  13.197  0.00  0.00    +0.000 A 
ATOM     27  C   UNL     1      45.277  -2.075  14.132  0.00  0.00    +0.000 A 
ATOM     28  C   UNL     1      46.746  -2.173  14.448  0.00  0.00    +0.000 C 
ATOM     29  C   UNL     1      44.496  -1.144  14.793  0.00  0.00    +0.000 A 
ATOM     30  C   UNL     1      45.099  -0.238  15.812  0.00  0.00    +0.000 C 
ATOM     31  C   UNL     1      43.145  -1.005  14.549  0.00  0.00    +0.000 A 
ENDBRANCH  23  24
ENDBRANCH  20  21
ENDBRANCH   1  20
TORSDOF 6
ENDMDL
MODEL 7
REMARK VINA RESULT:      -7.4     23.878     27.177
REMARK  Name = 
REMARK  6 active torsions:
REMARK  status: ('A' for Active; 'I' for Inactive)
REMARK    1  A    between atoms: O_2  and  C_3
REMARK    2  A    between atoms: C_8  and  C_9
REMARK    3  A    between atoms: C_9  and  C_10
REMARK    4  A    between atoms: C_9  and  C_22
REMARK    5  A    between atoms: C_10  and  C_11
REMARK    6  A    between atoms: N_13  and  C_14
REMARK                            x       y       z     vdW  Elec       q    Type
REMARK                         _______ _______ _______ _____ _____    ______ ____
ROOT
ATOM      1  C   UNL     1      37.631   2.737  14.640  0.00  0.00    +0.000 C 
ENDROOT
BRANCH   1   2
ATOM      2  C   UNL     1      37.519   3.150  13.162  0.00  0.00    +0.000 A 
ATOM      3  C   UNL     1      38.238   2.339  12.231  0.00  0.00    +0.000 A 
ATOM      4  N   UNL     1      38.057   2.807  10.996  0.00  0.00    +0.000 NA
ATOM      5  C   UNL     1      37.250   3.878  11.136  0.00  0.00    +0.000 A 
ATOM      6  C   UNL     1      36.737   4.745  10.214  0.00  0.00    +0.000 A 
ATOM      7  C   UNL     1      35.924   5.789  10.589  0.00  0.00    +0.000 A 
ATOM      8  C   UNL     1      35.634   5.945  11.913  0.00  0.00    +0.000 A 
ATOM      9  C   UNL     1      36.152   5.071  12.841  0.00  0.00    +0.000 A 
ATOM     10  C   UNL     1      35.823   5.282  14.253  0.00  0.00    +0.000 C 
ATOM     11  N   UNL     1      36.942   4.058  12.468  0.00  0.00    +0.000 N 
ENDBRANCH   1   2
BRANCH   1  17
ATOM     12  C   UNL     1      36.516   0.611  15.060  0.00  0.00    +0.000 A 
ATOM     13  C   UNL     1      36.434  -0.758  15.232  0.00  0.00    +0.000 A 
ATOM     14  C   UNL     1      37.580  -1.515  15.094  0.00  0.00    +0.000 A 
ATOM     15  C   UNL     1      38.777  -0.906  14.793  0.00  0.00    +0.000 A 
ATOM     16  C   UNL     1      38.803   0.454  14.633  0.00  0.00    +0.000 A 
ATOM     17  C   UNL     1      37.702   1.217  14.760  0.00  0.00    +0.000 A 
BRANCH  12  19
ATOM     18  C   UNL     1      34.841   1.753  16.477  0.00  0.00    +0.000 C 
ATOM     19  O   UNL     1      35.293   1.303  15.218  0.00  0.00    +0.000 OA
ENDBRANCH  12  19
ENDBRANCH   1  17
BRANCH   1  20
ATOM     20  C   UNL     1      39.016   3.295  15.102  0.00  0.00    +0.000 C 
BRANCH  20  21
ATOM     21  C   UNL     1      38.735   4.159  16.267  0.00  0.00    +0.000 C 
ATOM     22  O   UNL     1      37.868   3.829  17.101  0.00  0.00    +0.000 OA
ATOM     23  N   UNL     1      39.419   5.385  16.497  0.00  0.00    +0.000 NA
BRANCH  23  24
ATOM     24  C   UNL     1      39.159   6.224  17.612  0.00  0.00    +0.000 A 
ATOM     25  C   UNL     1      39.962   6.028  18.713  0.00  0.00    +0.000 A 
ATOM     26  C   UNL     1      39.834   6.764  19.873  0.00  0.00    +0.000 A 
ATOM     27  C   UNL     1      38.855   7.732  19.915  0.00  0.00    +0.000 A 
ATOM     28  C   UNL     1      38.643   8.582  21.140  0.00  0.00    +0.000 C 
ATOM     29  C   UNL     1      38.053   7.921  18.804  0.00  0.00    +0.000 A 
ATOM     30  C   UNL     1      36.983   8.959  18.812  0.00  0.00    +0.000 C 
ATOM     31  C   UNL     1      38.197   7.175  17.652  0.00  0.00    +0.000 A 
ENDBRANCH  23  24
ENDBRANCH  20  21
ENDBRANCH   1  20
TORSDOF 6
ENDMDL
MODEL 8
REMARK VINA RESULT:      -7.2     20.197     23.043
REMARK  Name = 
REMARK  6 active torsions:
REMARK  status: ('A' for Active; 'I' for Inactive)
REMARK    1  A    between atoms: O_2  and  C_3
REMARK    2  A    between atoms: C_8  and  C_9
REMARK    3  A    between atoms: C_9  and  C_10
REMARK    4  A    between atoms: C_9  and  C_22
REMARK    5  A    between atoms: C_10  and  C_11
REMARK    6  A    between atoms: N_13  and  C_14
REMARK                            x       y       z     vdW  Elec       q    Type
REMARK                         _______ _______ _______ _____ _____    ______ ____
ROOT
ATOM      1  C   UNL     1      15.437  -2.375   4.808  0.00  0.00    +0.000 C 
ENDROOT
BRANCH   1   2
ATOM      2  C   UNL     1      15.331  -3.838   5.274  0.00  0.00    +0.000 A 
ATOM      3  C   UNL     1      16.227  -4.227   6.317  0.00  0.00    +0.000 A 
ATOM      4  N   UNL     1      16.033  -5.511   6.619  0.00  0.00    +0.000 NA
ATOM      5  C   UNL     1      15.046  -5.924   5.798  0.00  0.00    +0.000 A 
ATOM      6  C   UNL     1      14.440  -7.140   5.661  0.00  0.00    +0.000 A 
ATOM      7  C   UNL     1      13.441  -7.341   4.738  0.00  0.00    +0.000 A 
ATOM      8  C   UNL     1      13.060  -6.292   3.952  0.00  0.00    +0.000 A 
ATOM      9  C   UNL     1      13.672  -5.067   4.092  0.00  0.00    +0.000 A 
ATOM     10  C   UNL     1      13.239  -3.972   3.220  0.00  0.00    +0.000 C 
ATOM     11  N   UNL     1      14.643  -4.881   4.992  0.00  0.00    +0.000 N 
ENDBRANCH   1   2
BRANCH   1  17
ATOM     12  C   UNL     1      13.776  -0.592   4.838  0.00  0.00    +0.000 A 
ATOM     13  C   UNL     1      12.884   0.290   5.416  0.00  0.00    +0.000 A 
ATOM     14  C   UNL     1      12.689   0.241   6.781  0.00  0.00    +0.000 A 
ATOM     15  C   UNL     1      13.380  -0.675   7.543  0.00  0.00    +0.000 A 
ATOM     16  C   UNL     1      14.253  -1.526   6.920  0.00  0.00    +0.000 A 
ATOM     17  C   UNL     1      14.461  -1.500   5.590  0.00  0.00    +0.000 A 
BRANCH  12  19
ATOM     18  C   UNL     1      14.344   0.728   2.824  0.00  0.00    +0.000 C 
ATOM     19  O   UNL     1      13.908  -0.468   3.435  0.00  0.00    +0.000 OA
ENDBRANCH  12  19
ENDBRANCH   1  17
BRANCH   1  20
ATOM     20  C   UNL     1      16.878  -1.933   5.219  0.00  0.00    +0.000 C 
BRANCH  20  21
ATOM     21  C   UNL     1      17.529  -1.473   3.975  0.00  0.00    +0.000 C 
ATOM     22  O   UNL     1      17.000  -1.697   2.867  0.00  0.00    +0.000 OA
ATOM     23  N   UNL     1      18.763  -0.767   3.969  0.00  0.00    +0.000 NA
BRANCH  23  24
ATOM     24  C   UNL     1      19.399  -0.319   2.782  0.00  0.00    +0.000 A 
ATOM     25  C   UNL     1      20.211  -1.236   2.152  0.00  0.00    +0.000 A 
ATOM     26  C   UNL     1      20.898  -0.952   0.989  0.00  0.00    +0.000 A 
ATOM     27  C   UNL     1      20.754   0.307   0.449  0.00  0.00    +0.000 A 
ATOM     28  C   UNL     1      21.467   0.704  -0.817  0.00  0.00    +0.000 C 
ATOM     29  C   UNL     1      19.937   1.220   1.090  0.00  0.00    +0.000 A 
ATOM     30  C   UNL     1      19.757   2.593   0.535  0.00  0.00    +0.000 C 
ATOM     31  C   UNL     1      19.258   0.918   2.251  0.00  0.00    +0.000 A 
ENDBRANCH  23  24
ENDBRANCH  20  21
ENDBRANCH   1  20
TORSDOF 6
ENDMDL
MODEL 9
REMARK VINA RESULT:      -7.1     23.240     26.840
REMARK  Name = 
REMARK  6 active torsions:
REMARK  status: ('A' for Active; 'I' for Inactive)
REMARK    1  A    between atoms: O_2  and  C_3
REMARK    2  A    between atoms: C_8  and  C_9
REMARK    3  A    between atoms: C_9  and  C_10
REMARK    4  A    between atoms: C_9  and  C_22
REMARK    5  A    between atoms: C_10  and  C_11
REMARK    6  A    between atoms: N_13  and  C_14
REMARK                            x       y       z     vdW  Elec       q    Type
REMARK                         _______ _______ _______ _____ _____    ______ ____
ROOT
ATOM      1  C   UNL     1      37.207   2.085  14.002  0.00  0.00    +0.000 C 
ENDROOT
BRANCH   1   2
ATOM      2  C   UNL     1      37.229   0.949  15.041  0.00  0.00    +0.000 A 
ATOM      3  C   UNL     1      38.296   0.008  14.915  0.00  0.00    +0.000 A 
ATOM      4  N   UNL     1      38.193  -0.917  15.869  0.00  0.00    +0.000 NA
ATOM      5  C   UNL     1      37.098  -0.576  16.579  0.00  0.00    +0.000 A 
ATOM      6  C   UNL     1      36.513  -1.159  17.665  0.00  0.00    +0.000 A 
ATOM      7  C   UNL     1      35.377  -0.632  18.235  0.00  0.00    +0.000 A 
ATOM      8  C   UNL     1      34.839   0.498  17.690  0.00  0.00    +0.000 A 
ATOM      9  C   UNL     1      35.432   1.085  16.595  0.00  0.00    +0.000 A 
ATOM     10  C   UNL     1      34.815   2.291  16.036  0.00  0.00    +0.000 C 
ATOM     11  N   UNL     1      36.536   0.565  16.047  0.00  0.00    +0.000 N 
ENDBRANCH   1   2
BRANCH   1  17
ATOM     12  C   UNL     1      37.089   4.515  14.138  0.00  0.00    +0.000 A 
ATOM     13  C   UNL     1      37.440   5.771  14.594  0.00  0.00    +0.000 A 
ATOM     14  C   UNL     1      38.407   5.877  15.574  0.00  0.00    +0.000 A 
ATOM     15  C   UNL     1      39.003   4.743  16.079  0.00  0.00    +0.000 A 
ATOM     16  C   UNL     1      38.618   3.523  15.592  0.00  0.00    +0.000 A 
ATOM     17  C   UNL     1      37.678   3.390  14.637  0.00  0.00    +0.000 A 
BRANCH  12  19
ATOM     18  C   UNL     1      35.754   5.662  12.400  0.00  0.00    +0.000 C 
ATOM     19  O   UNL     1      36.091   4.506  13.136  0.00  0.00    +0.000 OA
ENDBRANCH  12  19
ENDBRANCH   1  17
BRANCH   1  20
ATOM     20  C   UNL     1      38.286   1.676  12.948  0.00  0.00    +0.000 C 
BRANCH  20  21
ATOM     21  C   UNL     1      37.612   1.743  11.635  0.00  0.00    +0.000 C 
ATOM     22  O   UNL     1      36.699   0.940  11.354  0.00  0.00    +0.000 OA
ATOM     23  N   UNL     1      37.956   2.701  10.642  0.00  0.00    +0.000 NA
BRANCH  23  24
ATOM     24  C   UNL     1      37.316   2.777   9.377  0.00  0.00    +0.000 A 
ATOM     25  C   UNL     1      37.612   1.764   8.492  0.00  0.00    +0.000 A 
ATOM     26  C   UNL     1      37.071   1.697   7.224  0.00  0.00    +0.000 A 
ATOM     27  C   UNL     1      36.200   2.693   6.844  0.00  0.00    +0.000 A 
ATOM     28  C   UNL     1      35.563   2.701   5.479  0.00  0.00    +0.000 C 
ATOM     29  C   UNL     1      35.910   3.706   7.741  0.00  0.00    +0.000 A 
ATOM     30  C   UNL     1      34.971   4.802   7.364  0.00  0.00    +0.000 C 
ATOM     31  C   UNL     1      36.460   3.756   9.004  0.00  0.00    +0.000 A 
ENDBRANCH  23  24
ENDBRANCH  20  21
ENDBRANCH   1  20
TORSDOF 6
ENDMDL
MODEL 10
REMARK VINA RESULT:      -7.0     23.625     29.678
REMARK  Name = 
REMARK  6 active torsions:
REMARK  status: ('A' for Active; 'I' for Inactive)
REMARK    1  A    between atoms: O_2  and  C_3
REMARK    2  A    between atoms: C_8  and  C_9
REMARK    3  A    between atoms: C_9  and  C_10
REMARK    4  A    between atoms: C_9  and  C_22
REMARK    5  A    between atoms: C_10  and  C_11
REMARK    6  A    between atoms: N_13  and  C_14
REMARK                            x       y       z     vdW  Elec       q    Type
REMARK                         _______ _______ _______ _____ _____    ______ ____
ROOT
ATOM      1  C   UNL     1      40.193  -1.261  12.297  0.00  0.00    +0.000 C 
ENDROOT
BRANCH   1   2
ATOM      2  C   UNL     1      41.634  -1.760  12.506  0.00  0.00    +0.000 A 
ATOM      3  C   UNL     1      41.848  -3.156  12.293  0.00  0.00    +0.000 A 
ATOM      4  N   UNL     1      43.130  -3.451  12.509  0.00  0.00    +0.000 NA
ATOM      5  C   UNL     1      43.712  -2.281  12.847  0.00  0.00    +0.000 A 
ATOM      6  C   UNL     1      45.002  -1.981  13.176  0.00  0.00    +0.000 A 
ATOM      7  C   UNL     1      45.378  -0.697  13.495  0.00  0.00    +0.000 A 
ATOM      8  C   UNL     1      44.429   0.283  13.476  0.00  0.00    +0.000 A 
ATOM      9  C   UNL     1      43.129  -0.022  13.143  0.00  0.00    +0.000 A 
ATOM     10  C   UNL     1      42.140   1.060  13.145  0.00  0.00    +0.000 C 
ATOM     11  N   UNL     1      42.772  -1.273  12.834  0.00  0.00    +0.000 N 
ENDBRANCH   1   2
BRANCH   1  17
ATOM     12  C   UNL     1      39.129   0.306  10.763  0.00  0.00    +0.000 A 
ATOM     13  C   UNL     1      38.846   0.872   9.535  0.00  0.00    +0.000 A 
ATOM     14  C   UNL     1      39.484   0.382   8.413  0.00  0.00    +0.000 A 
ATOM     15  C   UNL     1      40.383  -0.654   8.529  0.00  0.00    +0.000 A 
ATOM     16  C   UNL     1      40.627  -1.180   9.770  0.00  0.00    +0.000 A 
ATOM     17  C   UNL     1      40.020  -0.721  10.880  0.00  0.00    +0.000 A 
BRANCH  12  19
ATOM     18  C   UNL     1      37.038   0.712  12.020  0.00  0.00    +0.000 C 
ATOM     19  O   UNL     1      38.430   0.873  11.854  0.00  0.00    +0.000 OA
ENDBRANCH  12  19
ENDBRANCH   1  17
BRANCH   1  20
ATOM     20  C   UNL     1      39.311  -2.547  12.406  0.00  0.00    +0.000 C 
BRANCH  20  21
ATOM     21  C   UNL     1      38.511  -2.385  13.638  0.00  0.00    +0.000 C 
ATOM     22  O   UNL     1      37.571  -3.166  13.886  0.00  0.00    +0.000 OA
ATOM     23  N   UNL     1      38.762  -1.355  14.586  0.00  0.00    +0.000 NA
BRANCH  23  24
ATOM     24  C   UNL     1      38.002  -1.188  15.773  0.00  0.00    +0.000 A 
ATOM     25  C   UNL     1      36.933  -0.324  15.687  0.00  0.00    +0.000 A 
ATOM     26  C   UNL     1      36.100  -0.056  16.754  0.00  0.00    +0.000 A 
ATOM     27  C   UNL     1      36.362  -0.688  17.949  0.00  0.00    +0.000 A 
ATOM     28  C   UNL     1      35.506  -0.455  19.165  0.00  0.00    +0.000 C 
ATOM     29  C   UNL     1      37.439  -1.553  18.025  0.00  0.00    +0.000 A 
ATOM     30  C   UNL     1      37.755  -2.255  19.302  0.00  0.00    +0.000 C 
ATOM     31  C   UNL     1      38.261  -1.809  16.948  0.00  0.00    +0.000 A 
ENDBRANCH  23  24
ENDBRANCH  20  21
ENDBRANCH   1  20
TORSDOF 6
ENDMDL
