MODEL 1
REMARK VINA RESULT:      -6.9      0.000      0.000
REMARK  Name = 
REMARK  2 active torsions:
REMARK  status: ('A' for Active; 'I' for Inactive)
REMARK    1  A    between atoms: N_4  and  C_5
REMARK    2  A    between atoms: C_13  and  C_14
REMARK                            x       y       z     vdW  Elec       q    Type
REMARK                         _______ _______ _______ _____ _____    ______ ____
ROOT
ATOM      1  C   UNL     1      25.570  22.995  22.632  0.00  0.00    +0.000 C 
ATOM      2  C   UNL     1      26.433  23.157  23.826  0.00  0.00    +0.000 A 
ATOM      3  C   UNL     1      25.976  23.039  25.120  0.00  0.00    +0.000 A 
ATOM      4  N   UNL     1      27.011  23.242  25.967  0.00  0.00    +0.000 N 
ATOM      5  C   UNL     1      28.095  23.481  25.198  0.00  0.00    +0.000 A 
ATOM      6  C   UNL     1      29.434  23.708  25.809  0.00  0.00    +0.000 C 
ATOM      7  C   UNL     1      27.787  23.441  23.864  0.00  0.00    +0.000 A 
ENDROOT
BRANCH   7   8
ATOM      8  C   UNL     1      28.616  23.581  22.700  0.00  0.00    +0.000 C 
ATOM      9  C   UNL     1      28.760  24.711  22.038  0.00  0.00    +0.000 C 
ATOM     10  N   UNL     1      29.596  24.894  20.863  0.00  0.00    +0.000 NA
ATOM     11  C   UNL     1      29.434  26.212  20.432  0.00  0.00    +0.000 C 
ATOM     12  S   UNL     1      30.163  26.914  19.144  0.00  0.00    +0.000 S 
ATOM     13  N   UNL     1      28.524  26.879  21.291  0.00  0.00    +0.000 NA
ATOM     14  C   UNL     1      28.083  25.968  22.304  0.00  0.00    +0.000 C 
ATOM     15  O   UNL     1      27.273  26.214  23.231  0.00  0.00    +0.000 OA
ENDBRANCH   7   8
BRANCH   4  16
ATOM     16  C   UNL     1      26.920  23.199  27.385  0.00  0.00    +0.000 A 
ATOM     17  C   UNL     1      26.069  24.077  28.044  0.00  0.00    +0.000 A 
ATOM     18  C   UNL     1      25.930  24.092  29.415  0.00  0.00    +0.000 A 
ATOM     19  C   UNL     1      26.692  23.174  30.133  0.00  0.00    +0.000 A 
ATOM     20  C   UNL     1      27.546  22.289  29.505  0.00  0.00    +0.000 A 
ATOM     21  C   UNL     1      27.661  22.300  28.143  0.00  0.00    +0.000 A 
ENDBRANCH   4  16
TORSDOF 2
ENDMDL
MODEL 2
REMARK VINA RESULT:      -6.6     21.431     23.066
REMARK  Name = 
REMARK  2 active torsions:
REMARK  status: ('A' for Active; 'I' for Inactive)
REMARK    1  A    between atoms: N_4  and  C_5
REMARK    2  A    between atoms: C_13  and  C_14
REMARK                            x       y       z     vdW  Elec       q    Type
REMARK                         _______ _______ _______ _____ _____    ______ ____
ROOT
ATOM      1  C   UNL     1      25.154   0.247  17.065  0.00  0.00    +0.000 C 
ATOM      2  C   UNL     1      25.043   1.674  17.448  0.00  0.00    +0.000 A 
ATOM      3  C   UNL     1      26.084   2.573  17.357  0.00  0.00    +0.000 A 
ATOM      4  N   UNL     1      25.652   3.782  17.782  0.00  0.00    +0.000 N 
ATOM      5  C   UNL     1      24.356   3.627  18.130  0.00  0.00    +0.000 A 
ATOM      6  C   UNL     1      23.547   4.782  18.608  0.00  0.00    +0.000 C 
ATOM      7  C   UNL     1      23.934   2.338  17.943  0.00  0.00    +0.000 A 
ENDROOT
BRANCH   7   8
ATOM      8  C   UNL     1      22.644   1.733  18.124  0.00  0.00    +0.000 C 
ATOM      9  C   UNL     1      21.690   1.763  17.215  0.00  0.00    +0.000 C 
ATOM     10  N   UNL     1      20.377   1.155  17.357  0.00  0.00    +0.000 NA
ATOM     11  C   UNL     1      19.647   1.455  16.205  0.00  0.00    +0.000 C 
ATOM     12  S   UNL     1      18.108   0.998  15.879  0.00  0.00    +0.000 S 
ATOM     13  N   UNL     1      20.448   2.233  15.331  0.00  0.00    +0.000 NA
ATOM     14  C   UNL     1      21.729   2.444  15.933  0.00  0.00    +0.000 C 
ATOM     15  O   UNL     1      22.688   3.091  15.446  0.00  0.00    +0.000 OA
ENDBRANCH   7   8
BRANCH   4  16
ATOM     16  C   UNL     1      26.450   4.957  17.831  0.00  0.00    +0.000 A 
ATOM     17  C   UNL     1      26.584   5.743  16.694  0.00  0.00    +0.000 A 
ATOM     18  C   UNL     1      27.341   6.894  16.667  0.00  0.00    +0.000 A 
ATOM     19  C   UNL     1      27.983   7.249  17.851  0.00  0.00    +0.000 A 
ATOM     20  C   UNL     1      27.869   6.488  18.997  0.00  0.00    +0.000 A 
ATOM     21  C   UNL     1      27.110   5.351  18.990  0.00  0.00    +0.000 A 
ENDBRANCH   4  16
TORSDOF 2
ENDMDL
MODEL 3
REMARK VINA RESULT:      -6.5      1.115      2.431
REMARK  Name = 
REMARK  2 active torsions:
REMARK  status: ('A' for Active; 'I' for Inactive)
REMARK    1  A    between atoms: N_4  and  C_5
REMARK    2  A    between atoms: C_13  and  C_14
REMARK                            x       y       z     vdW  Elec       q    Type
REMARK                         _______ _______ _______ _____ _____    ______ ____
ROOT
ATOM      1  C   UNL     1      31.712  23.295  24.841  0.00  0.00    +0.000 C 
ATOM      2  C   UNL     1      30.281  23.286  25.229  0.00  0.00    +0.000 A 
ATOM      3  C   UNL     1      29.844  23.228  26.534  0.00  0.00    +0.000 A 
ATOM      4  N   UNL     1      28.492  23.237  26.539  0.00  0.00    +0.000 N 
ATOM      5  C   UNL     1      28.102  23.302  25.248  0.00  0.00    +0.000 A 
ATOM      6  C   UNL     1      26.660  23.372  24.884  0.00  0.00    +0.000 C 
ATOM      7  C   UNL     1      29.175  23.332  24.398  0.00  0.00    +0.000 A 
ENDROOT
BRANCH   7   8
ATOM      8  C   UNL     1      29.242  23.452  22.968  0.00  0.00    +0.000 C 
ATOM      9  C   UNL     1      29.380  24.601  22.338  0.00  0.00    +0.000 C 
ATOM     10  N   UNL     1      29.461  24.762  20.895  0.00  0.00    +0.000 NA
ATOM     11  C   UNL     1      29.549  26.130  20.628  0.00  0.00    +0.000 C 
ATOM     12  S   UNL     1      29.661  26.831  19.152  0.00  0.00    +0.000 S 
ATOM     13  N   UNL     1      29.527  26.849  21.851  0.00  0.00    +0.000 NA
ATOM     14  C   UNL     1      29.421  25.924  22.937  0.00  0.00    +0.000 C 
ATOM     15  O   UNL     1      29.371  26.206  24.159  0.00  0.00    +0.000 OA
ENDBRANCH   7   8
BRANCH   4  16
ATOM     16  C   UNL     1      27.685  23.188  27.709  0.00  0.00    +0.000 A 
ATOM     17  C   UNL     1      27.786  22.099  28.565  0.00  0.00    +0.000 A 
ATOM     18  C   UNL     1      27.036  21.984  29.716  0.00  0.00    +0.000 A 
ATOM     19  C   UNL     1      26.152  23.023  29.996  0.00  0.00    +0.000 A 
ATOM     20  C   UNL     1      26.031  24.118  29.163  0.00  0.00    +0.000 A 
ATOM     21  C   UNL     1      26.789  24.202  28.029  0.00  0.00    +0.000 A 
ENDBRANCH   4  16
TORSDOF 2
ENDMDL
MODEL 4
REMARK VINA RESULT:      -6.0      5.093      7.994
REMARK  Name = 
REMARK  2 active torsions:
REMARK  status: ('A' for Active; 'I' for Inactive)
REMARK    1  A    between atoms: N_4  and  C_5
REMARK    2  A    between atoms: C_13  and  C_14
REMARK                            x       y       z     vdW  Elec       q    Type
REMARK                         _______ _______ _______ _____ _____    ______ ____
ROOT
ATOM      1  C   UNL     1      26.436  21.521  30.354  0.00  0.00    +0.000 C 
ATOM      2  C   UNL     1      27.012  22.433  29.338  0.00  0.00    +0.000 A 
ATOM      3  C   UNL     1      27.997  22.062  28.450  0.00  0.00    +0.000 A 
ATOM      4  N   UNL     1      28.296  23.122  27.665  0.00  0.00    +0.000 N 
ATOM      5  C   UNL     1      27.499  24.136  28.068  0.00  0.00    +0.000 A 
ATOM      6  C   UNL     1      27.534  25.458  27.384  0.00  0.00    +0.000 C 
ATOM      7  C   UNL     1      26.687  23.758  29.104  0.00  0.00    +0.000 A 
ENDROOT
BRANCH   7   8
ATOM      8  C   UNL     1      25.659  24.474  29.805  0.00  0.00    +0.000 C 
ATOM      9  C   UNL     1      25.849  25.074  30.963  0.00  0.00    +0.000 C 
ATOM     10  N   UNL     1      24.837  25.816  31.699  0.00  0.00    +0.000 NA
ATOM     11  C   UNL     1      25.417  26.248  32.894  0.00  0.00    +0.000 C 
ATOM     12  S   UNL     1      24.689  27.125  34.070  0.00  0.00    +0.000 S 
ATOM     13  N   UNL     1      26.764  25.808  32.947  0.00  0.00    +0.000 NA
ATOM     14  C   UNL     1      27.064  25.072  31.757  0.00  0.00    +0.000 C 
ATOM     15  O   UNL     1      28.160  24.533  31.467  0.00  0.00    +0.000 OA
ENDBRANCH   7   8
BRANCH   4  16
ATOM     16  C   UNL     1      29.270  23.116  26.629  0.00  0.00    +0.000 A 
ATOM     17  C   UNL     1      30.574  23.499  26.912  0.00  0.00    +0.000 A 
ATOM     18  C   UNL     1      31.569  23.517  25.959  0.00  0.00    +0.000 A 
ATOM     19  C   UNL     1      31.211  23.129  24.670  0.00  0.00    +0.000 A 
ATOM     20  C   UNL     1      29.922  22.743  24.359  0.00  0.00    +0.000 A 
ATOM     21  C   UNL     1      28.958  22.737  25.328  0.00  0.00    +0.000 A 
ENDBRANCH   4  16
TORSDOF 2
ENDMDL
MODEL 5
REMARK VINA RESULT:      -6.0      4.372      6.991
REMARK  Name = 
REMARK  2 active torsions:
REMARK  status: ('A' for Active; 'I' for Inactive)
REMARK    1  A    between atoms: N_4  and  C_5
REMARK    2  A    between atoms: C_13  and  C_14
REMARK                            x       y       z     vdW  Elec       q    Type
REMARK                         _______ _______ _______ _____ _____    ______ ____
ROOT
ATOM      1  C   UNL     1      27.890  22.344  28.579  0.00  0.00    +0.000 C 
ATOM      2  C   UNL     1      28.480  22.647  27.254  0.00  0.00    +0.000 A 
ATOM      3  C   UNL     1      27.821  23.345  26.266  0.00  0.00    +0.000 A 
ATOM      4  N   UNL     1      28.634  23.447  25.190  0.00  0.00    +0.000 N 
ATOM      5  C   UNL     1      29.784  22.819  25.516  0.00  0.00    +0.000 A 
ATOM      6  C   UNL     1      30.931  22.776  24.567  0.00  0.00    +0.000 C 
ATOM      7  C   UNL     1      29.736  22.305  26.784  0.00  0.00    +0.000 A 
ENDROOT
BRANCH   7   8
ATOM      8  C   UNL     1      30.728  21.615  27.560  0.00  0.00    +0.000 C 
ATOM      9  C   UNL     1      31.554  22.219  28.391  0.00  0.00    +0.000 C 
ATOM     10  N   UNL     1      32.564  21.555  29.200  0.00  0.00    +0.000 NA
ATOM     11  C   UNL     1      33.261  22.544  29.899  0.00  0.00    +0.000 C 
ATOM     12  S   UNL     1      34.498  22.310  30.946  0.00  0.00    +0.000 S 
ATOM     13  N   UNL     1      32.730  23.816  29.565  0.00  0.00    +0.000 NA
ATOM     14  C   UNL     1      31.664  23.648  28.625  0.00  0.00    +0.000 C 
ATOM     15  O   UNL     1      30.970  24.558  28.109  0.00  0.00    +0.000 OA
ENDBRANCH   7   8
BRANCH   4  16
ATOM     16  C   UNL     1      28.294  24.103  23.975  0.00  0.00    +0.000 A 
ATOM     17  C   UNL     1      27.474  23.461  23.057  0.00  0.00    +0.000 A 
ATOM     18  C   UNL     1      27.103  24.035  21.860  0.00  0.00    +0.000 A 
ATOM     19  C   UNL     1      27.592  25.313  21.598  0.00  0.00    +0.000 A 
ATOM     20  C   UNL     1      28.409  25.975  22.493  0.00  0.00    +0.000 A 
ATOM     21  C   UNL     1      28.759  25.378  23.672  0.00  0.00    +0.000 A 
ENDBRANCH   4  16
TORSDOF 2
ENDMDL
MODEL 6
REMARK VINA RESULT:      -5.8     22.007     23.534
REMARK  Name = 
REMARK  2 active torsions:
REMARK  status: ('A' for Active; 'I' for Inactive)
REMARK    1  A    between atoms: N_4  and  C_5
REMARK    2  A    between atoms: C_13  and  C_14
REMARK                            x       y       z     vdW  Elec       q    Type
REMARK                         _______ _______ _______ _____ _____    ______ ____
ROOT
ATOM      1  C   UNL     1      21.698   2.942  18.317  0.00  0.00    +0.000 C 
ATOM      2  C   UNL     1      23.139   3.128  18.027  0.00  0.00    +0.000 A 
ATOM      3  C   UNL     1      23.806   4.321  18.201  0.00  0.00    +0.000 A 
ATOM      4  N   UNL     1      25.100   4.151  17.847  0.00  0.00    +0.000 N 
ATOM      5  C   UNL     1      25.227   2.863  17.460  0.00  0.00    +0.000 A 
ATOM      6  C   UNL     1      26.546   2.315  17.041  0.00  0.00    +0.000 C 
ATOM      7  C   UNL     1      24.039   2.189  17.552  0.00  0.00    +0.000 A 
ENDROOT
BRANCH   7   8
ATOM      8  C   UNL     1      23.714   0.813  17.302  0.00  0.00    +0.000 C 
ATOM      9  C   UNL     1      23.329   0.355  16.128  0.00  0.00    +0.000 C 
ATOM     10  N   UNL     1      23.001  -1.031  15.834  0.00  0.00    +0.000 NA
ATOM     11  C   UNL     1      22.591  -1.093  14.500  0.00  0.00    +0.000 C 
ATOM     12  S   UNL     1      22.115  -2.433  13.687  0.00  0.00    +0.000 S 
ATOM     13  N   UNL     1      22.645   0.206  13.931  0.00  0.00    +0.000 NA
ATOM     14  C   UNL     1      23.101   1.132  14.922  0.00  0.00    +0.000 C 
ATOM     15  O   UNL     1      23.267   2.368  14.772  0.00  0.00    +0.000 OA
ENDBRANCH   7   8
BRANCH   4  16
ATOM     16  C   UNL     1      26.094   5.167  17.894  0.00  0.00    +0.000 A 
ATOM     17  C   UNL     1      26.246   6.027  16.814  0.00  0.00    +0.000 A 
ATOM     18  C   UNL     1      27.187   7.033  16.789  0.00  0.00    +0.000 A 
ATOM     19  C   UNL     1      28.000   7.159  17.913  0.00  0.00    +0.000 A 
ATOM     20  C   UNL     1      27.871   6.319  19.001  0.00  0.00    +0.000 A 
ATOM     21  C   UNL     1      26.928   5.330  18.994  0.00  0.00    +0.000 A 
ENDBRANCH   4  16
TORSDOF 2
ENDMDL
MODEL 7
REMARK VINA RESULT:      -5.8      4.389      7.465
REMARK  Name = 
REMARK  2 active torsions:
REMARK  status: ('A' for Active; 'I' for Inactive)
REMARK    1  A    between atoms: N_4  and  C_5
REMARK    2  A    between atoms: C_13  and  C_14
REMARK                            x       y       z     vdW  Elec       q    Type
REMARK                         _______ _______ _______ _____ _____    ______ ____
ROOT
ATOM      1  C   UNL     1      25.771  24.544  30.442  0.00  0.00    +0.000 C 
ATOM      2  C   UNL     1      26.352  23.965  29.207  0.00  0.00    +0.000 A 
ATOM      3  C   UNL     1      26.012  24.377  27.938  0.00  0.00    +0.000 A 
ATOM      4  N   UNL     1      26.719  23.651  27.042  0.00  0.00    +0.000 N 
ATOM      5  C   UNL     1      27.488  22.802  27.756  0.00  0.00    +0.000 A 
ATOM      6  C   UNL     1      28.436  21.872  27.081  0.00  0.00    +0.000 C 
ATOM      7  C   UNL     1      27.295  22.957  29.103  0.00  0.00    +0.000 A 
ENDROOT
BRANCH   7   8
ATOM      8  C   UNL     1      27.923  22.318  30.225  0.00  0.00    +0.000 C 
ATOM      9  C   UNL     1      29.088  22.688  30.717  0.00  0.00    +0.000 C 
ATOM     10  N   UNL     1      29.752  22.074  31.855  0.00  0.00    +0.000 NA
ATOM     11  C   UNL     1      30.981  22.715  32.024  0.00  0.00    +0.000 C 
ATOM     12  S   UNL     1      32.102  22.389  33.172  0.00  0.00    +0.000 S 
ATOM     13  N   UNL     1      31.126  23.719  31.032  0.00  0.00    +0.000 NA
ATOM     14  C   UNL     1      29.962  23.726  30.199  0.00  0.00    +0.000 C 
ATOM     15  O   UNL     1      29.748  24.480  29.219  0.00  0.00    +0.000 OA
ENDBRANCH   7   8
BRANCH   4  16
ATOM     16  C   UNL     1      26.632  23.797  25.630  0.00  0.00    +0.000 A 
ATOM     17  C   UNL     1      27.462  24.702  24.982  0.00  0.00    +0.000 A 
ATOM     18  C   UNL     1      27.432  24.897  23.618  0.00  0.00    +0.000 A 
ATOM     19  C   UNL     1      26.518  24.134  22.895  0.00  0.00    +0.000 A 
ATOM     20  C   UNL     1      25.680  23.227  23.513  0.00  0.00    +0.000 A 
ATOM     21  C   UNL     1      25.734  23.058  24.868  0.00  0.00    +0.000 A 
ENDBRANCH   4  16
TORSDOF 2
ENDMDL
MODEL 8
REMARK VINA RESULT:      -5.8     34.498     36.236
REMARK  Name = 
REMARK  2 active torsions:
REMARK  status: ('A' for Active; 'I' for Inactive)
REMARK    1  A    between atoms: N_4  and  C_5
REMARK    2  A    between atoms: C_13  and  C_14
REMARK                            x       y       z     vdW  Elec       q    Type
REMARK                         _______ _______ _______ _____ _____    ______ ____
ROOT
ATOM      1  C   UNL     1      15.407 -11.440  27.890  0.00  0.00    +0.000 C 
ATOM      2  C   UNL     1      16.659 -10.646  27.933  0.00  0.00    +0.000 A 
ATOM      3  C   UNL     1      16.830  -9.453  27.266  0.00  0.00    +0.000 A 
ATOM      4  N   UNL     1      18.078  -8.993  27.513  0.00  0.00    +0.000 N 
ATOM      5  C   UNL     1      18.667  -9.895  28.326  0.00  0.00    +0.000 A 
ATOM      6  C   UNL     1      20.049  -9.681  28.838  0.00  0.00    +0.000 C 
ATOM      7  C   UNL     1      17.828 -10.939  28.613  0.00  0.00    +0.000 A 
ENDROOT
BRANCH   7   8
ATOM      8  C   UNL     1      18.003 -12.083  29.464  0.00  0.00    +0.000 C 
ATOM      9  C   UNL     1      17.759 -12.073  30.759  0.00  0.00    +0.000 C 
ATOM     10  N   UNL     1      17.916 -13.211  31.651  0.00  0.00    +0.000 NA
ATOM     11  C   UNL     1      17.610 -12.779  32.943  0.00  0.00    +0.000 C 
ATOM     12  S   UNL     1      17.636 -13.686  34.306  0.00  0.00    +0.000 S 
ATOM     13  N   UNL     1      17.264 -11.404  32.908  0.00  0.00    +0.000 NA
ATOM     14  C   UNL     1      17.349 -10.933  31.560  0.00  0.00    +0.000 C 
ATOM     15  O   UNL     1      17.115  -9.767  31.157  0.00  0.00    +0.000 OA
ENDBRANCH   7   8
BRANCH   4  16
ATOM     16  C   UNL     1      18.614  -7.783  26.992  0.00  0.00    +0.000 A 
ATOM     17  C   UNL     1      18.061  -6.568  27.373  0.00  0.00    +0.000 A 
ATOM     18  C   UNL     1      18.528  -5.358  26.909  0.00  0.00    +0.000 A 
ATOM     19  C   UNL     1      19.600  -5.398  26.021  0.00  0.00    +0.000 A 
ATOM     20  C   UNL     1      20.170  -6.592  25.624  0.00  0.00    +0.000 A 
ATOM     21  C   UNL     1      19.683  -7.776  26.103  0.00  0.00    +0.000 A 
ENDBRANCH   4  16
TORSDOF 2
ENDMDL
MODEL 9
REMARK VINA RESULT:      -5.7     18.997     20.565
REMARK  Name = 
REMARK  2 active torsions:
REMARK  status: ('A' for Active; 'I' for Inactive)
REMARK    1  A    between atoms: N_4  and  C_5
REMARK    2  A    between atoms: C_13  and  C_14
REMARK                            x       y       z     vdW  Elec       q    Type
REMARK                         _______ _______ _______ _____ _____    ______ ____
ROOT
ATOM      1  C   UNL     1      23.546   9.235  36.089  0.00  0.00    +0.000 C 
ATOM      2  C   UNL     1      22.515  10.023  36.806  0.00  0.00    +0.000 A 
ATOM      3  C   UNL     1      21.191   9.652  36.887  0.00  0.00    +0.000 A 
ATOM      4  N   UNL     1      20.523  10.583  37.607  0.00  0.00    +0.000 N 
ATOM      5  C   UNL     1      21.431  11.516  37.965  0.00  0.00    +0.000 A 
ATOM      6  C   UNL     1      21.044  12.678  38.812  0.00  0.00    +0.000 C 
ATOM      7  C   UNL     1      22.680  11.214  37.491  0.00  0.00    +0.000 A 
ENDROOT
BRANCH   7   8
ATOM      8  C   UNL     1      23.941  11.878  37.665  0.00  0.00    +0.000 C 
ATOM      9  C   UNL     1      24.772  11.616  38.653  0.00  0.00    +0.000 C 
ATOM     10  N   UNL     1      26.060  12.260  38.859  0.00  0.00    +0.000 NA
ATOM     11  C   UNL     1      26.606  11.745  40.037  0.00  0.00    +0.000 C 
ATOM     12  S   UNL     1      28.046  12.149  40.703  0.00  0.00    +0.000 S 
ATOM     13  N   UNL     1      25.711  10.795  40.592  0.00  0.00    +0.000 NA
ATOM     14  C   UNL     1      24.556  10.692  39.752  0.00  0.00    +0.000 C 
ATOM     15  O   UNL     1      23.560   9.952  39.937  0.00  0.00    +0.000 OA
ENDBRANCH   7   8
BRANCH   4  16
ATOM     16  C   UNL     1      19.133  10.537  37.900  0.00  0.00    +0.000 A 
ATOM     17  C   UNL     1      18.691   9.840  39.016  0.00  0.00    +0.000 A 
ATOM     18  C   UNL     1      17.360   9.752  39.362  0.00  0.00    +0.000 A 
ATOM     19  C   UNL     1      16.451  10.405  38.532  0.00  0.00    +0.000 A 
ATOM     20  C   UNL     1      16.862  11.106  37.415  0.00  0.00    +0.000 A 
ATOM     21  C   UNL     1      18.190  11.173  37.100  0.00  0.00    +0.000 A 
ENDBRANCH   4  16
TORSDOF 2
ENDMDL
MODEL 10
REMARK VINA RESULT:      -5.6      4.813      7.806
REMARK  Name = 
REMARK  2 active torsions:
REMARK  status: ('A' for Active; 'I' for Inactive)
REMARK    1  A    between atoms: N_4  and  C_5
REMARK    2  A    between atoms: C_13  and  C_14
REMARK                            x       y       z     vdW  Elec       q    Type
REMARK                         _______ _______ _______ _____ _____    ______ ____
ROOT
ATOM      1  C   UNL     1      33.255  24.324  27.247  0.00  0.00    +0.000 C 
ATOM      2  C   UNL     1      31.910  23.875  26.813  0.00  0.00    +0.000 A 
ATOM      3  C   UNL     1      31.244  24.399  25.727  0.00  0.00    +0.000 A 
ATOM      4  N   UNL     1      30.051  23.774  25.607  0.00  0.00    +0.000 N 
ATOM      5  C   UNL     1      29.987  22.872  26.610  0.00  0.00    +0.000 A 
ATOM      6  C   UNL     1      28.812  21.967  26.755  0.00  0.00    +0.000 C 
ATOM      7  C   UNL     1      31.114  22.898  27.386  0.00  0.00    +0.000 A 
ENDROOT
BRANCH   7   8
ATOM      8  C   UNL     1      31.504  22.095  28.511  0.00  0.00    +0.000 C 
ATOM      9  C   UNL     1      31.079  22.305  29.740  0.00  0.00    +0.000 C 
ATOM     10  N   UNL     1      31.443  21.510  30.901  0.00  0.00    +0.000 NA
ATOM     11  C   UNL     1      30.830  22.085  32.016  0.00  0.00    +0.000 C 
ATOM     12  S   UNL     1      30.930  21.561  33.564  0.00  0.00    +0.000 S 
ATOM     13  N   UNL     1      30.086  23.222  31.607  0.00  0.00    +0.000 NA
ATOM     14  C   UNL     1      30.222  23.387  30.192  0.00  0.00    +0.000 C 
ATOM     15  O   UNL     1      29.703  24.289  29.490  0.00  0.00    +0.000 OA
ENDBRANCH   7   8
BRANCH   4  16
ATOM     16  C   UNL     1      29.088  24.051  24.598  0.00  0.00    +0.000 A 
ATOM     17  C   UNL     1      29.196  23.433  23.359  0.00  0.00    +0.000 A 
ATOM     18  C   UNL     1      28.301  23.654  22.335  0.00  0.00    +0.000 A 
ATOM     19  C   UNL     1      27.258  24.540  22.594  0.00  0.00    +0.000 A 
ATOM     20  C   UNL     1      27.125  25.169  23.816  0.00  0.00    +0.000 A 
ATOM     21  C   UNL     1      28.031  24.928  24.811  0.00  0.00    +0.000 A 
ENDBRANCH   4  16
TORSDOF 2
ENDMDL
