MODEL 1
REMARK VINA RESULT:      -7.7      0.000      0.000
REMARK  Name = 
REMARK  3 active torsions:
REMARK  status: ('A' for Active; 'I' for Inactive)
REMARK    1  A    between atoms: C_8  and  N_9
REMARK    2  A    between atoms: C_10  and  C_12
REMARK    3  A    between atoms: C_15  and  C_16
REMARK                            x       y       z     vdW  Elec       q    Type
REMARK                         _______ _______ _______ _____ _____    ______ ____
ROOT
ATOM      1  N   UNL     1      17.049  10.103  36.807  0.00  0.00    +0.000 NA
ATOM      2  C   UNL     1      16.817  11.495  36.481  0.00  0.00    +0.000 C 
ATOM      3  O   UNL     1      17.190  12.341  37.263  0.00  0.00    +0.000 OA
ENDROOT
BRANCH   1  11
ATOM      4  C   UNL     1      19.841   9.739  36.882  0.00  0.00    +0.000 C 
ATOM      5  C   UNL     1      19.056   9.649  38.125  0.00  0.00    +0.000 A 
ATOM      6  C   UNL     1      19.772   9.365  39.340  0.00  0.00    +0.000 A 
ATOM      7  C   UNL     1      18.917   9.347  40.439  0.00  0.00    +0.000 A 
ATOM      8  O   UNL     1      19.563   9.072  41.720  0.00  0.00    +0.000 OA
ATOM      9  C   UNL     1      17.641   9.549  40.440  0.00  0.00    +0.000 A 
ATOM     10  C   UNL     1      16.968   9.826  39.236  0.00  0.00    +0.000 A 
ATOM     11  C   UNL     1      17.708   9.866  38.086  0.00  0.00    +0.000 A 
ENDBRANCH   1  11
BRANCH   2  12
ATOM     12  C   UNL     1      16.142  11.812  35.211  0.00  0.00    +0.000 A 
ATOM     13  C   UNL     1      16.862  11.355  34.052  0.00  0.00    +0.000 A 
ATOM     14  C   UNL     1      16.308  11.720  32.857  0.00  0.00    +0.000 A 
ATOM     15  C   UNL     1      15.231  12.409  32.584  0.00  0.00    +0.000 A 
ATOM     16  C   UNL     1      14.471  12.876  33.730  0.00  0.00    +0.000 A 
ATOM     17  C   UNL     1      15.032  12.513  34.983  0.00  0.00    +0.000 A 
BRANCH  15  18
ATOM     18  C   UNL     1      14.738  12.741  31.208  0.00  0.00    +0.000 C 
ATOM     19  C   UNL     1      15.822  13.479  30.423  0.00  0.00    +0.000 C 
ATOM     20  C   UNL     1      13.586  13.686  31.300  0.00  0.00    +0.000 C 
ATOM     21  C   UNL     1      14.436  11.443  30.473  0.00  0.00    +0.000 C 
ENDBRANCH  15  18
ENDBRANCH   2  12
TORSDOF 3
ENDMDL
MODEL 2
REMARK VINA RESULT:      -7.7      1.133      2.110
REMARK  Name = 
REMARK  3 active torsions:
REMARK  status: ('A' for Active; 'I' for Inactive)
REMARK    1  A    between atoms: C_8  and  N_9
REMARK    2  A    between atoms: C_10  and  C_12
REMARK    3  A    between atoms: C_15  and  C_16
REMARK                            x       y       z     vdW  Elec       q    Type
REMARK                         _______ _______ _______ _____ _____    ______ ____
ROOT
ATOM      1  N   UNL     1      17.329  10.840  36.928  0.00  0.00    +0.000 NA
ATOM      2  C   UNL     1      17.162  10.034  35.735  0.00  0.00    +0.000 C 
ATOM      3  O   UNL     1      17.411   8.852  35.798  0.00  0.00    +0.000 OA
ENDROOT
BRANCH   1  11
ATOM      4  C   UNL     1      15.588  10.399  39.097  0.00  0.00    +0.000 C 
ATOM      5  C   UNL     1      16.985   9.938  39.173  0.00  0.00    +0.000 A 
ATOM      6  C   UNL     1      17.399   9.279  40.382  0.00  0.00    +0.000 A 
ATOM      7  C   UNL     1      18.726   8.862  40.303  0.00  0.00    +0.000 A 
ATOM      8  O   UNL     1      19.230   8.174  41.489  0.00  0.00    +0.000 OA
ATOM      9  C   UNL     1      19.535   9.015  39.307  0.00  0.00    +0.000 A 
ATOM     10  C   UNL     1      19.101   9.664  38.136  0.00  0.00    +0.000 A 
ATOM     11  C   UNL     1      17.812  10.121  38.101  0.00  0.00    +0.000 A 
ENDBRANCH   1  11
BRANCH   2  12
ATOM     12  C   UNL     1      16.692  10.695  34.506  0.00  0.00    +0.000 A 
ATOM     13  C   UNL     1      15.737  11.744  34.751  0.00  0.00    +0.000 A 
ATOM     14  C   UNL     1      15.211  12.310  33.623  0.00  0.00    +0.000 A 
ATOM     15  C   UNL     1      15.430  12.066  32.358  0.00  0.00    +0.000 A 
ATOM     16  C   UNL     1      16.398  11.023  32.072  0.00  0.00    +0.000 A 
ATOM     17  C   UNL     1      16.954  10.417  33.230  0.00  0.00    +0.000 A 
BRANCH  15  18
ATOM     18  C   UNL     1      14.770  12.771  31.211  0.00  0.00    +0.000 C 
ATOM     19  C   UNL     1      15.790  13.629  30.463  0.00  0.00    +0.000 C 
ATOM     20  C   UNL     1      13.740  13.720  31.727  0.00  0.00    +0.000 C 
ATOM     21  C   UNL     1      14.240  11.728  30.238  0.00  0.00    +0.000 C 
ENDBRANCH  15  18
ENDBRANCH   2  12
TORSDOF 3
ENDMDL
MODEL 3
REMARK VINA RESULT:      -7.6      2.641      8.193
REMARK  Name = 
REMARK  3 active torsions:
REMARK  status: ('A' for Active; 'I' for Inactive)
REMARK    1  A    between atoms: C_8  and  N_9
REMARK    2  A    between atoms: C_10  and  C_12
REMARK    3  A    between atoms: C_15  and  C_16
REMARK                            x       y       z     vdW  Elec       q    Type
REMARK                         _______ _______ _______ _____ _____    ______ ____
ROOT
ATOM      1  N   UNL     1      15.482  11.860  35.689  0.00  0.00    +0.000 NA
ATOM      2  C   UNL     1      14.515  11.556  36.725  0.00  0.00    +0.000 C 
ATOM      3  O   UNL     1      13.346  11.776  36.506  0.00  0.00    +0.000 OA
ENDROOT
BRANCH   1  11
ATOM      4  C   UNL     1      16.015  10.631  33.211  0.00  0.00    +0.000 C 
ATOM      5  C   UNL     1      15.212  11.865  33.260  0.00  0.00    +0.000 A 
ATOM      6  C   UNL     1      14.737  12.395  32.010  0.00  0.00    +0.000 A 
ATOM      7  C   UNL     1      13.963  13.535  32.204  0.00  0.00    +0.000 A 
ATOM      8  O   UNL     1      13.432  14.138  30.984  0.00  0.00    +0.000 OA
ATOM      9  C   UNL     1      13.668  14.098  33.330  0.00  0.00    +0.000 A 
ATOM     10  C   UNL     1      14.146  13.556  34.537  0.00  0.00    +0.000 A 
ATOM     11  C   UNL     1      14.925  12.432  34.469  0.00  0.00    +0.000 A 
ENDBRANCH   1  11
BRANCH   2  12
ATOM     12  C   UNL     1      15.006  10.989  37.992  0.00  0.00    +0.000 A 
ATOM     13  C   UNL     1      16.422  10.728  37.992  0.00  0.00    +0.000 A 
ATOM     14  C   UNL     1      16.887  10.113  39.120  0.00  0.00    +0.000 A 
ATOM     15  C   UNL     1      16.270   9.723  40.204  0.00  0.00    +0.000 A 
ATOM     16  C   UNL     1      14.842   9.982  40.246  0.00  0.00    +0.000 A 
ATOM     17  C   UNL     1      14.334  10.617  39.081  0.00  0.00    +0.000 A 
BRANCH  15  18
ATOM     18  C   UNL     1      16.915   9.049  41.376  0.00  0.00    +0.000 C 
ATOM     19  C   UNL     1      16.395   9.649  42.682  0.00  0.00    +0.000 C 
ATOM     20  C   UNL     1      18.384   9.310  41.364  0.00  0.00    +0.000 C 
ATOM     21  C   UNL     1      16.533   7.575  41.361  0.00  0.00    +0.000 C 
ENDBRANCH  15  18
ENDBRANCH   2  12
TORSDOF 3
ENDMDL
MODEL 4
REMARK VINA RESULT:      -6.8      3.016      7.628
REMARK  Name = 
REMARK  3 active torsions:
REMARK  status: ('A' for Active; 'I' for Inactive)
REMARK    1  A    between atoms: C_8  and  N_9
REMARK    2  A    between atoms: C_10  and  C_12
REMARK    3  A    between atoms: C_15  and  C_16
REMARK                            x       y       z     vdW  Elec       q    Type
REMARK                         _______ _______ _______ _____ _____    ______ ____
ROOT
ATOM      1  N   UNL     1      17.755  10.445  36.841  0.00  0.00    +0.000 NA
ATOM      2  C   UNL     1      18.750  11.375  37.335  0.00  0.00    +0.000 C 
ATOM      3  O   UNL     1      18.387  12.473  37.691  0.00  0.00    +0.000 OA
ENDROOT
BRANCH   1  11
ATOM      4  C   UNL     1      16.737  11.518  34.444  0.00  0.00    +0.000 C 
ATOM      5  C   UNL     1      15.903  11.515  35.658  0.00  0.00    +0.000 A 
ATOM      6  C   UNL     1      14.585  12.080  35.557  0.00  0.00    +0.000 A 
ATOM      7  C   UNL     1      13.894  11.977  36.762  0.00  0.00    +0.000 A 
ATOM      8  O   UNL     1      12.539  12.522  36.747  0.00  0.00    +0.000 OA
ATOM      9  C   UNL     1      14.321  11.455  37.865  0.00  0.00    +0.000 A 
ATOM     10  C   UNL     1      15.615  10.908  37.934  0.00  0.00    +0.000 A 
ATOM     11  C   UNL     1      16.390  10.957  36.807  0.00  0.00    +0.000 A 
ENDBRANCH   1  11
BRANCH   2  12
ATOM     12  C   UNL     1      20.154  10.933  37.385  0.00  0.00    +0.000 A 
ATOM     13  C   UNL     1      21.016  11.849  38.085  0.00  0.00    +0.000 A 
ATOM     14  C   UNL     1      22.341  11.512  38.064  0.00  0.00    +0.000 A 
ATOM     15  C   UNL     1      22.961  10.498  37.521  0.00  0.00    +0.000 A 
ATOM     16  C   UNL     1      22.121   9.546  36.817  0.00  0.00    +0.000 A 
ATOM     17  C   UNL     1      20.740   9.878  36.822  0.00  0.00    +0.000 A 
BRANCH  15  18
ATOM     18  C   UNL     1      24.439  10.254  37.573  0.00  0.00    +0.000 C 
ATOM     19  C   UNL     1      25.033  10.310  36.166  0.00  0.00    +0.000 C 
ATOM     20  C   UNL     1      24.705   8.873  38.074  0.00  0.00    +0.000 C 
ATOM     21  C   UNL     1      25.087  11.361  38.393  0.00  0.00    +0.000 C 
ENDBRANCH  15  18
ENDBRANCH   2  12
TORSDOF 3
ENDMDL
MODEL 5
REMARK VINA RESULT:      -6.5     22.474     23.854
REMARK  Name = 
REMARK  3 active torsions:
REMARK  status: ('A' for Active; 'I' for Inactive)
REMARK    1  A    between atoms: C_8  and  N_9
REMARK    2  A    between atoms: C_10  and  C_12
REMARK    3  A    between atoms: C_15  and  C_16
REMARK                            x       y       z     vdW  Elec       q    Type
REMARK                         _______ _______ _______ _____ _____    ______ ____
ROOT
ATOM      1  N   UNL     1      22.374  -7.437  25.353  0.00  0.00    +0.000 NA
ATOM      2  C   UNL     1      22.523  -7.819  23.964  0.00  0.00    +0.000 C 
ATOM      3  O   UNL     1      21.531  -7.887  23.274  0.00  0.00    +0.000 OA
ENDROOT
BRANCH   1  11
ATOM      4  C   UNL     1      20.912  -9.507  26.582  0.00  0.00    +0.000 C 
ATOM      5  C   UNL     1      20.275  -8.200  26.346  0.00  0.00    +0.000 A 
ATOM      6  C   UNL     1      18.905  -8.048  26.757  0.00  0.00    +0.000 A 
ATOM      7  C   UNL     1      18.443  -6.757  26.511  0.00  0.00    +0.000 A 
ATOM      8  O   UNL     1      17.058  -6.511  26.906  0.00  0.00    +0.000 OA
ATOM      9  C   UNL     1      19.102  -5.777  25.987  0.00  0.00    +0.000 A 
ATOM     10  C   UNL     1      20.441  -5.956  25.595  0.00  0.00    +0.000 A 
ATOM     11  C   UNL     1      21.003  -7.189  25.785  0.00  0.00    +0.000 A 
ENDBRANCH   1  11
BRANCH   2  12
ATOM     12  C   UNL     1      23.877  -8.100  23.459  0.00  0.00    +0.000 A 
ATOM     13  C   UNL     1      24.808  -7.028  23.692  0.00  0.00    +0.000 A 
ATOM     14  C   UNL     1      26.047  -7.221  23.149  0.00  0.00    +0.000 A 
ATOM     15  C   UNL     1      26.537  -8.217  22.457  0.00  0.00    +0.000 A 
ATOM     16  C   UNL     1      25.629  -9.324  22.213  0.00  0.00    +0.000 A 
ATOM     17  C   UNL     1      24.333  -9.142  22.764  0.00  0.00    +0.000 A 
BRANCH  15  18
ATOM     18  C   UNL     1      27.931  -8.295  21.913  0.00  0.00    +0.000 C 
ATOM     19  C   UNL     1      28.496  -6.890  21.707  0.00  0.00    +0.000 C 
ATOM     20  C   UNL     1      27.912  -8.929  20.563  0.00  0.00    +0.000 C 
ATOM     21  C   UNL     1      28.812  -9.002  22.933  0.00  0.00    +0.000 C 
ENDBRANCH  15  18
ENDBRANCH   2  12
TORSDOF 3
ENDMDL
MODEL 6
REMARK VINA RESULT:      -6.5     18.148     20.208
REMARK  Name = 
REMARK  3 active torsions:
REMARK  status: ('A' for Active; 'I' for Inactive)
REMARK    1  A    between atoms: C_8  and  N_9
REMARK    2  A    between atoms: C_10  and  C_12
REMARK    3  A    between atoms: C_15  and  C_16
REMARK                            x       y       z     vdW  Elec       q    Type
REMARK                         _______ _______ _______ _____ _____    ______ ____
ROOT
ATOM      1  N   UNL     1      34.824   3.890  35.733  0.00  0.00    +0.000 NA
ATOM      2  C   UNL     1      33.975   3.451  34.643  0.00  0.00    +0.000 C 
ATOM      3  O   UNL     1      33.492   4.288  33.915  0.00  0.00    +0.000 OA
ENDROOT
BRANCH   1  11
ATOM      4  C   UNL     1      33.172   5.343  37.491  0.00  0.00    +0.000 C 
ATOM      5  C   UNL     1      34.167   6.050  36.668  0.00  0.00    +0.000 A 
ATOM      6  C   UNL     1      34.239   7.481  36.801  0.00  0.00    +0.000 A 
ATOM      7  C   UNL     1      35.243   8.015  35.998  0.00  0.00    +0.000 A 
ATOM      8  O   UNL     1      35.393   9.465  36.077  0.00  0.00    +0.000 OA
ATOM      9  C   UNL     1      36.042   7.370  35.213  0.00  0.00    +0.000 A 
ATOM     10  C   UNL     1      35.948   5.970  35.104  0.00  0.00    +0.000 A 
ATOM     11  C   UNL     1      34.991   5.335  35.846  0.00  0.00    +0.000 A 
ENDBRANCH   1  11
BRANCH   2  12
ATOM     12  C   UNL     1      33.747   2.006  34.475  0.00  0.00    +0.000 A 
ATOM     13  C   UNL     1      33.681   1.289  35.721  0.00  0.00    +0.000 A 
ATOM     14  C   UNL     1      33.567  -0.067  35.592  0.00  0.00    +0.000 A 
ATOM     15  C   UNL     1      33.502  -0.827  34.531  0.00  0.00    +0.000 A 
ATOM     16  C   UNL     1      33.552  -0.137  33.254  0.00  0.00    +0.000 A 
ATOM     17  C   UNL     1      33.676   1.274  33.364  0.00  0.00    +0.000 A 
BRANCH  15  18
ATOM     18  C   UNL     1      33.380  -2.321  34.538  0.00  0.00    +0.000 C 
ATOM     19  C   UNL     1      34.461  -2.933  35.428  0.00  0.00    +0.000 C 
ATOM     20  C   UNL     1      33.631  -2.854  33.167  0.00  0.00    +0.000 C 
ATOM     21  C   UNL     1      32.028  -2.696  35.126  0.00  0.00    +0.000 C 
ENDBRANCH  15  18
ENDBRANCH   2  12
TORSDOF 3
ENDMDL
MODEL 7
REMARK VINA RESULT:      -6.5     18.124     20.960
REMARK  Name = 
REMARK  3 active torsions:
REMARK  status: ('A' for Active; 'I' for Inactive)
REMARK    1  A    between atoms: C_8  and  N_9
REMARK    2  A    between atoms: C_10  and  C_12
REMARK    3  A    between atoms: C_15  and  C_16
REMARK                            x       y       z     vdW  Elec       q    Type
REMARK                         _______ _______ _______ _____ _____    ______ ____
ROOT
ATOM      1  N   UNL     1      34.375  -1.281  34.394  0.00  0.00    +0.000 NA
ATOM      2  C   UNL     1      33.270  -0.372  34.625  0.00  0.00    +0.000 C 
ATOM      3  O   UNL     1      32.163  -0.836  34.777  0.00  0.00    +0.000 OA
ENDROOT
BRANCH   1  11
ATOM      4  C   UNL     1      34.692  -2.867  36.699  0.00  0.00    +0.000 C 
ATOM      5  C   UNL     1      34.206  -3.478  35.451  0.00  0.00    +0.000 A 
ATOM      6  C   UNL     1      33.919  -4.887  35.472  0.00  0.00    +0.000 A 
ATOM      7  C   UNL     1      33.432  -5.324  34.242  0.00  0.00    +0.000 A 
ATOM      8  O   UNL     1      33.106  -6.746  34.176  0.00  0.00    +0.000 OA
ATOM      9  C   UNL     1      33.238  -4.612  33.181  0.00  0.00    +0.000 A 
ATOM     10  C   UNL     1      33.526  -3.235  33.191  0.00  0.00    +0.000 A 
ATOM     11  C   UNL     1      34.017  -2.694  34.348  0.00  0.00    +0.000 A 
ENDBRANCH   1  11
BRANCH   2  12
ATOM     12  C   UNL     1      33.553   1.073  34.669  0.00  0.00    +0.000 A 
ATOM     13  C   UNL     1      33.884   1.550  35.986  0.00  0.00    +0.000 A 
ATOM     14  C   UNL     1      34.057   2.903  36.074  0.00  0.00    +0.000 A 
ATOM     15  C   UNL     1      33.978   3.840  35.167  0.00  0.00    +0.000 A 
ATOM     16  C   UNL     1      33.658   3.394  33.823  0.00  0.00    +0.000 A 
ATOM     17  C   UNL     1      33.469   1.991  33.708  0.00  0.00    +0.000 A 
BRANCH  15  18
ATOM     18  C   UNL     1      34.190   5.304  35.409  0.00  0.00    +0.000 C 
ATOM     19  C   UNL     1      33.875   5.649  36.864  0.00  0.00    +0.000 C 
ATOM     20  C   UNL     1      33.231   6.096  34.585  0.00  0.00    +0.000 C 
ATOM     21  C   UNL     1      35.657   5.631  35.163  0.00  0.00    +0.000 C 
ENDBRANCH  15  18
ENDBRANCH   2  12
TORSDOF 3
ENDMDL
MODEL 8
REMARK VINA RESULT:      -6.2     17.604     19.280
REMARK  Name = 
REMARK  3 active torsions:
REMARK  status: ('A' for Active; 'I' for Inactive)
REMARK    1  A    between atoms: C_8  and  N_9
REMARK    2  A    between atoms: C_10  and  C_12
REMARK    3  A    between atoms: C_15  and  C_16
REMARK                            x       y       z     vdW  Elec       q    Type
REMARK                         _______ _______ _______ _____ _____    ______ ____
ROOT
ATOM      1  N   UNL     1      33.895   4.753  35.648  0.00  0.00    +0.000 NA
ATOM      2  C   UNL     1      35.212   5.355  35.707  0.00  0.00    +0.000 C 
ATOM      3  O   UNL     1      36.180   4.632  35.644  0.00  0.00    +0.000 OA
ENDROOT
BRANCH   1  11
ATOM      4  C   UNL     1      33.437   3.561  33.138  0.00  0.00    +0.000 C 
ATOM      5  C   UNL     1      33.621   2.715  34.329  0.00  0.00    +0.000 A 
ATOM      6  C   UNL     1      33.547   1.290  34.145  0.00  0.00    +0.000 A 
ATOM      7  C   UNL     1      33.777   0.612  35.340  0.00  0.00    +0.000 A 
ATOM      8  O   UNL     1      33.727  -0.844  35.244  0.00  0.00    +0.000 OA
ATOM      9  C   UNL     1      34.028   1.131  36.497  0.00  0.00    +0.000 A 
ATOM     10  C   UNL     1      34.096   2.528  36.645  0.00  0.00    +0.000 A 
ATOM     11  C   UNL     1      33.882   3.299  35.535  0.00  0.00    +0.000 A 
ENDBRANCH   1  11
BRANCH   2  12
ATOM     12  C   UNL     1      35.305   6.819  35.836  0.00  0.00    +0.000 A 
ATOM     13  C   UNL     1      34.233   7.394  36.606  0.00  0.00    +0.000 A 
ATOM     14  C   UNL     1      34.241   8.760  36.661  0.00  0.00    +0.000 A 
ATOM     15  C   UNL     1      35.058   9.636  36.139  0.00  0.00    +0.000 A 
ATOM     16  C   UNL     1      36.161   9.092  35.367  0.00  0.00    +0.000 A 
ATOM     17  C   UNL     1      36.170   7.674  35.292  0.00  0.00    +0.000 A 
BRANCH  15  18
ATOM     18  C   UNL     1      34.942  11.124  36.280  0.00  0.00    +0.000 C 
ATOM     19  C   UNL     1      33.482  11.520  36.501  0.00  0.00    +0.000 C 
ATOM     20  C   UNL     1      35.356  11.785  35.008  0.00  0.00    +0.000 C 
ATOM     21  C   UNL     1      35.730  11.560  37.507  0.00  0.00    +0.000 C 
ENDBRANCH  15  18
ENDBRANCH   2  12
TORSDOF 3
ENDMDL
MODEL 9
REMARK VINA RESULT:      -6.1     20.798     22.594
REMARK  Name = 
REMARK  3 active torsions:
REMARK  status: ('A' for Active; 'I' for Inactive)
REMARK    1  A    between atoms: C_8  and  N_9
REMARK    2  A    between atoms: C_10  and  C_12
REMARK    3  A    between atoms: C_15  and  C_16
REMARK                            x       y       z     vdW  Elec       q    Type
REMARK                         _______ _______ _______ _____ _____    ______ ____
ROOT
ATOM      1  N   UNL     1      21.655   2.603  16.243  0.00  0.00    +0.000 NA
ATOM      2  C   UNL     1      22.524   2.315  17.366  0.00  0.00    +0.000 C 
ATOM      3  O   UNL     1      22.273   1.354  18.058  0.00  0.00    +0.000 OA
ENDROOT
BRANCH   1  11
ATOM      4  C   UNL     1      21.869   0.456  14.433  0.00  0.00    +0.000 C 
ATOM      5  C   UNL     1      20.613   0.670  15.172  0.00  0.00    +0.000 A 
ATOM      6  C   UNL     1      19.533  -0.246  14.919  0.00  0.00    +0.000 A 
ATOM      7  C   UNL     1      18.425   0.047  15.709  0.00  0.00    +0.000 A 
ATOM      8  O   UNL     1      17.280  -0.841  15.522  0.00  0.00    +0.000 OA
ATOM      9  C   UNL     1      18.312   0.999  16.575  0.00  0.00    +0.000 A 
ATOM     10  C   UNL     1      19.386   1.879  16.802  0.00  0.00    +0.000 A 
ATOM     11  C   UNL     1      20.531   1.689  16.077  0.00  0.00    +0.000 A 
ENDBRANCH   1  11
BRANCH   2  12
ATOM     12  C   UNL     1      23.673   3.204  17.606  0.00  0.00    +0.000 A 
ATOM     13  C   UNL     1      24.146   3.860  16.416  0.00  0.00    +0.000 A 
ATOM     14  C   UNL     1      25.271   4.617  16.592  0.00  0.00    +0.000 A 
ATOM     15  C   UNL     1      25.991   4.852  17.657  0.00  0.00    +0.000 A 
ATOM     16  C   UNL     1      25.535   4.217  18.881  0.00  0.00    +0.000 A 
ATOM     17  C   UNL     1      24.370   3.421  18.721  0.00  0.00    +0.000 A 
BRANCH  15  18
ATOM     18  C   UNL     1      27.218   5.710  17.704  0.00  0.00    +0.000 C 
ATOM     19  C   UNL     1      28.386   4.998  17.021  0.00  0.00    +0.000 C 
ATOM     20  C   UNL     1      27.638   5.913  19.122  0.00  0.00    +0.000 C 
ATOM     21  C   UNL     1      26.945   6.994  16.934  0.00  0.00    +0.000 C 
ENDBRANCH  15  18
ENDBRANCH   2  12
TORSDOF 3
ENDMDL
MODEL 10
REMARK VINA RESULT:      -6.1     19.089     21.846
REMARK  Name = 
REMARK  3 active torsions:
REMARK  status: ('A' for Active; 'I' for Inactive)
REMARK    1  A    between atoms: C_8  and  N_9
REMARK    2  A    between atoms: C_10  and  C_12
REMARK    3  A    between atoms: C_15  and  C_16
REMARK                            x       y       z     vdW  Elec       q    Type
REMARK                         _______ _______ _______ _____ _____    ______ ____
ROOT
ATOM      1  N   UNL     1      29.161  24.026  25.460  0.00  0.00    +0.000 NA
ATOM      2  C   UNL     1      30.187  23.006  25.548  0.00  0.00    +0.000 C 
ATOM      3  O   UNL     1      30.239  22.164  24.682  0.00  0.00    +0.000 OA
ENDROOT
BRANCH   1  11
ATOM      4  C   UNL     1      26.557  23.022  25.833  0.00  0.00    +0.000 C 
ATOM      5  C   UNL     1      27.016  23.386  24.482  0.00  0.00    +0.000 A 
ATOM      6  C   UNL     1      26.091  23.198  23.396  0.00  0.00    +0.000 A 
ATOM      7  C   UNL     1      26.638  23.617  22.186  0.00  0.00    +0.000 A 
ATOM      8  O   UNL     1      25.762  23.468  21.027  0.00  0.00    +0.000 OA
ATOM      9  C   UNL     1      27.814  24.117  21.991  0.00  0.00    +0.000 A 
ATOM     10  C   UNL     1      28.696  24.291  23.073  0.00  0.00    +0.000 A 
ATOM     11  C   UNL     1      28.267  23.909  24.315  0.00  0.00    +0.000 A 
ENDBRANCH   1  11
BRANCH   2  12
ATOM     12  C   UNL     1      31.119  23.051  26.688  0.00  0.00    +0.000 A 
ATOM     13  C   UNL     1      30.960  21.948  27.599  0.00  0.00    +0.000 A 
ATOM     14  C   UNL     1      31.746  22.015  28.715  0.00  0.00    +0.000 A 
ATOM     15  C   UNL     1      32.623  22.905  29.097  0.00  0.00    +0.000 A 
ATOM     16  C   UNL     1      32.820  24.026  28.195  0.00  0.00    +0.000 A 
ATOM     17  C   UNL     1      32.010  23.981  27.030  0.00  0.00    +0.000 A 
BRANCH  15  18
ATOM     18  C   UNL     1      33.420  22.852  30.365  0.00  0.00    +0.000 C 
ATOM     19  C   UNL     1      34.744  23.595  30.188  0.00  0.00    +0.000 C 
ATOM     20  C   UNL     1      33.784  21.438  30.673  0.00  0.00    +0.000 C 
ATOM     21  C   UNL     1      32.637  23.558  31.463  0.00  0.00    +0.000 C 
ENDBRANCH  15  18
ENDBRANCH   2  12
TORSDOF 3
ENDMDL
