MODEL 1
REMARK VINA RESULT:      -7.8      0.000      0.000
REMARK  Name = 
REMARK  7 active torsions:
REMARK  status: ('A' for Active; 'I' for Inactive)
REMARK    1  A    between atoms: O_2  and  C_3
REMARK    2  A    between atoms: C_8  and  C_9
REMARK    3  A    between atoms: C_9  and  C_10
REMARK    4  A    between atoms: C_10  and  N_11
REMARK    5  A    between atoms: C_12  and  C_14
REMARK    6  A    between atoms: N_17  and  C_18
REMARK    7  A    between atoms: C_18  and  C_19
REMARK                            x       y       z     vdW  Elec       q    Type
REMARK                         _______ _______ _______ _____ _____    ______ ____
ROOT
ATOM      1  C   UNL     1      37.945   0.838  15.173  0.00  0.00    +0.000 A 
ATOM      2  C   UNL     1      36.993  -0.061  15.679  0.00  0.00    +0.000 A 
ATOM      3  C   UNL     1      35.627   0.320  16.128  0.00  0.00    +0.000 C 
ATOM      4  N   UNL     1      37.584  -1.257  15.654  0.00  0.00    +0.000 N 
ATOM      5  C   UNL     1      38.833  -1.163  15.169  0.00  0.00    +0.000 A 
ATOM      6  C   UNL     1      39.825  -2.100  14.950  0.00  0.00    +0.000 A 
ATOM      7  C   UNL     1      41.036  -1.696  14.428  0.00  0.00    +0.000 A 
ATOM      8  C   UNL     1      41.305  -0.379  14.111  0.00  0.00    +0.000 A 
ATOM      9  O   UNL     1      42.555  -0.058  13.587  0.00  0.00    +0.000 OA
ATOM     10  C   UNL     1      40.324   0.559  14.325  0.00  0.00    +0.000 A 
ATOM     11  C   UNL     1      39.102   0.156  14.850  0.00  0.00    +0.000 A 
ENDROOT
BRANCH   1  13
ATOM     12  N   UNL     1      38.198   3.203  15.972  0.00  0.00    +0.000 NA
ATOM     13  C   UNL     1      37.732   2.261  15.020  0.00  0.00    +0.000 C 
ATOM     14  O   UNL     1      37.116   2.689  14.016  0.00  0.00    +0.000 OA
BRANCH  12  15
ATOM     15  C   UNL     1      38.001   4.616  15.844  0.00  0.00    +0.000 C 
BRANCH  15  16
ATOM     16  C   UNL     1      38.378   5.275  17.167  0.00  0.00    +0.000 C 
BRANCH  16  22
ATOM     17  C   UNL     1      40.477   6.146  18.209  0.00  0.00    +0.000 A 
ATOM     18  C   UNL     1      41.775   6.592  18.144  0.00  0.00    +0.000 A 
ATOM     19  C   UNL     1      42.403   6.650  16.924  0.00  0.00    +0.000 A 
ATOM     20  C   UNL     1      41.757   6.271  15.761  0.00  0.00    +0.000 A 
ATOM     21  C   UNL     1      40.450   5.826  15.860  0.00  0.00    +0.000 A 
ATOM     22  C   UNL     1      39.799   5.758  17.068  0.00  0.00    +0.000 A 
BRANCH  17  24
ATOM     23  C   UNL     1      39.572   7.159  20.261  0.00  0.00    +0.000 C 
ATOM     24  O   UNL     1      39.785   6.062  19.417  0.00  0.00    +0.000 OA
ENDBRANCH  17  24
ENDBRANCH  16  22
ENDBRANCH  15  16
ENDBRANCH  12  15
ENDBRANCH   1  13
BRANCH   4  25
ATOM     25  C   UNL     1      36.967  -2.492  16.087  0.00  0.00    +0.000 C 
BRANCH  25  26
ATOM     26  C   UNL     1      37.498  -2.732  17.480  0.00  0.00    +0.000 A 
ATOM     27  C   UNL     1      37.224  -2.022  18.609  0.00  0.00    +0.000 A 
ATOM     28  C   UNL     1      37.806  -2.411  19.746  0.00  0.00    +0.000 A 
ATOM     29  C   UNL     1      38.635  -3.494  19.692  0.00  0.00    +0.000 A 
ATOM     30  S   UNL     1      38.570  -3.930  18.045  0.00  0.00    +0.000 S 
ENDBRANCH  25  26
ENDBRANCH   4  25
TORSDOF 7
ENDMDL
MODEL 2
REMARK VINA RESULT:      -7.7      2.020      2.984
REMARK  Name = 
REMARK  7 active torsions:
REMARK  status: ('A' for Active; 'I' for Inactive)
REMARK    1  A    between atoms: O_2  and  C_3
REMARK    2  A    between atoms: C_8  and  C_9
REMARK    3  A    between atoms: C_9  and  C_10
REMARK    4  A    between atoms: C_10  and  N_11
REMARK    5  A    between atoms: C_12  and  C_14
REMARK    6  A    between atoms: N_17  and  C_18
REMARK    7  A    between atoms: C_18  and  C_19
REMARK                            x       y       z     vdW  Elec       q    Type
REMARK                         _______ _______ _______ _____ _____    ______ ____
ROOT
ATOM      1  C   UNL     1      37.269   0.227  15.733  0.00  0.00    +0.000 A 
ATOM      2  C   UNL     1      36.319  -0.454  16.508  0.00  0.00    +0.000 A 
ATOM      3  C   UNL     1      35.019   0.120  16.948  0.00  0.00    +0.000 C 
ATOM      4  N   UNL     1      36.841  -1.661  16.733  0.00  0.00    +0.000 N 
ATOM      5  C   UNL     1      38.047  -1.776  16.151  0.00  0.00    +0.000 A 
ATOM      6  C   UNL     1      38.965  -2.808  16.097  0.00  0.00    +0.000 A 
ATOM      7  C   UNL     1      40.146  -2.627  15.407  0.00  0.00    +0.000 A 
ATOM      8  C   UNL     1      40.456  -1.447  14.761  0.00  0.00    +0.000 A 
ATOM      9  O   UNL     1      41.671  -1.351  14.088  0.00  0.00    +0.000 OA
ATOM     10  C   UNL     1      39.547  -0.417  14.811  0.00  0.00    +0.000 A 
ATOM     11  C   UNL     1      38.357  -0.594  15.504  0.00  0.00    +0.000 A 
ENDROOT
BRANCH   1  13
ATOM     12  N   UNL     1      37.340   2.710  16.089  0.00  0.00    +0.000 NA
ATOM     13  C   UNL     1      37.119   1.585  15.254  0.00  0.00    +0.000 C 
ATOM     14  O   UNL     1      36.784   1.787  14.064  0.00  0.00    +0.000 OA
BRANCH  12  15
ATOM     15  C   UNL     1      37.199   4.063  15.640  0.00  0.00    +0.000 C 
BRANCH  15  16
ATOM     16  C   UNL     1      38.576   4.718  15.649  0.00  0.00    +0.000 C 
BRANCH  16  22
ATOM     17  C   UNL     1      38.235   6.908  16.807  0.00  0.00    +0.000 A 
ATOM     18  C   UNL     1      38.316   7.731  17.903  0.00  0.00    +0.000 A 
ATOM     19  C   UNL     1      38.842   7.240  19.073  0.00  0.00    +0.000 A 
ATOM     20  C   UNL     1      39.292   5.935  19.169  0.00  0.00    +0.000 A 
ATOM     21  C   UNL     1      39.198   5.130  18.047  0.00  0.00    +0.000 A 
ATOM     22  C   UNL     1      38.675   5.598  16.865  0.00  0.00    +0.000 A 
BRANCH  17  24
ATOM     23  C   UNL     1      36.976   8.531  15.452  0.00  0.00    +0.000 C 
ATOM     24  O   UNL     1      37.711   7.347  15.592  0.00  0.00    +0.000 OA
ENDBRANCH  17  24
ENDBRANCH  16  22
ENDBRANCH  15  16
ENDBRANCH  12  15
ENDBRANCH   1  13
BRANCH   4  25
ATOM     25  C   UNL     1      36.199  -2.710  17.495  0.00  0.00    +0.000 C 
BRANCH  25  26
ATOM     26  C   UNL     1      35.551  -3.606  16.467  0.00  0.00    +0.000 A 
ATOM     27  C   UNL     1      34.485  -3.322  15.668  0.00  0.00    +0.000 A 
ATOM     28  C   UNL     1      34.072  -4.267  14.821  0.00  0.00    +0.000 A 
ATOM     29  C   UNL     1      34.751  -5.451  14.817  0.00  0.00    +0.000 A 
ATOM     30  S   UNL     1      35.947  -5.198  16.006  0.00  0.00    +0.000 S 
ENDBRANCH  25  26
ENDBRANCH   4  25
TORSDOF 7
ENDMDL
MODEL 3
REMARK VINA RESULT:      -7.7      1.660      2.338
REMARK  Name = 
REMARK  7 active torsions:
REMARK  status: ('A' for Active; 'I' for Inactive)
REMARK    1  A    between atoms: O_2  and  C_3
REMARK    2  A    between atoms: C_8  and  C_9
REMARK    3  A    between atoms: C_9  and  C_10
REMARK    4  A    between atoms: C_10  and  N_11
REMARK    5  A    between atoms: C_12  and  C_14
REMARK    6  A    between atoms: N_17  and  C_18
REMARK    7  A    between atoms: C_18  and  C_19
REMARK                            x       y       z     vdW  Elec       q    Type
REMARK                         _______ _______ _______ _____ _____    ______ ____
ROOT
ATOM      1  C   UNL     1      37.237   1.677  15.513  0.00  0.00    +0.000 A 
ATOM      2  C   UNL     1      36.387   0.822  16.231  0.00  0.00    +0.000 A 
ATOM      3  C   UNL     1      35.437   1.267  17.287  0.00  0.00    +0.000 C 
ATOM      4  N   UNL     1      36.629  -0.401  15.759  0.00  0.00    +0.000 N 
ATOM      5  C   UNL     1      37.569  -0.366  14.799  0.00  0.00    +0.000 A 
ATOM      6  C   UNL     1      38.150  -1.350  14.021  0.00  0.00    +0.000 A 
ATOM      7  C   UNL     1      39.112  -1.001  13.096  0.00  0.00    +0.000 A 
ATOM      8  C   UNL     1      39.526   0.303  12.911  0.00  0.00    +0.000 A 
ATOM      9  O   UNL     1      40.503   0.566  11.954  0.00  0.00    +0.000 OA
ATOM     10  C   UNL     1      38.952   1.287  13.680  0.00  0.00    +0.000 A 
ATOM     11  C   UNL     1      37.983   0.941  14.613  0.00  0.00    +0.000 A 
ENDROOT
BRANCH   1  13
ATOM     12  N   UNL     1      38.136   3.702  16.691  0.00  0.00    +0.000 NA
ATOM     13  C   UNL     1      37.312   3.110  15.701  0.00  0.00    +0.000 C 
ATOM     14  O   UNL     1      36.630   3.865  14.969  0.00  0.00    +0.000 OA
BRANCH  12  15
ATOM     15  C   UNL     1      38.228   5.117  16.897  0.00  0.00    +0.000 C 
BRANCH  15  16
ATOM     16  C   UNL     1      39.314   5.381  17.934  0.00  0.00    +0.000 C 
BRANCH  16  22
ATOM     17  C   UNL     1      39.609   6.893  19.904  0.00  0.00    +0.000 A 
ATOM     18  C   UNL     1      39.250   7.971  20.677  0.00  0.00    +0.000 A 
ATOM     19  C   UNL     1      38.171   8.733  20.303  0.00  0.00    +0.000 A 
ATOM     20  C   UNL     1      37.438   8.439  19.168  0.00  0.00    +0.000 A 
ATOM     21  C   UNL     1      37.824   7.346  18.410  0.00  0.00    +0.000 A 
ATOM     22  C   UNL     1      38.901   6.567  18.761  0.00  0.00    +0.000 A 
BRANCH  17  24
ATOM     23  C   UNL     1      41.996   6.568  20.406  0.00  0.00    +0.000 C 
ATOM     24  O   UNL     1      40.696   6.081  20.229  0.00  0.00    +0.000 OA
ENDBRANCH  17  24
ENDBRANCH  16  22
ENDBRANCH  15  16
ENDBRANCH  12  15
ENDBRANCH   1  13
BRANCH   4  25
ATOM     25  C   UNL     1      35.970  -1.608  16.212  0.00  0.00    +0.000 C 
BRANCH  25  26
ATOM     26  C   UNL     1      36.859  -2.158  17.301  0.00  0.00    +0.000 A 
ATOM     27  C   UNL     1      36.923  -1.764  18.602  0.00  0.00    +0.000 A 
ATOM     28  C   UNL     1      37.788  -2.393  19.402  0.00  0.00    +0.000 A 
ATOM     29  C   UNL     1      38.546  -3.387  18.854  0.00  0.00    +0.000 A 
ATOM     30  S   UNL     1      38.019  -3.405  17.232  0.00  0.00    +0.000 S 
ENDBRANCH  25  26
ENDBRANCH   4  25
TORSDOF 7
ENDMDL
MODEL 4
REMARK VINA RESULT:      -7.6      2.818      4.332
REMARK  Name = 
REMARK  7 active torsions:
REMARK  status: ('A' for Active; 'I' for Inactive)
REMARK    1  A    between atoms: O_2  and  C_3
REMARK    2  A    between atoms: C_8  and  C_9
REMARK    3  A    between atoms: C_9  and  C_10
REMARK    4  A    between atoms: C_10  and  N_11
REMARK    5  A    between atoms: C_12  and  C_14
REMARK    6  A    between atoms: N_17  and  C_18
REMARK    7  A    between atoms: C_18  and  C_19
REMARK                            x       y       z     vdW  Elec       q    Type
REMARK                         _______ _______ _______ _____ _____    ______ ____
ROOT
ATOM      1  C   UNL     1      37.394   1.907  15.006  0.00  0.00    +0.000 A 
ATOM      2  C   UNL     1      38.217   1.505  13.943  0.00  0.00    +0.000 A 
ATOM      3  C   UNL     1      39.142   2.406  13.204  0.00  0.00    +0.000 C 
ATOM      4  N   UNL     1      37.977   0.204  13.779  0.00  0.00    +0.000 N 
ATOM      5  C   UNL     1      37.063  -0.230  14.664  0.00  0.00    +0.000 A 
ATOM      6  C   UNL     1      36.494  -1.468  14.892  0.00  0.00    +0.000 A 
ATOM      7  C   UNL     1      35.560  -1.610  15.897  0.00  0.00    +0.000 A 
ATOM      8  C   UNL     1      35.163  -0.556  16.695  0.00  0.00    +0.000 A 
ATOM      9  O   UNL     1      34.214  -0.789  17.688  0.00  0.00    +0.000 OA
ATOM     10  C   UNL     1      35.725   0.678  16.475  0.00  0.00    +0.000 A 
ATOM     11  C   UNL     1      36.666   0.826  15.464  0.00  0.00    +0.000 A 
ENDROOT
BRANCH   1  13
ATOM     12  N   UNL     1      38.374   3.822  16.298  0.00  0.00    +0.000 NA
ATOM     13  C   UNL     1      37.326   3.255  15.529  0.00  0.00    +0.000 C 
ATOM     14  O   UNL     1      36.313   3.956  15.300  0.00  0.00    +0.000 OA
BRANCH  12  15
ATOM     15  C   UNL     1      38.332   5.153  16.826  0.00  0.00    +0.000 C 
BRANCH  15  16
ATOM     16  C   UNL     1      39.206   5.201  18.075  0.00  0.00    +0.000 C 
BRANCH  16  22
ATOM     17  C   UNL     1      39.687   6.853  19.889  0.00  0.00    +0.000 A 
ATOM     18  C   UNL     1      39.422   8.006  20.589  0.00  0.00    +0.000 A 
ATOM     19  C   UNL     1      38.352   8.783  20.220  0.00  0.00    +0.000 A 
ATOM     20  C   UNL     1      37.536   8.430  19.159  0.00  0.00    +0.000 A 
ATOM     21  C   UNL     1      37.829   7.263  18.474  0.00  0.00    +0.000 A 
ATOM     22  C   UNL     1      38.894   6.468  18.823  0.00  0.00    +0.000 A 
BRANCH  17  24
ATOM     23  C   UNL     1      42.073   6.482  20.364  0.00  0.00    +0.000 C 
ATOM     24  O   UNL     1      40.759   6.023  20.214  0.00  0.00    +0.000 OA
ENDBRANCH  17  24
ENDBRANCH  16  22
ENDBRANCH  15  16
ENDBRANCH  12  15
ENDBRANCH   1  13
BRANCH   4  25
ATOM     25  C   UNL     1      38.613  -0.635  12.786  0.00  0.00    +0.000 C 
BRANCH  25  26
ATOM     26  C   UNL     1      39.874  -1.142  13.446  0.00  0.00    +0.000 A 
ATOM     27  C   UNL     1      40.007  -2.217  14.270  0.00  0.00    +0.000 A 
ATOM     28  C   UNL     1      41.224  -2.489  14.747  0.00  0.00    +0.000 A 
ATOM     29  C   UNL     1      42.247  -1.668  14.370  0.00  0.00    +0.000 A 
ATOM     30  S   UNL     1      41.465  -0.539  13.360  0.00  0.00    +0.000 S 
ENDBRANCH  25  26
ENDBRANCH   4  25
TORSDOF 7
ENDMDL
MODEL 5
REMARK VINA RESULT:      -7.5      1.869      2.471
REMARK  Name = 
REMARK  7 active torsions:
REMARK  status: ('A' for Active; 'I' for Inactive)
REMARK    1  A    between atoms: O_2  and  C_3
REMARK    2  A    between atoms: C_8  and  C_9
REMARK    3  A    between atoms: C_9  and  C_10
REMARK    4  A    between atoms: C_10  and  N_11
REMARK    5  A    between atoms: C_12  and  C_14
REMARK    6  A    between atoms: N_17  and  C_18
REMARK    7  A    between atoms: C_18  and  C_19
REMARK                            x       y       z     vdW  Elec       q    Type
REMARK                         _______ _______ _______ _____ _____    ______ ____
ROOT
ATOM      1  C   UNL     1      36.811   1.308  15.406  0.00  0.00    +0.000 A 
ATOM      2  C   UNL     1      36.074   0.335  16.098  0.00  0.00    +0.000 A 
ATOM      3  C   UNL     1      35.233   0.605  17.295  0.00  0.00    +0.000 C 
ATOM      4  N   UNL     1      36.303  -0.810  15.454  0.00  0.00    +0.000 N 
ATOM      5  C   UNL     1      37.129  -0.615  14.412  0.00  0.00    +0.000 A 
ATOM      6  C   UNL     1      37.654  -1.470  13.460  0.00  0.00    +0.000 A 
ATOM      7  C   UNL     1      38.495  -0.968  12.489  0.00  0.00    +0.000 A 
ATOM      8  C   UNL     1      38.842   0.367  12.425  0.00  0.00    +0.000 A 
ATOM      9  O   UNL     1      39.697   0.788  11.411  0.00  0.00    +0.000 OA
ATOM     10  C   UNL     1      38.324   1.223  13.367  0.00  0.00    +0.000 A 
ATOM     11  C   UNL     1      37.476   0.722  14.347  0.00  0.00    +0.000 A 
ENDROOT
BRANCH   1  13
ATOM     12  N   UNL     1      37.892   3.253  16.567  0.00  0.00    +0.000 NA
ATOM     13  C   UNL     1      36.858   2.711  15.762  0.00  0.00    +0.000 C 
ATOM     14  O   UNL     1      35.961   3.483  15.351  0.00  0.00    +0.000 OA
BRANCH  12  15
ATOM     15  C   UNL     1      37.961   4.636  16.933  0.00  0.00    +0.000 C 
BRANCH  15  16
ATOM     16  C   UNL     1      39.267   5.211  16.393  0.00  0.00    +0.000 C 
BRANCH  16  22
ATOM     17  C   UNL     1      41.327   6.262  17.341  0.00  0.00    +0.000 A 
ATOM     18  C   UNL     1      42.063   6.781  18.379  0.00  0.00    +0.000 A 
ATOM     19  C   UNL     1      41.515   6.816  19.637  0.00  0.00    +0.000 A 
ATOM     20  C   UNL     1      40.239   6.339  19.882  0.00  0.00    +0.000 A 
ATOM     21  C   UNL     1      39.524   5.821  18.815  0.00  0.00    +0.000 A 
ATOM     22  C   UNL     1      40.049   5.776  17.546  0.00  0.00    +0.000 A 
BRANCH  17  24
ATOM     23  C   UNL     1      42.148   7.333  15.283  0.00  0.00    +0.000 C 
ATOM     24  O   UNL     1      41.828   6.200  16.041  0.00  0.00    +0.000 OA
ENDBRANCH  17  24
ENDBRANCH  16  22
ENDBRANCH  15  16
ENDBRANCH  12  15
ENDBRANCH   1  13
BRANCH   4  25
ATOM     25  C   UNL     1      35.739  -2.092  15.819  0.00  0.00    +0.000 C 
BRANCH  25  26
ATOM     26  C   UNL     1      36.826  -2.793  16.600  0.00  0.00    +0.000 A 
ATOM     27  C   UNL     1      37.511  -3.915  16.248  0.00  0.00    +0.000 A 
ATOM     28  C   UNL     1      38.440  -4.369  17.094  0.00  0.00    +0.000 A 
ATOM     29  C   UNL     1      38.634  -3.671  18.250  0.00  0.00    +0.000 A 
ATOM     30  S   UNL     1      37.505  -2.401  18.112  0.00  0.00    +0.000 S 
ENDBRANCH  25  26
ENDBRANCH   4  25
TORSDOF 7
ENDMDL
MODEL 6
REMARK VINA RESULT:      -7.4      1.303      1.992
REMARK  Name = 
REMARK  7 active torsions:
REMARK  status: ('A' for Active; 'I' for Inactive)
REMARK    1  A    between atoms: O_2  and  C_3
REMARK    2  A    between atoms: C_8  and  C_9
REMARK    3  A    between atoms: C_9  and  C_10
REMARK    4  A    between atoms: C_10  and  N_11
REMARK    5  A    between atoms: C_12  and  C_14
REMARK    6  A    between atoms: N_17  and  C_18
REMARK    7  A    between atoms: C_18  and  C_19
REMARK                            x       y       z     vdW  Elec       q    Type
REMARK                         _______ _______ _______ _____ _____    ______ ____
ROOT
ATOM      1  C   UNL     1      38.236   0.740  15.005  0.00  0.00    +0.000 A 
ATOM      2  C   UNL     1      37.245  -0.130  15.485  0.00  0.00    +0.000 A 
ATOM      3  C   UNL     1      35.860   0.281  15.839  0.00  0.00    +0.000 C 
ATOM      4  N   UNL     1      37.821  -1.332  15.536  0.00  0.00    +0.000 N 
ATOM      5  C   UNL     1      39.098  -1.268  15.123  0.00  0.00    +0.000 A 
ATOM      6  C   UNL     1      40.089  -2.223  14.996  0.00  0.00    +0.000 A 
ATOM      7  C   UNL     1      41.334  -1.850  14.532  0.00  0.00    +0.000 A 
ATOM      8  C   UNL     1      41.637  -0.548  14.186  0.00  0.00    +0.000 A 
ATOM      9  O   UNL     1      42.920  -0.259  13.726  0.00  0.00    +0.000 OA
ATOM     10  C   UNL     1      40.657   0.407  14.309  0.00  0.00    +0.000 A 
ATOM     11  C   UNL     1      39.402   0.035  14.775  0.00  0.00    +0.000 A 
ENDROOT
BRANCH   1  13
ATOM     12  N   UNL     1      38.129   3.102  15.847  0.00  0.00    +0.000 NA
ATOM     13  C   UNL     1      38.050   2.160  14.790  0.00  0.00    +0.000 C 
ATOM     14  O   UNL     1      37.812   2.584  13.635  0.00  0.00    +0.000 OA
BRANCH  12  15
ATOM     15  C   UNL     1      37.949   4.511  15.661  0.00  0.00    +0.000 C 
BRANCH  15  16
ATOM     16  C   UNL     1      39.276   5.206  15.947  0.00  0.00    +0.000 C 
BRANCH  16  22
ATOM     17  C   UNL     1      38.439   7.216  17.176  0.00  0.00    +0.000 A 
ATOM     18  C   UNL     1      38.290   7.974  18.312  0.00  0.00    +0.000 A 
ATOM     19  C   UNL     1      38.833   7.528  19.491  0.00  0.00    +0.000 A 
ATOM     20  C   UNL     1      39.527   6.333  19.560  0.00  0.00    +0.000 A 
ATOM     21  C   UNL     1      39.661   5.592  18.398  0.00  0.00    +0.000 A 
ATOM     22  C   UNL     1      39.126   6.016  17.205  0.00  0.00    +0.000 A 
BRANCH  17  24
ATOM     23  C   UNL     1      36.921   8.595  15.817  0.00  0.00    +0.000 C 
ATOM     24  O   UNL     1      37.910   7.614  15.949  0.00  0.00    +0.000 OA
ENDBRANCH  17  24
ENDBRANCH  16  22
ENDBRANCH  15  16
ENDBRANCH  12  15
ENDBRANCH   1  13
BRANCH   4  25
ATOM     25  C   UNL     1      37.164  -2.544  15.975  0.00  0.00    +0.000 C 
BRANCH  25  26
ATOM     26  C   UNL     1      37.576  -2.717  17.418  0.00  0.00    +0.000 A 
ATOM     27  C   UNL     1      37.142  -2.009  18.497  0.00  0.00    +0.000 A 
ATOM     28  C   UNL     1      37.640  -2.331  19.693  0.00  0.00    +0.000 A 
ATOM     29  C   UNL     1      38.549  -3.348  19.746  0.00  0.00    +0.000 A 
ATOM     30  S   UNL     1      38.674  -3.818  18.112  0.00  0.00    +0.000 S 
ENDBRANCH  25  26
ENDBRANCH   4  25
TORSDOF 7
ENDMDL
MODEL 7
REMARK VINA RESULT:      -7.3      2.330      3.902
REMARK  Name = 
REMARK  7 active torsions:
REMARK  status: ('A' for Active; 'I' for Inactive)
REMARK    1  A    between atoms: O_2  and  C_3
REMARK    2  A    between atoms: C_8  and  C_9
REMARK    3  A    between atoms: C_9  and  C_10
REMARK    4  A    between atoms: C_10  and  N_11
REMARK    5  A    between atoms: C_12  and  C_14
REMARK    6  A    between atoms: N_17  and  C_18
REMARK    7  A    between atoms: C_18  and  C_19
REMARK                            x       y       z     vdW  Elec       q    Type
REMARK                         _______ _______ _______ _____ _____    ______ ____
ROOT
ATOM      1  C   UNL     1      37.014  -0.160  15.592  0.00  0.00    +0.000 A 
ATOM      2  C   UNL     1      37.255  -0.733  14.334  0.00  0.00    +0.000 A 
ATOM      3  C   UNL     1      37.112  -0.016  13.038  0.00  0.00    +0.000 C 
ATOM      4  N   UNL     1      37.620  -1.992  14.580  0.00  0.00    +0.000 N 
ATOM      5  C   UNL     1      37.623  -2.240  15.900  0.00  0.00    +0.000 A 
ATOM      6  C   UNL     1      37.922  -3.369  16.640  0.00  0.00    +0.000 A 
ATOM      7  C   UNL     1      37.832  -3.320  18.015  0.00  0.00    +0.000 A 
ATOM      8  C   UNL     1      37.451  -2.180  18.695  0.00  0.00    +0.000 A 
ATOM      9  O   UNL     1      37.387  -2.219  20.085  0.00  0.00    +0.000 OA
ATOM     10  C   UNL     1      37.152  -1.054  17.966  0.00  0.00    +0.000 A 
ATOM     11  C   UNL     1      37.242  -1.098  16.581  0.00  0.00    +0.000 A 
ENDROOT
BRANCH   1  13
ATOM     12  N   UNL     1      37.512   2.264  16.006  0.00  0.00    +0.000 NA
ATOM     13  C   UNL     1      36.589   1.208  15.805  0.00  0.00    +0.000 C 
ATOM     14  O   UNL     1      35.366   1.479  15.814  0.00  0.00    +0.000 OA
BRANCH  12  15
ATOM     15  C   UNL     1      37.118   3.625  16.219  0.00  0.00    +0.000 C 
BRANCH  15  16
ATOM     16  C   UNL     1      37.891   4.168  17.416  0.00  0.00    +0.000 C 
BRANCH  16  22
ATOM     17  C   UNL     1      39.831   5.703  17.777  0.00  0.00    +0.000 A 
ATOM     18  C   UNL     1      40.917   6.419  17.333  0.00  0.00    +0.000 A 
ATOM     19  C   UNL     1      41.252   6.373  16.003  0.00  0.00    +0.000 A 
ATOM     20  C   UNL     1      40.520   5.622  15.100  0.00  0.00    +0.000 A 
ATOM     21  C   UNL     1      39.431   4.912  15.578  0.00  0.00    +0.000 A 
ATOM     22  C   UNL     1      39.075   4.941  16.905  0.00  0.00    +0.000 A 
BRANCH  17  24
ATOM     23  C   UNL     1      39.529   6.836  19.940  0.00  0.00    +0.000 C 
ATOM     24  O   UNL     1      39.441   5.708  19.116  0.00  0.00    +0.000 OA
ENDBRANCH  17  24
ENDBRANCH  16  22
ENDBRANCH  15  16
ENDBRANCH  12  15
ENDBRANCH   1  13
BRANCH   4  25
ATOM     25  C   UNL     1      37.971  -2.963  13.566  0.00  0.00    +0.000 C 
BRANCH  25  26
ATOM     26  C   UNL     1      39.407  -2.659  13.208  0.00  0.00    +0.000 A 
ATOM     27  C   UNL     1      40.489  -2.667  14.032  0.00  0.00    +0.000 A 
ATOM     28  C   UNL     1      41.678  -2.366  13.503  0.00  0.00    +0.000 A 
ATOM     29  C   UNL     1      41.718  -2.073  12.170  0.00  0.00    +0.000 A 
ATOM     30  S   UNL     1      40.085  -2.229  11.705  0.00  0.00    +0.000 S 
ENDBRANCH  25  26
ENDBRANCH   4  25
TORSDOF 7
ENDMDL
MODEL 8
REMARK VINA RESULT:      -7.1      2.830      4.072
REMARK  Name = 
REMARK  7 active torsions:
REMARK  status: ('A' for Active; 'I' for Inactive)
REMARK    1  A    between atoms: O_2  and  C_3
REMARK    2  A    between atoms: C_8  and  C_9
REMARK    3  A    between atoms: C_9  and  C_10
REMARK    4  A    between atoms: C_10  and  N_11
REMARK    5  A    between atoms: C_12  and  C_14
REMARK    6  A    between atoms: N_17  and  C_18
REMARK    7  A    between atoms: C_18  and  C_19
REMARK                            x       y       z     vdW  Elec       q    Type
REMARK                         _______ _______ _______ _____ _____    ______ ____
ROOT
ATOM      1  C   UNL     1      37.864   0.040  15.444  0.00  0.00    +0.000 A 
ATOM      2  C   UNL     1      36.833  -0.459  16.255  0.00  0.00    +0.000 A 
ATOM      3  C   UNL     1      35.596   0.290  16.604  0.00  0.00    +0.000 C 
ATOM      4  N   UNL     1      37.218  -1.687  16.606  0.00  0.00    +0.000 N 
ATOM      5  C   UNL     1      38.414  -1.985  16.070  0.00  0.00    +0.000 A 
ATOM      6  C   UNL     1      39.216  -3.108  16.137  0.00  0.00    +0.000 A 
ATOM      7  C   UNL     1      40.420  -3.122  15.465  0.00  0.00    +0.000 A 
ATOM      8  C   UNL     1      40.866  -2.049  14.720  0.00  0.00    +0.000 A 
ATOM      9  O   UNL     1      42.096  -2.147  14.073  0.00  0.00    +0.000 OA
ATOM     10  C   UNL     1      40.074  -0.928  14.648  0.00  0.00    +0.000 A 
ATOM     11  C   UNL     1      38.860  -0.910  15.323  0.00  0.00    +0.000 A 
ENDROOT
BRANCH   1  13
ATOM     12  N   UNL     1      38.591   2.441  15.392  0.00  0.00    +0.000 NA
ATOM     13  C   UNL     1      37.870   1.354  14.837  0.00  0.00    +0.000 C 
ATOM     14  O   UNL     1      37.220   1.549  13.783  0.00  0.00    +0.000 OA
BRANCH  12  15
ATOM     15  C   UNL     1      38.613   3.750  14.810  0.00  0.00    +0.000 C 
BRANCH  15  16
ATOM     16  C   UNL     1      37.703   4.657  15.633  0.00  0.00    +0.000 C 
BRANCH  16  22
ATOM     17  C   UNL     1      35.704   5.057  14.185  0.00  0.00    +0.000 A 
ATOM     18  C   UNL     1      34.961   5.822  13.319  0.00  0.00    +0.000 A 
ATOM     19  C   UNL     1      35.427   7.060  12.950  0.00  0.00    +0.000 A 
ATOM     20  C   UNL     1      36.627   7.552  13.431  0.00  0.00    +0.000 A 
ATOM     21  C   UNL     1      37.353   6.757  14.302  0.00  0.00    +0.000 A 
ATOM     22  C   UNL     1      36.909   5.515  14.687  0.00  0.00    +0.000 A 
BRANCH  17  24
ATOM     23  C   UNL     1      34.150   3.576  15.389  0.00  0.00    +0.000 C 
ATOM     24  O   UNL     1      35.285   3.793  14.598  0.00  0.00    +0.000 OA
ENDBRANCH  17  24
ENDBRANCH  16  22
ENDBRANCH  15  16
ENDBRANCH  12  15
ENDBRANCH   1  13
BRANCH   4  25
ATOM     25  C   UNL     1      36.454  -2.584  17.446  0.00  0.00    +0.000 C 
BRANCH  25  26
ATOM     26  C   UNL     1      35.698  -3.474  16.489  0.00  0.00    +0.000 A 
ATOM     27  C   UNL     1      34.576  -3.171  15.780  0.00  0.00    +0.000 A 
ATOM     28  C   UNL     1      34.068  -4.115  14.984  0.00  0.00    +0.000 A 
ATOM     29  C   UNL     1      34.714  -5.317  14.939  0.00  0.00    +0.000 A 
ATOM     30  S   UNL     1      36.013  -5.081  16.018  0.00  0.00    +0.000 S 
ENDBRANCH  25  26
ENDBRANCH   4  25
TORSDOF 7
ENDMDL
MODEL 9
REMARK VINA RESULT:      -6.9      4.314      6.716
REMARK  Name = 
REMARK  7 active torsions:
REMARK  status: ('A' for Active; 'I' for Inactive)
REMARK    1  A    between atoms: O_2  and  C_3
REMARK    2  A    between atoms: C_8  and  C_9
REMARK    3  A    between atoms: C_9  and  C_10
REMARK    4  A    between atoms: C_10  and  N_11
REMARK    5  A    between atoms: C_12  and  C_14
REMARK    6  A    between atoms: N_17  and  C_18
REMARK    7  A    between atoms: C_18  and  C_19
REMARK                            x       y       z     vdW  Elec       q    Type
REMARK                         _______ _______ _______ _____ _____    ______ ____
ROOT
ATOM      1  C   UNL     1      37.302  -0.371  14.237  0.00  0.00    +0.000 A 
ATOM      2  C   UNL     1      37.488  -1.638  14.812  0.00  0.00    +0.000 A 
ATOM      3  C   UNL     1      38.381  -2.692  14.260  0.00  0.00    +0.000 C 
ATOM      4  N   UNL     1      36.718  -1.652  15.900  0.00  0.00    +0.000 N 
ATOM      5  C   UNL     1      36.067  -0.485  16.041  0.00  0.00    +0.000 A 
ATOM      6  C   UNL     1      35.173  -0.020  16.987  0.00  0.00    +0.000 A 
ATOM      7  C   UNL     1      34.660   1.254  16.865  0.00  0.00    +0.000 A 
ATOM      8  C   UNL     1      35.003   2.097  15.827  0.00  0.00    +0.000 A 
ATOM      9  O   UNL     1      34.438   3.368  15.781  0.00  0.00    +0.000 OA
ATOM     10  C   UNL     1      35.892   1.642  14.883  0.00  0.00    +0.000 A 
ATOM     11  C   UNL     1      36.412   0.359  15.001  0.00  0.00    +0.000 A 
ENDROOT
BRANCH   1  13
ATOM     12  N   UNL     1      39.189   0.775  13.044  0.00  0.00    +0.000 NA
ATOM     13  C   UNL     1      37.950   0.086  13.026  0.00  0.00    +0.000 C 
ATOM     14  O   UNL     1      37.407  -0.130  11.917  0.00  0.00    +0.000 OA
BRANCH  12  15
ATOM     15  C   UNL     1      39.850   1.237  11.859  0.00  0.00    +0.000 C 
BRANCH  15  16
ATOM     16  C   UNL     1      41.289   0.733  11.886  0.00  0.00    +0.000 C 
BRANCH  16  22
ATOM     17  C   UNL     1      41.945  -1.544  12.682  0.00  0.00    +0.000 A 
ATOM     18  C   UNL     1      41.943  -2.915  12.588  0.00  0.00    +0.000 A 
ATOM     19  C   UNL     1      41.257  -3.515  11.562  0.00  0.00    +0.000 A 
ATOM     20  C   UNL     1      40.569  -2.770  10.621  0.00  0.00    +0.000 A 
ATOM     21  C   UNL     1      40.590  -1.391  10.743  0.00  0.00    +0.000 A 
ATOM     22  C   UNL     1      41.269  -0.765  11.760  0.00  0.00    +0.000 A 
BRANCH  17  24
ATOM     23  C   UNL     1      43.537  -1.500  14.558  0.00  0.00    +0.000 C 
ATOM     24  O   UNL     1      42.623  -0.876  13.701  0.00  0.00    +0.000 OA
ENDBRANCH  17  24
ENDBRANCH  16  22
ENDBRANCH  15  16
ENDBRANCH  12  15
ENDBRANCH   1  13
BRANCH   4  25
ATOM     25  C   UNL     1      36.597  -2.770  16.812  0.00  0.00    +0.000 C 
BRANCH  25  26
ATOM     26  C   UNL     1      35.609  -3.707  16.159  0.00  0.00    +0.000 A 
ATOM     27  C   UNL     1      34.388  -3.399  15.639  0.00  0.00    +0.000 A 
ATOM     28  C   UNL     1      33.672  -4.391  15.104  0.00  0.00    +0.000 A 
ATOM     29  C   UNL     1      34.218  -5.642  15.116  0.00  0.00    +0.000 A 
ATOM     30  S   UNL     1      35.720  -5.384  15.881  0.00  0.00    +0.000 S 
ENDBRANCH  25  26
ENDBRANCH   4  25
TORSDOF 7
ENDMDL
MODEL 10
REMARK VINA RESULT:      -6.9     25.278     28.200
REMARK  Name = 
REMARK  7 active torsions:
REMARK  status: ('A' for Active; 'I' for Inactive)
REMARK    1  A    between atoms: O_2  and  C_3
REMARK    2  A    between atoms: C_8  and  C_9
REMARK    3  A    between atoms: C_9  and  C_10
REMARK    4  A    between atoms: C_10  and  N_11
REMARK    5  A    between atoms: C_12  and  C_14
REMARK    6  A    between atoms: N_17  and  C_18
REMARK    7  A    between atoms: C_18  and  C_19
REMARK                            x       y       z     vdW  Elec       q    Type
REMARK                         _______ _______ _______ _____ _____    ______ ____
ROOT
ATOM      1  C   UNL     1      27.798  14.642  39.645  0.00  0.00    +0.000 A 
ATOM      2  C   UNL     1      29.147  15.012  39.538  0.00  0.00    +0.000 A 
ATOM      3  C   UNL     1      29.634  16.248  38.867  0.00  0.00    +0.000 C 
ATOM      4  N   UNL     1      29.832  14.044  40.149  0.00  0.00    +0.000 N 
ATOM      5  C   UNL     1      29.003  13.101  40.627  0.00  0.00    +0.000 A 
ATOM      6  C   UNL     1      29.222  11.926  41.320  0.00  0.00    +0.000 A 
ATOM      7  C   UNL     1      28.147  11.143  41.686  0.00  0.00    +0.000 A 
ATOM      8  C   UNL     1      26.843  11.486  41.385  0.00  0.00    +0.000 A 
ATOM      9  O   UNL     1      25.817  10.638  41.792  0.00  0.00    +0.000 OA
ATOM     10  C   UNL     1      26.617  12.653  40.695  0.00  0.00    +0.000 A 
ATOM     11  C   UNL     1      27.697  13.444  40.326  0.00  0.00    +0.000 A 
ENDROOT
BRANCH   1  13
ATOM     12  N   UNL     1      26.055  15.074  37.892  0.00  0.00    +0.000 NA
ATOM     13  C   UNL     1      26.690  15.409  39.114  0.00  0.00    +0.000 C 
ATOM     14  O   UNL     1      26.269  16.404  39.748  0.00  0.00    +0.000 OA
BRANCH  12  15
ATOM     15  C   UNL     1      24.958  15.816  37.345  0.00  0.00    +0.000 C 
BRANCH  15  16
ATOM     16  C   UNL     1      25.513  16.836  36.357  0.00  0.00    +0.000 C 
BRANCH  16  22
ATOM     17  C   UNL     1      24.850  17.008  33.953  0.00  0.00    +0.000 A 
ATOM     18  C   UNL     1      24.743  16.503  32.679  0.00  0.00    +0.000 A 
ATOM     19  C   UNL     1      25.201  15.235  32.421  0.00  0.00    +0.000 A 
ATOM     20  C   UNL     1      25.766  14.455  33.415  0.00  0.00    +0.000 A 
ATOM     21  C   UNL     1      25.860  14.993  34.687  0.00  0.00    +0.000 A 
ATOM     22  C   UNL     1      25.410  16.260  34.972  0.00  0.00    +0.000 A 
BRANCH  17  24
ATOM     23  C   UNL     1      24.765  19.436  33.560  0.00  0.00    +0.000 C 
ATOM     24  O   UNL     1      24.405  18.289  34.277  0.00  0.00    +0.000 OA
ENDBRANCH  17  24
ENDBRANCH  16  22
ENDBRANCH  15  16
ENDBRANCH  12  15
ENDBRANCH   1  13
BRANCH   4  25
ATOM     25  C   UNL     1      31.272  14.010  40.286  0.00  0.00    +0.000 C 
BRANCH  25  26
ATOM     26  C   UNL     1      31.784  13.531  38.948  0.00  0.00    +0.000 A 
ATOM     27  C   UNL     1      31.654  12.290  38.404  0.00  0.00    +0.000 A 
ATOM     28  C   UNL     1      32.187  12.080  37.197  0.00  0.00    +0.000 A 
ATOM     29  C   UNL     1      32.823  13.129  36.598  0.00  0.00    +0.000 A 
ATOM     30  S   UNL     1      32.653  14.374  37.750  0.00  0.00    +0.000 S 
ENDBRANCH  25  26
ENDBRANCH   4  25
TORSDOF 7
ENDMDL
