MODEL 1
REMARK VINA RESULT:      -7.4      0.000      0.000
REMARK  Name = 
REMARK  6 active torsions:
REMARK  status: ('A' for Active; 'I' for Inactive)
REMARK    1  A    between atoms: C_2  and  C_3
REMARK    2  A    between atoms: C_3  and  C_5
REMARK    3  A    between atoms: C_8  and  N_9
REMARK    4  A    between atoms: C_10  and  C_12
REMARK    5  A    between atoms: C_16  and  C_17
REMARK    6  A    between atoms: C_20  and  O_21
REMARK                            x       y       z     vdW  Elec       q    Type
REMARK                         _______ _______ _______ _____ _____    ______ ____
ROOT
ATOM      1  C   UNL     1      38.268   3.781  12.520  0.00  0.00    +0.000 A 
ATOM      2  S   UNL     1      37.807   4.915  11.354  0.00  0.00    +0.000 S 
ATOM      3  C   UNL     1      37.273   3.851  10.122  0.00  0.00    +0.000 A 
ATOM      4  N   UNL     1      36.754   4.010   8.865  0.00  0.00    +0.000 NA
ATOM      5  C   UNL     1      36.404   2.987   8.074  0.00  0.00    +0.000 A 
ATOM      6  C   UNL     1      36.601   1.738   8.611  0.00  0.00    +0.000 A 
ATOM      7  C   UNL     1      37.115   1.523   9.860  0.00  0.00    +0.000 A 
ATOM      8  C   UNL     1      37.475   2.624  10.672  0.00  0.00    +0.000 A 
ATOM      9  C   UNL     1      37.997   2.585  11.927  0.00  0.00    +0.000 A 
ATOM     10  N   UNL     1      38.269   1.326  12.646  0.00  0.00    +0.000 NA
ENDROOT
BRANCH   5  11
ATOM     11  C   UNL     1      35.853   3.167   6.739  0.00  0.00    +0.000 A 
ATOM     12  C   UNL     1      35.864   2.154   5.804  0.00  0.00    +0.000 A 
ATOM     13  C   UNL     1      35.335   2.331   4.528  0.00  0.00    +0.000 A 
ATOM     14  C   UNL     1      34.777   3.532   4.149  0.00  0.00    +0.000 A 
ATOM     15  C   UNL     1      34.762   4.549   5.079  0.00  0.00    +0.000 A 
ATOM     16  C   UNL     1      35.290   4.360   6.342  0.00  0.00    +0.000 A 
BRANCH  14  17
ATOM     17  O   UNL     1      34.243   3.713   2.863  0.00  0.00    +0.000 OA
ATOM     18  C   UNL     1      33.382   4.756   2.535  0.00  0.00    +0.000 C 
ENDBRANCH  14  17
ENDBRANCH   5  11
BRANCH   1  20
ATOM     19  N   UNL     1      38.181   4.955  14.729  0.00  0.00    +0.000 NA
ATOM     20  C   UNL     1      38.829   4.018  13.857  0.00  0.00    +0.000 C 
ATOM     21  O   UNL     1      39.840   3.451  14.283  0.00  0.00    +0.000 OA
BRANCH  19  25
ATOM     22  C   UNL     1      39.852   5.748  18.476  0.00  0.00    +0.000 A 
ATOM     23  C   UNL     1      40.358   6.334  17.360  0.00  0.00    +0.000 A 
ATOM     24  C   UNL     1      39.784   6.056  16.107  0.00  0.00    +0.000 A 
ATOM     25  C   UNL     1      38.712   5.192  16.018  0.00  0.00    +0.000 A 
ATOM     26  C   UNL     1      38.262   4.642  17.196  0.00  0.00    +0.000 A 
ATOM     27  C   UNL     1      38.815   4.905  18.435  0.00  0.00    +0.000 A 
BRANCH  22  28
ATOM     28  C   UNL     1      40.600   6.160  19.790  0.00  0.00    +0.000 C 
ATOM     29  C   UNL     1      41.548   7.265  19.046  0.00  0.00    +0.000 C 
BRANCH  28  31
ATOM     30  C   UNL     1      40.347   8.547  20.207  0.00  0.00    +0.000 C 
ATOM     31  C   UNL     1      39.518   7.274  20.283  0.00  0.00    +0.000 C 
ENDBRANCH  28  31
ENDBRANCH  22  28
ENDBRANCH  19  25
ENDBRANCH   1  20
TORSDOF 6
ENDMDL
MODEL 2
REMARK VINA RESULT:      -7.3      6.746      8.751
REMARK  Name = 
REMARK  6 active torsions:
REMARK  status: ('A' for Active; 'I' for Inactive)
REMARK    1  A    between atoms: C_2  and  C_3
REMARK    2  A    between atoms: C_3  and  C_5
REMARK    3  A    between atoms: C_8  and  N_9
REMARK    4  A    between atoms: C_10  and  C_12
REMARK    5  A    between atoms: C_16  and  C_17
REMARK    6  A    between atoms: C_20  and  O_21
REMARK                            x       y       z     vdW  Elec       q    Type
REMARK                         _______ _______ _______ _____ _____    ______ ____
ROOT
ATOM      1  C   UNL     1      36.342   1.261  16.190  0.00  0.00    +0.000 A 
ATOM      2  S   UNL     1      35.280   0.183  16.943  0.00  0.00    +0.000 S 
ATOM      3  C   UNL     1      35.612  -1.226  16.027  0.00  0.00    +0.000 A 
ATOM      4  N   UNL     1      35.151  -2.515  16.034  0.00  0.00    +0.000 NA
ATOM      5  C   UNL     1      35.582  -3.460  15.189  0.00  0.00    +0.000 A 
ATOM      6  C   UNL     1      36.539  -3.051  14.292  0.00  0.00    +0.000 A 
ATOM      7  C   UNL     1      37.035  -1.777  14.241  0.00  0.00    +0.000 A 
ATOM      8  C   UNL     1      36.559  -0.801  15.148  0.00  0.00    +0.000 A 
ATOM      9  C   UNL     1      36.942   0.501  15.231  0.00  0.00    +0.000 A 
ATOM     10  N   UNL     1      37.958   1.099  14.344  0.00  0.00    +0.000 NA
ENDROOT
BRANCH   5  11
ATOM     11  C   UNL     1      35.085  -4.828  15.204  0.00  0.00    +0.000 A 
ATOM     12  C   UNL     1      34.173  -5.282  14.276  0.00  0.00    +0.000 A 
ATOM     13  C   UNL     1      33.701  -6.593  14.295  0.00  0.00    +0.000 A 
ATOM     14  C   UNL     1      34.131  -7.490  15.248  0.00  0.00    +0.000 A 
ATOM     15  C   UNL     1      35.042  -7.042  16.179  0.00  0.00    +0.000 A 
ATOM     16  C   UNL     1      35.503  -5.740  16.149  0.00  0.00    +0.000 A 
BRANCH  14  17
ATOM     17  O   UNL     1      33.656  -8.812  15.269  0.00  0.00    +0.000 OA
ATOM     18  C   UNL     1      32.766  -9.317  14.326  0.00  0.00    +0.000 C 
ENDBRANCH  14  17
ENDBRANCH   5  11
BRANCH   1  20
ATOM     19  N   UNL     1      37.909   3.132  16.748  0.00  0.00    +0.000 NA
ATOM     20  C   UNL     1      36.572   2.681  16.490  0.00  0.00    +0.000 C 
ATOM     21  O   UNL     1      35.670   3.524  16.534  0.00  0.00    +0.000 OA
BRANCH  19  25
ATOM     22  C   UNL     1      38.638   7.123  17.747  0.00  0.00    +0.000 A 
ATOM     23  C   UNL     1      38.815   6.141  18.668  0.00  0.00    +0.000 A 
ATOM     24  C   UNL     1      38.565   4.803  18.315  0.00  0.00    +0.000 A 
ATOM     25  C   UNL     1      38.142   4.496  17.038  0.00  0.00    +0.000 A 
ATOM     26  C   UNL     1      37.989   5.549  16.168  0.00  0.00    +0.000 A 
ATOM     27  C   UNL     1      38.230   6.870  16.499  0.00  0.00    +0.000 A 
BRANCH  22  28
ATOM     28  C   UNL     1      38.958   8.556  18.295  0.00  0.00    +0.000 C 
ATOM     29  C   UNL     1      37.396   8.911  18.620  0.00  0.00    +0.000 C 
BRANCH  28  31
ATOM     30  C   UNL     1      38.480   9.136  20.612  0.00  0.00    +0.000 C 
ATOM     31  C   UNL     1      39.278   8.105  19.828  0.00  0.00    +0.000 C 
ENDBRANCH  28  31
ENDBRANCH  22  28
ENDBRANCH  19  25
ENDBRANCH   1  20
TORSDOF 6
ENDMDL
MODEL 3
REMARK VINA RESULT:      -7.1     18.422     22.696
REMARK  Name = 
REMARK  6 active torsions:
REMARK  status: ('A' for Active; 'I' for Inactive)
REMARK    1  A    between atoms: C_2  and  C_3
REMARK    2  A    between atoms: C_3  and  C_5
REMARK    3  A    between atoms: C_8  and  N_9
REMARK    4  A    between atoms: C_10  and  C_12
REMARK    5  A    between atoms: C_16  and  C_17
REMARK    6  A    between atoms: C_20  and  O_21
REMARK                            x       y       z     vdW  Elec       q    Type
REMARK                         _______ _______ _______ _____ _____    ______ ____
ROOT
ATOM      1  C   UNL     1      25.839  18.486  21.100  0.00  0.00    +0.000 A 
ATOM      2  S   UNL     1      26.683  17.024  21.196  0.00  0.00    +0.000 S 
ATOM      3  C   UNL     1      28.210  17.612  21.703  0.00  0.00    +0.000 A 
ATOM      4  N   UNL     1      29.418  17.039  21.997  0.00  0.00    +0.000 NA
ATOM      5  C   UNL     1      30.494  17.737  22.384  0.00  0.00    +0.000 A 
ATOM      6  C   UNL     1      30.310  19.096  22.471  0.00  0.00    +0.000 A 
ATOM      7  C   UNL     1      29.126  19.720  22.189  0.00  0.00    +0.000 A 
ATOM      8  C   UNL     1      28.007  18.955  21.784  0.00  0.00    +0.000 A 
ATOM      9  C   UNL     1      26.767  19.414  21.467  0.00  0.00    +0.000 A 
ATOM     10  N   UNL     1      26.404  20.843  21.510  0.00  0.00    +0.000 NA
ENDROOT
BRANCH   5  11
ATOM     11  C   UNL     1      31.775  17.118  22.694  0.00  0.00    +0.000 A 
ATOM     12  C   UNL     1      32.080  16.674  23.962  0.00  0.00    +0.000 A 
ATOM     13  C   UNL     1      33.307  16.082  24.253  0.00  0.00    +0.000 A 
ATOM     14  C   UNL     1      34.267  15.918  23.279  0.00  0.00    +0.000 A 
ATOM     15  C   UNL     1      33.968  16.361  22.009  0.00  0.00    +0.000 A 
ATOM     16  C   UNL     1      32.747  16.945  21.734  0.00  0.00    +0.000 A 
BRANCH  14  17
ATOM     17  O   UNL     1      35.505  15.322  23.571  0.00  0.00    +0.000 OA
ATOM     18  C   UNL     1      36.551  15.999  24.190  0.00  0.00    +0.000 C 
ENDBRANCH  14  17
ENDBRANCH   5  11
BRANCH   1  20
ATOM     19  N   UNL     1      24.153  19.259  19.420  0.00  0.00    +0.000 NA
ATOM     20  C   UNL     1      24.440  18.713  20.715  0.00  0.00    +0.000 C 
ATOM     21  O   UNL     1      23.480  18.458  21.449  0.00  0.00    +0.000 OA
BRANCH  19  25
ATOM     22  C   UNL     1      20.181  19.780  18.232  0.00  0.00    +0.000 A 
ATOM     23  C   UNL     1      20.836  18.622  17.954  0.00  0.00    +0.000 A 
ATOM     24  C   UNL     1      22.172  18.464  18.362  0.00  0.00    +0.000 A 
ATOM     25  C   UNL     1      22.809  19.483  19.038  0.00  0.00    +0.000 A 
ATOM     26  C   UNL     1      22.075  20.620  19.279  0.00  0.00    +0.000 A 
ATOM     27  C   UNL     1      20.762  20.792  18.885  0.00  0.00    +0.000 A 
BRANCH  22  28
ATOM     28  C   UNL     1      18.702  19.799  17.713  0.00  0.00    +0.000 C 
ATOM     29  C   UNL     1      19.113  19.448  16.170  0.00  0.00    +0.000 C 
BRANCH  28  31
ATOM     30  C   UNL     1      17.430  18.428  19.273  0.00  0.00    +0.000 C 
ATOM     31  C   UNL     1      18.353  18.250  18.078  0.00  0.00    +0.000 C 
ENDBRANCH  28  31
ENDBRANCH  22  28
ENDBRANCH  19  25
ENDBRANCH   1  20
TORSDOF 6
ENDMDL
MODEL 4
REMARK VINA RESULT:      -7.0      5.464      6.847
REMARK  Name = 
REMARK  6 active torsions:
REMARK  status: ('A' for Active; 'I' for Inactive)
REMARK    1  A    between atoms: C_2  and  C_3
REMARK    2  A    between atoms: C_3  and  C_5
REMARK    3  A    between atoms: C_8  and  N_9
REMARK    4  A    between atoms: C_10  and  C_12
REMARK    5  A    between atoms: C_16  and  C_17
REMARK    6  A    between atoms: C_20  and  O_21
REMARK                            x       y       z     vdW  Elec       q    Type
REMARK                         _______ _______ _______ _____ _____    ______ ____
ROOT
ATOM      1  C   UNL     1      35.890   4.975  13.138  0.00  0.00    +0.000 A 
ATOM      2  S   UNL     1      36.633   5.217  11.638  0.00  0.00    +0.000 S 
ATOM      3  C   UNL     1      35.793   6.622  11.131  0.00  0.00    +0.000 A 
ATOM      4  N   UNL     1      35.831   7.422  10.021  0.00  0.00    +0.000 NA
ATOM      5  C   UNL     1      35.048   8.497   9.857  0.00  0.00    +0.000 A 
ATOM      6  C   UNL     1      34.184   8.755  10.894  0.00  0.00    +0.000 A 
ATOM      7  C   UNL     1      34.106   7.989  12.024  0.00  0.00    +0.000 A 
ATOM      8  C   UNL     1      34.946   6.861  12.168  0.00  0.00    +0.000 A 
ATOM      9  C   UNL     1      34.995   5.999  13.220  0.00  0.00    +0.000 A 
ATOM     10  N   UNL     1      34.136   6.135  14.411  0.00  0.00    +0.000 NA
ENDROOT
BRANCH   5  11
ATOM     11  C   UNL     1      35.095   9.342   8.673  0.00  0.00    +0.000 A 
ATOM     12  C   UNL     1      34.337   9.071   7.554  0.00  0.00    +0.000 A 
ATOM     13  C   UNL     1      34.386   9.883   6.424  0.00  0.00    +0.000 A 
ATOM     14  C   UNL     1      35.198  10.995   6.381  0.00  0.00    +0.000 A 
ATOM     15  C   UNL     1      35.958  11.272   7.497  0.00  0.00    +0.000 A 
ATOM     16  C   UNL     1      35.900  10.458   8.611  0.00  0.00    +0.000 A 
BRANCH  14  17
ATOM     17  O   UNL     1      35.248  11.816   5.243  0.00  0.00    +0.000 OA
ATOM     18  C   UNL     1      35.586  13.166   5.290  0.00  0.00    +0.000 C 
ENDBRANCH  14  17
ENDBRANCH   5  11
BRANCH   1  20
ATOM     19  N   UNL     1      35.174   2.873  14.291  0.00  0.00    +0.000 NA
ATOM     20  C   UNL     1      36.142   3.918  14.125  0.00  0.00    +0.000 C 
ATOM     21  O   UNL     1      37.154   3.872  14.834  0.00  0.00    +0.000 OA
BRANCH  19  25
ATOM     22  C   UNL     1      35.938  -0.227  16.987  0.00  0.00    +0.000 A 
ATOM     23  C   UNL     1      36.408  -0.292  15.714  0.00  0.00    +0.000 A 
ATOM     24  C   UNL     1      36.142   0.760  14.820  0.00  0.00    +0.000 A 
ATOM     25  C   UNL     1      35.406   1.849  15.239  0.00  0.00    +0.000 A 
ATOM     26  C   UNL     1      34.969   1.836  16.543  0.00  0.00    +0.000 A 
ATOM     27  C   UNL     1      35.222   0.810  17.434  0.00  0.00    +0.000 A 
BRANCH  22  28
ATOM     28  C   UNL     1      36.320  -1.474  17.856  0.00  0.00    +0.000 C 
ATOM     29  C   UNL     1      35.381  -2.505  17.004  0.00  0.00    +0.000 C 
BRANCH  28  31
ATOM     30  C   UNL     1      38.465  -2.600  18.108  0.00  0.00    +0.000 C 
ATOM     31  C   UNL     1      37.671  -1.870  17.036  0.00  0.00    +0.000 C 
ENDBRANCH  28  31
ENDBRANCH  22  28
ENDBRANCH  19  25
ENDBRANCH   1  20
TORSDOF 6
ENDMDL
MODEL 5
REMARK VINA RESULT:      -6.9     20.773     24.122
REMARK  Name = 
REMARK  6 active torsions:
REMARK  status: ('A' for Active; 'I' for Inactive)
REMARK    1  A    between atoms: C_2  and  C_3
REMARK    2  A    between atoms: C_3  and  C_5
REMARK    3  A    between atoms: C_8  and  N_9
REMARK    4  A    between atoms: C_10  and  C_12
REMARK    5  A    between atoms: C_16  and  C_17
REMARK    6  A    between atoms: C_20  and  O_21
REMARK                            x       y       z     vdW  Elec       q    Type
REMARK                         _______ _______ _______ _____ _____    ______ ____
ROOT
ATOM      1  C   UNL     1      18.680  -0.138   2.917  0.00  0.00    +0.000 A 
ATOM      2  S   UNL     1      18.712  -1.811   2.674  0.00  0.00    +0.000 S 
ATOM      3  C   UNL     1      17.640  -2.297   3.919  0.00  0.00    +0.000 A 
ATOM      4  N   UNL     1      17.155  -3.498   4.362  0.00  0.00    +0.000 NA
ATOM      5  C   UNL     1      16.300  -3.618   5.386  0.00  0.00    +0.000 A 
ATOM      6  C   UNL     1      15.929  -2.437   5.980  0.00  0.00    +0.000 A 
ATOM      7  C   UNL     1      16.382  -1.211   5.578  0.00  0.00    +0.000 A 
ATOM      8  C   UNL     1      17.284  -1.117   4.492  0.00  0.00    +0.000 A 
ATOM      9  C   UNL     1      17.828   0.015   3.970  0.00  0.00    +0.000 A 
ATOM     10  N   UNL     1      17.533   1.363   4.491  0.00  0.00    +0.000 NA
ENDROOT
BRANCH   5  11
ATOM     11  C   UNL     1      15.790  -4.901   5.851  0.00  0.00    +0.000 A 
ATOM     12  C   UNL     1      16.154  -5.431   7.069  0.00  0.00    +0.000 A 
ATOM     13  C   UNL     1      15.662  -6.658   7.508  0.00  0.00    +0.000 A 
ATOM     14  C   UNL     1      14.788  -7.392   6.737  0.00  0.00    +0.000 A 
ATOM     15  C   UNL     1      14.420  -6.867   5.517  0.00  0.00    +0.000 A 
ATOM     16  C   UNL     1      14.915  -5.649   5.093  0.00  0.00    +0.000 A 
BRANCH  14  17
ATOM     17  O   UNL     1      14.291  -8.629   7.178  0.00  0.00    +0.000 OA
ATOM     18  C   UNL     1      12.946  -8.979   7.108  0.00  0.00    +0.000 C 
ENDBRANCH  14  17
ENDBRANCH   5  11
BRANCH   1  20
ATOM     19  N   UNL     1      19.173   1.041   0.765  0.00  0.00    +0.000 NA
ATOM     20  C   UNL     1      19.394   0.910   2.176  0.00  0.00    +0.000 C 
ATOM     21  O   UNL     1      20.187   1.698   2.702  0.00  0.00    +0.000 OA
BRANCH  19  25
ATOM     22  C   UNL     1      21.296   3.906  -1.411  0.00  0.00    +0.000 A 
ATOM     23  C   UNL     1      21.756   2.632  -1.322  0.00  0.00    +0.000 A 
ATOM     24  C   UNL     1      21.029   1.680  -0.586  0.00  0.00    +0.000 A 
ATOM     25  C   UNL     1      19.856   2.046   0.041  0.00  0.00    +0.000 A 
ATOM     26  C   UNL     1      19.461   3.355  -0.100  0.00  0.00    +0.000 A 
ATOM     27  C   UNL     1      20.164   4.303  -0.820  0.00  0.00    +0.000 A 
BRANCH  22  28
ATOM     28  C   UNL     1      22.218   4.843  -2.266  0.00  0.00    +0.000 C 
ATOM     29  C   UNL     1      23.605   4.245  -1.643  0.00  0.00    +0.000 C 
BRANCH  28  31
ATOM     30  C   UNL     1      21.247   4.551  -4.481  0.00  0.00    +0.000 C 
ATOM     31  C   UNL     1      22.284   3.890  -3.586  0.00  0.00    +0.000 C 
ENDBRANCH  28  31
ENDBRANCH  22  28
ENDBRANCH  19  25
ENDBRANCH   1  20
TORSDOF 6
ENDMDL
MODEL 6
REMARK VINA RESULT:      -6.8     24.702     27.333
REMARK  Name = 
REMARK  6 active torsions:
REMARK  status: ('A' for Active; 'I' for Inactive)
REMARK    1  A    between atoms: C_2  and  C_3
REMARK    2  A    between atoms: C_3  and  C_5
REMARK    3  A    between atoms: C_8  and  N_9
REMARK    4  A    between atoms: C_10  and  C_12
REMARK    5  A    between atoms: C_16  and  C_17
REMARK    6  A    between atoms: C_20  and  O_21
REMARK                            x       y       z     vdW  Elec       q    Type
REMARK                         _______ _______ _______ _____ _____    ______ ____
ROOT
ATOM      1  C   UNL     1      11.726   0.316   7.895  0.00  0.00    +0.000 A 
ATOM      2  S   UNL     1      12.003  -0.939   8.994  0.00  0.00    +0.000 S 
ATOM      3  C   UNL     1      13.106  -1.877   8.079  0.00  0.00    +0.000 A 
ATOM      4  N   UNL     1      13.786  -3.047   8.287  0.00  0.00    +0.000 NA
ATOM      5  C   UNL     1      14.616  -3.591   7.388  0.00  0.00    +0.000 A 
ATOM      6  C   UNL     1      14.749  -2.889   6.214  0.00  0.00    +0.000 A 
ATOM      7  C   UNL     1      14.095  -1.717   5.954  0.00  0.00    +0.000 A 
ATOM      8  C   UNL     1      13.225  -1.167   6.925  0.00  0.00    +0.000 A 
ATOM      9  C   UNL     1      12.502  -0.019   6.826  0.00  0.00    +0.000 A 
ATOM     10  N   UNL     1      12.532   0.850   5.635  0.00  0.00    +0.000 NA
ENDROOT
BRANCH   5  11
ATOM     11  C   UNL     1      15.335  -4.836   7.619  0.00  0.00    +0.000 A 
ATOM     12  C   UNL     1      15.987  -5.091   8.806  0.00  0.00    +0.000 A 
ATOM     13  C   UNL     1      16.673  -6.284   9.021  0.00  0.00    +0.000 A 
ATOM     14  C   UNL     1      16.725  -7.260   8.051  0.00  0.00    +0.000 A 
ATOM     15  C   UNL     1      16.075  -7.012   6.862  0.00  0.00    +0.000 A 
ATOM     16  C   UNL     1      15.398  -5.824   6.661  0.00  0.00    +0.000 A 
BRANCH  14  17
ATOM     17  O   UNL     1      17.416  -8.464   8.267  0.00  0.00    +0.000 OA
ATOM     18  C   UNL     1      17.705  -9.369   7.250  0.00  0.00    +0.000 C 
ENDBRANCH  14  17
ENDBRANCH   5  11
BRANCH   1  20
ATOM     19  N   UNL     1      11.425   2.722   8.512  0.00  0.00    +0.000 NA
ATOM     20  C   UNL     1      10.858   1.490   8.046  0.00  0.00    +0.000 C 
ATOM     21  O   UNL     1       9.649   1.483   7.791  0.00  0.00    +0.000 OA
BRANCH  19  25
ATOM     22  C   UNL     1       8.974   6.054   9.103  0.00  0.00    +0.000 A 
ATOM     23  C   UNL     1       9.314   5.257  10.149  0.00  0.00    +0.000 A 
ATOM     24  C   UNL     1      10.140   4.140   9.933  0.00  0.00    +0.000 A 
ATOM     25  C   UNL     1      10.599   3.860   8.662  0.00  0.00    +0.000 A 
ATOM     26  C   UNL     1      10.208   4.717   7.660  0.00  0.00    +0.000 A 
ATOM     27  C   UNL     1       9.397   5.819   7.856  0.00  0.00    +0.000 A 
BRANCH  22  28
ATOM     28  C   UNL     1       8.052   7.255   9.509  0.00  0.00    +0.000 C 
ATOM     29  C   UNL     1       7.297   7.319   8.061  0.00  0.00    +0.000 C 
BRANCH  28  31
ATOM     30  C   UNL     1       5.754   6.516   9.176  0.00  0.00    +0.000 C 
ATOM     31  C   UNL     1       6.873   6.364  10.195  0.00  0.00    +0.000 C 
ENDBRANCH  28  31
ENDBRANCH  22  28
ENDBRANCH  19  25
ENDBRANCH   1  20
TORSDOF 6
ENDMDL
MODEL 7
REMARK VINA RESULT:      -6.7     19.838     23.987
REMARK  Name = 
REMARK  6 active torsions:
REMARK  status: ('A' for Active; 'I' for Inactive)
REMARK    1  A    between atoms: C_2  and  C_3
REMARK    2  A    between atoms: C_3  and  C_5
REMARK    3  A    between atoms: C_8  and  N_9
REMARK    4  A    between atoms: C_10  and  C_12
REMARK    5  A    between atoms: C_16  and  C_17
REMARK    6  A    between atoms: C_20  and  O_21
REMARK                            x       y       z     vdW  Elec       q    Type
REMARK                         _______ _______ _______ _____ _____    ______ ____
ROOT
ATOM      1  C   UNL     1      18.502   0.104   3.339  0.00  0.00    +0.000 A 
ATOM      2  S   UNL     1      17.373   0.748   4.421  0.00  0.00    +0.000 S 
ATOM      3  C   UNL     1      16.736  -0.707   5.062  0.00  0.00    +0.000 A 
ATOM      4  N   UNL     1      15.781  -1.016   5.993  0.00  0.00    +0.000 NA
ATOM      5  C   UNL     1      15.454  -2.271   6.330  0.00  0.00    +0.000 A 
ATOM      6  C   UNL     1      16.152  -3.254   5.671  0.00  0.00    +0.000 A 
ATOM      7  C   UNL     1      17.115  -3.001   4.734  0.00  0.00    +0.000 A 
ATOM      8  C   UNL     1      17.438  -1.665   4.400  0.00  0.00    +0.000 A 
ATOM      9  C   UNL     1      18.362  -1.242   3.496  0.00  0.00    +0.000 A 
ATOM     10  N   UNL     1      19.195  -2.168   2.705  0.00  0.00    +0.000 NA
ENDROOT
BRANCH   5  11
ATOM     11  C   UNL     1      14.436  -2.590   7.321  0.00  0.00    +0.000 A 
ATOM     12  C   UNL     1      14.316  -3.852   7.860  0.00  0.00    +0.000 A 
ATOM     13  C   UNL     1      13.340  -4.151   8.808  0.00  0.00    +0.000 A 
ATOM     14  C   UNL     1      12.454  -3.192   9.245  0.00  0.00    +0.000 A 
ATOM     15  C   UNL     1      12.569  -1.927   8.709  0.00  0.00    +0.000 A 
ATOM     16  C   UNL     1      13.541  -1.644   7.770  0.00  0.00    +0.000 A 
BRANCH  14  17
ATOM     17  O   UNL     1      11.470  -3.491  10.201  0.00  0.00    +0.000 OA
ATOM     18  C   UNL     1      10.405  -2.643  10.491  0.00  0.00    +0.000 C 
ENDBRANCH  14  17
ENDBRANCH   5  11
BRANCH   1  20
ATOM     19  N   UNL     1      19.257   0.672   1.021  0.00  0.00    +0.000 NA
ATOM     20  C   UNL     1      19.418   0.816   2.439  0.00  0.00    +0.000 C 
ATOM     21  O   UNL     1      20.335   1.544   2.835  0.00  0.00    +0.000 OA
BRANCH  19  25
ATOM     22  C   UNL     1      21.920   2.552  -1.593  0.00  0.00    +0.000 A 
ATOM     23  C   UNL     1      22.024   1.221  -1.346  0.00  0.00    +0.000 A 
ATOM     24  C   UNL     1      21.119   0.604  -0.464  0.00  0.00    +0.000 A 
ATOM     25  C   UNL     1      20.134   1.353   0.145  0.00  0.00    +0.000 A 
ATOM     26  C   UNL     1      20.099   2.694  -0.159  0.00  0.00    +0.000 A 
ATOM     27  C   UNL     1      20.981   3.315  -1.024  0.00  0.00    +0.000 A 
BRANCH  22  28
ATOM     28  C   UNL     1      22.999   3.086  -2.596  0.00  0.00    +0.000 C 
ATOM     29  C   UNL     1      23.035   4.585  -1.946  0.00  0.00    +0.000 C 
BRANCH  28  31
ATOM     30  C   UNL     1      24.692   3.857  -1.023  0.00  0.00    +0.000 C 
ATOM     31  C   UNL     1      24.303   2.583  -1.757  0.00  0.00    +0.000 C 
ENDBRANCH  28  31
ENDBRANCH  22  28
ENDBRANCH  19  25
ENDBRANCH   1  20
TORSDOF 6
ENDMDL
MODEL 8
REMARK VINA RESULT:      -6.6     22.192     24.567
REMARK  Name = 
REMARK  6 active torsions:
REMARK  status: ('A' for Active; 'I' for Inactive)
REMARK    1  A    between atoms: C_2  and  C_3
REMARK    2  A    between atoms: C_3  and  C_5
REMARK    3  A    between atoms: C_8  and  N_9
REMARK    4  A    between atoms: C_10  and  C_12
REMARK    5  A    between atoms: C_16  and  C_17
REMARK    6  A    between atoms: C_20  and  O_21
REMARK                            x       y       z     vdW  Elec       q    Type
REMARK                         _______ _______ _______ _____ _____    ______ ____
ROOT
ATOM      1  C   UNL     1      33.703 -14.599  27.286  0.00  0.00    +0.000 A 
ATOM      2  S   UNL     1      35.151 -13.883  26.786  0.00  0.00    +0.000 S 
ATOM      3  C   UNL     1      34.602 -13.099  25.365  0.00  0.00    +0.000 A 
ATOM      4  N   UNL     1      35.185 -12.315  24.407  0.00  0.00    +0.000 NA
ATOM      5  C   UNL     1      34.521 -11.807  23.360  0.00  0.00    +0.000 A 
ATOM      6  C   UNL     1      33.187 -12.128  23.303  0.00  0.00    +0.000 A 
ATOM      7  C   UNL     1      32.554 -12.907  24.232  0.00  0.00    +0.000 A 
ATOM      8  C   UNL     1      33.283 -13.428  25.327  0.00  0.00    +0.000 A 
ATOM      9  C   UNL     1      32.811 -14.214  26.331  0.00  0.00    +0.000 A 
ATOM     10  N   UNL     1      31.404 -14.648  26.419  0.00  0.00    +0.000 NA
ENDROOT
BRANCH   5  11
ATOM     11  C   UNL     1      35.151 -10.974  22.346  0.00  0.00    +0.000 A 
ATOM     12  C   UNL     1      34.586 -10.788  21.103  0.00  0.00    +0.000 A 
ATOM     13  C   UNL     1      35.192  -9.989  20.136  0.00  0.00    +0.000 A 
ATOM     14  C   UNL     1      36.387  -9.351  20.388  0.00  0.00    +0.000 A 
ATOM     15  C   UNL     1      36.957  -9.533  21.629  0.00  0.00    +0.000 A 
ATOM     16  C   UNL     1      36.345 -10.328  22.579  0.00  0.00    +0.000 A 
BRANCH  14  17
ATOM     17  O   UNL     1      37.000  -8.545  19.415  0.00  0.00    +0.000 OA
ATOM     18  C   UNL     1      36.602  -8.523  18.082  0.00  0.00    +0.000 C 
ENDBRANCH  14  17
ENDBRANCH   5  11
BRANCH   1  20
ATOM     19  N   UNL     1      33.304 -14.813  29.747  0.00  0.00    +0.000 NA
ATOM     20  C   UNL     1      33.456 -15.438  28.465  0.00  0.00    +0.000 C 
ATOM     21  O   UNL     1      33.369 -16.670  28.420  0.00  0.00    +0.000 OA
BRANCH  19  25
ATOM     22  C   UNL     1      32.453 -17.138  33.113  0.00  0.00    +0.000 A 
ATOM     23  C   UNL     1      31.459 -16.479  32.464  0.00  0.00    +0.000 A 
ATOM     24  C   UNL     1      31.763 -15.701  31.333  0.00  0.00    +0.000 A 
ATOM     25  C   UNL     1      33.066 -15.612  30.890  0.00  0.00    +0.000 A 
ATOM     26  C   UNL     1      34.012 -16.310  31.604  0.00  0.00    +0.000 A 
ATOM     27  C   UNL     1      33.729 -17.079  32.717  0.00  0.00    +0.000 A 
BRANCH  22  28
ATOM     28  C   UNL     1      31.952 -17.959  34.350  0.00  0.00    +0.000 C 
ATOM     29  C   UNL     1      30.721 -16.937  34.681  0.00  0.00    +0.000 C 
BRANCH  28  31
ATOM     30  C   UNL     1      31.857 -20.251  33.528  0.00  0.00    +0.000 C 
ATOM     31  C   UNL     1      31.003 -18.992  33.521  0.00  0.00    +0.000 C 
ENDBRANCH  28  31
ENDBRANCH  22  28
ENDBRANCH  19  25
ENDBRANCH   1  20
TORSDOF 6
ENDMDL
MODEL 9
REMARK VINA RESULT:      -6.6     21.033     24.907
REMARK  Name = 
REMARK  6 active torsions:
REMARK  status: ('A' for Active; 'I' for Inactive)
REMARK    1  A    between atoms: C_2  and  C_3
REMARK    2  A    between atoms: C_3  and  C_5
REMARK    3  A    between atoms: C_8  and  N_9
REMARK    4  A    between atoms: C_10  and  C_12
REMARK    5  A    between atoms: C_16  and  C_17
REMARK    6  A    between atoms: C_20  and  O_21
REMARK                            x       y       z     vdW  Elec       q    Type
REMARK                         _______ _______ _______ _____ _____    ______ ____
ROOT
ATOM      1  C   UNL     1      17.024  -1.845   3.893  0.00  0.00    +0.000 A 
ATOM      2  S   UNL     1      17.143  -3.226   4.862  0.00  0.00    +0.000 S 
ATOM      3  C   UNL     1      15.946  -2.856   6.029  0.00  0.00    +0.000 A 
ATOM      4  N   UNL     1      15.452  -3.484   7.141  0.00  0.00    +0.000 NA
ATOM      5  C   UNL     1      14.485  -2.972   7.913  0.00  0.00    +0.000 A 
ATOM      6  C   UNL     1      14.004  -1.748   7.513  0.00  0.00    +0.000 A 
ATOM      7  C   UNL     1      14.460  -1.077   6.412  0.00  0.00    +0.000 A 
ATOM      8  C   UNL     1      15.483  -1.645   5.617  0.00  0.00    +0.000 A 
ATOM      9  C   UNL     1      16.047  -1.114   4.499  0.00  0.00    +0.000 A 
ATOM     10  N   UNL     1      15.645   0.189   3.937  0.00  0.00    +0.000 NA
ENDROOT
BRANCH   5  11
ATOM     11  C   UNL     1      13.967  -3.648   9.094  0.00  0.00    +0.000 A 
ATOM     12  C   UNL     1      14.324  -3.264  10.368  0.00  0.00    +0.000 A 
ATOM     13  C   UNL     1      13.825  -3.914  11.494  0.00  0.00    +0.000 A 
ATOM     14  C   UNL     1      12.950  -4.972  11.376  0.00  0.00    +0.000 A 
ATOM     15  C   UNL     1      12.589  -5.361  10.104  0.00  0.00    +0.000 A 
ATOM     16  C   UNL     1      13.091  -4.707   8.996  0.00  0.00    +0.000 A 
BRANCH  14  17
ATOM     17  O   UNL     1      12.445  -5.629  12.510  0.00  0.00    +0.000 OA
ATOM     18  C   UNL     1      12.977  -5.464  13.786  0.00  0.00    +0.000 C 
ENDBRANCH  14  17
ENDBRANCH   5  11
BRANCH   1  20
ATOM     19  N   UNL     1      18.829  -0.525   2.770  0.00  0.00    +0.000 NA
ATOM     20  C   UNL     1      17.786  -1.505   2.685  0.00  0.00    +0.000 C 
ATOM     21  O   UNL     1      17.580  -2.020   1.580  0.00  0.00    +0.000 OA
BRANCH  19  25
ATOM     22  C   UNL     1      20.927   0.588  -0.668  0.00  0.00    +0.000 A 
ATOM     23  C   UNL     1      19.877   1.332  -0.232  0.00  0.00    +0.000 A 
ATOM     24  C   UNL     1      19.182   0.943   0.927  0.00  0.00    +0.000 A 
ATOM     25  C   UNL     1      19.570  -0.189   1.613  0.00  0.00    +0.000 A 
ATOM     26  C   UNL     1      20.641  -0.885   1.104  0.00  0.00    +0.000 A 
ATOM     27  C   UNL     1      21.335  -0.516  -0.033  0.00  0.00    +0.000 A 
BRANCH  22  28
ATOM     28  C   UNL     1      21.594   1.153  -1.969  0.00  0.00    +0.000 C 
ATOM     29  C   UNL     1      21.988   2.586  -1.288  0.00  0.00    +0.000 C 
BRANCH  28  31
ATOM     30  C   UNL     1      23.946   1.756  -1.779  0.00  0.00    +0.000 C 
ATOM     31  C   UNL     1      23.071   0.514  -1.717  0.00  0.00    +0.000 C 
ENDBRANCH  28  31
ENDBRANCH  22  28
ENDBRANCH  19  25
ENDBRANCH   1  20
TORSDOF 6
ENDMDL
MODEL 10
REMARK VINA RESULT:      -6.6     22.193     25.013
REMARK  Name = 
REMARK  6 active torsions:
REMARK  status: ('A' for Active; 'I' for Inactive)
REMARK    1  A    between atoms: C_2  and  C_3
REMARK    2  A    between atoms: C_3  and  C_5
REMARK    3  A    between atoms: C_8  and  N_9
REMARK    4  A    between atoms: C_10  and  C_12
REMARK    5  A    between atoms: C_16  and  C_17
REMARK    6  A    between atoms: C_20  and  O_21
REMARK                            x       y       z     vdW  Elec       q    Type
REMARK                         _______ _______ _______ _____ _____    ______ ____
ROOT
ATOM      1  C   UNL     1      17.204   2.648   1.234  0.00  0.00    +0.000 A 
ATOM      2  S   UNL     1      15.757   1.894   1.676  0.00  0.00    +0.000 S 
ATOM      3  C   UNL     1      16.328   0.924   2.967  0.00  0.00    +0.000 A 
ATOM      4  N   UNL     1      15.755   0.029   3.831  0.00  0.00    +0.000 NA
ATOM      5  C   UNL     1      16.436  -0.620   4.784  0.00  0.00    +0.000 A 
ATOM      6  C   UNL     1      17.777  -0.328   4.847  0.00  0.00    +0.000 A 
ATOM      7  C   UNL     1      18.400   0.557   4.010  0.00  0.00    +0.000 A 
ATOM      8  C   UNL     1      17.653   1.227   3.013  0.00  0.00    +0.000 A 
ATOM      9  C   UNL     1      18.114   2.129   2.106  0.00  0.00    +0.000 A 
ATOM     10  N   UNL     1      19.525   2.552   2.038  0.00  0.00    +0.000 NA
ENDROOT
BRANCH   5  11
ATOM     11  C   UNL     1      15.818  -1.569   5.698  0.00  0.00    +0.000 A 
ATOM     12  C   UNL     1      16.253  -2.873   5.799  0.00  0.00    +0.000 A 
ATOM     13  C   UNL     1      15.658  -3.777   6.675  0.00  0.00    +0.000 A 
ATOM     14  C   UNL     1      14.606  -3.400   7.480  0.00  0.00    +0.000 A 
ATOM     15  C   UNL     1      14.165  -2.098   7.384  0.00  0.00    +0.000 A 
ATOM     16  C   UNL     1      14.764  -1.211   6.511  0.00  0.00    +0.000 A 
BRANCH  14  17
ATOM     17  O   UNL     1      14.004  -4.311   8.364  0.00  0.00    +0.000 OA
ATOM     18  C   UNL     1      12.938  -3.976   9.194  0.00  0.00    +0.000 C 
ENDBRANCH  14  17
ENDBRANCH   5  11
BRANCH   1  20
ATOM     19  N   UNL     1      17.280   5.026   0.458  0.00  0.00    +0.000 NA
ATOM     20  C   UNL     1      17.437   3.631   0.167  0.00  0.00    +0.000 C 
ATOM     21  O   UNL     1      17.764   3.323  -0.984  0.00  0.00    +0.000 OA
BRANCH  19  25
ATOM     22  C   UNL     1      18.076   7.861  -2.507  0.00  0.00    +0.000 A 
ATOM     23  C   UNL     1      19.047   7.489  -1.633  0.00  0.00    +0.000 A 
ATOM     24  C   UNL     1      18.762   6.533  -0.642  0.00  0.00    +0.000 A 
ATOM     25  C   UNL     1      17.501   5.982  -0.562  0.00  0.00    +0.000 A 
ATOM     26  C   UNL     1      16.577   6.413  -1.484  0.00  0.00    +0.000 A 
ATOM     27  C   UNL     1      16.841   7.351  -2.464  0.00  0.00    +0.000 A 
BRANCH  22  28
ATOM     28  C   UNL     1      18.551   8.931  -3.548  0.00  0.00    +0.000 C 
ATOM     29  C   UNL     1      17.354   9.985  -3.191  0.00  0.00    +0.000 C 
BRANCH  28  31
ATOM     30  C   UNL     1      19.022  11.064  -2.469  0.00  0.00    +0.000 C 
ATOM     31  C   UNL     1      19.629   9.674  -2.578  0.00  0.00    +0.000 C 
ENDBRANCH  28  31
ENDBRANCH  22  28
ENDBRANCH  19  25
ENDBRANCH   1  20
TORSDOF 6
ENDMDL
