MODEL 1
REMARK VINA RESULT:      -8.9      0.000      0.000
REMARK  Name = 
REMARK  5 active torsions:
REMARK  status: ('A' for Active; 'I' for Inactive)
REMARK    1  A    between atoms: C_4  and  N_5
REMARK    2  A    between atoms: C_13  and  C_14
REMARK    3  A    between atoms: C_15  and  C_16
REMARK    4  A    between atoms: C_26  and  O_27
REMARK    5  A    between atoms: O_27  and  C_28
REMARK                            x       y       z     vdW  Elec       q    Type
REMARK                         _______ _______ _______ _____ _____    ______ ____
ROOT
ATOM      1  N   UNL     1      38.874   4.946  17.706  0.00  0.00    +0.000 NA
ATOM      2  C   UNL     1      38.245   5.406  16.520  0.00  0.00    +0.000 A 
ATOM      3  N   UNL     1      38.520   6.565  15.901  0.00  0.00    +0.000 NA
ATOM      4  C   UNL     1      37.905   6.973  14.777  0.00  0.00    +0.000 A 
ATOM      5  N   UNL     1      36.967   6.188  14.235  0.00  0.00    +0.000 NA
ATOM      6  C   UNL     1      36.621   5.011  14.779  0.00  0.00    +0.000 A 
ATOM      7  C   UNL     1      35.653   4.192  14.227  0.00  0.00    +0.000 A 
ATOM      8  C   UNL     1      35.380   3.009  14.871  0.00  0.00    +0.000 A 
ATOM      9  C   UNL     1      36.011   2.594  16.022  0.00  0.00    +0.000 A 
ATOM     10  C   UNL     1      36.975   3.410  16.567  0.00  0.00    +0.000 A 
ATOM     11  C   UNL     1      37.275   4.603  15.954  0.00  0.00    +0.000 A 
ENDROOT
BRANCH   1  15
ATOM     12  C   UNL     1      43.372   7.068  17.642  0.00  0.00    +0.000 C 
ATOM     13  C   UNL     1      42.055   6.830  18.271  0.00  0.00    +0.000 A 
ATOM     14  C   UNL     1      41.096   6.002  17.677  0.00  0.00    +0.000 A 
ATOM     15  C   UNL     1      39.882   5.790  18.287  0.00  0.00    +0.000 A 
ATOM     16  C   UNL     1      39.681   6.438  19.498  0.00  0.00    +0.000 A 
ATOM     17  C   UNL     1      40.595   7.244  20.090  0.00  0.00    +0.000 A 
ATOM     18  C   UNL     1      41.795   7.445  19.474  0.00  0.00    +0.000 A 
BRANCH  18  19
ATOM     19  O   UNL     1      42.716   8.270  20.092  0.00  0.00    +0.000 OA
BRANCH  19  20
ATOM     20  C   UNL     1      43.326   7.808  21.248  0.00  0.00    +0.000 A 
ATOM     21  C   UNL     1      43.532   6.470  21.506  0.00  0.00    +0.000 A 
ATOM     22  C   UNL     1      44.138   5.994  22.651  0.00  0.00    +0.000 A 
ATOM     23  C   UNL     1      44.573   6.879  23.615  0.00  0.00    +0.000 A 
ATOM     24  C   UNL     1      44.377   8.223  23.379  0.00  0.00    +0.000 A 
ATOM     25  C   UNL     1      43.771   8.692  22.232  0.00  0.00    +0.000 A 
ENDBRANCH  19  20
ENDBRANCH  18  19
ENDBRANCH   1  15
BRANCH   9  26
ATOM     26  C   UNL     1      35.659   1.316  16.640  0.00  0.00    +0.000 C 
ATOM     27  C   UNL     1      35.389   0.288  17.157  0.00  0.00    +0.000 C 
BRANCH  27  28
ATOM     28  C   UNL     1      35.053  -1.053  17.865  0.00  0.00    +0.000 C 
ATOM     29  C   UNL     1      35.844  -0.736  19.248  0.00  0.00    +0.000 C 
ATOM     30  C   UNL     1      36.763  -1.859  19.553  0.00  0.00    +0.000 C 
ATOM     31  C   UNL     1      38.013  -1.589  18.729  0.00  0.00    +0.000 C 
ATOM     32  N   UNL     1      37.484  -1.191  17.417  0.00  0.00    +0.000 NA
ATOM     33  C   UNL     1      36.252  -1.903  17.171  0.00  0.00    +0.000 C 
ENDBRANCH  27  28
ENDBRANCH   9  26
TORSDOF 5
ENDMDL
MODEL 2
REMARK VINA RESULT:      -8.4      1.336      2.121
REMARK  Name = 
REMARK  5 active torsions:
REMARK  status: ('A' for Active; 'I' for Inactive)
REMARK    1  A    between atoms: C_4  and  N_5
REMARK    2  A    between atoms: C_13  and  C_14
REMARK    3  A    between atoms: C_15  and  C_16
REMARK    4  A    between atoms: C_26  and  O_27
REMARK    5  A    between atoms: O_27  and  C_28
REMARK                            x       y       z     vdW  Elec       q    Type
REMARK                         _______ _______ _______ _____ _____    ______ ____
ROOT
ATOM      1  N   UNL     1      38.506   4.364  17.428  0.00  0.00    +0.000 NA
ATOM      2  C   UNL     1      37.725   4.715  16.297  0.00  0.00    +0.000 A 
ATOM      3  N   UNL     1      37.701   5.930  15.724  0.00  0.00    +0.000 NA
ATOM      4  C   UNL     1      36.949   6.232  14.652  0.00  0.00    +0.000 A 
ATOM      5  N   UNL     1      36.178   5.278  14.117  0.00  0.00    +0.000 NA
ATOM      6  C   UNL     1      36.132   4.035  14.617  0.00  0.00    +0.000 A 
ATOM      7  C   UNL     1      35.339   3.041  14.071  0.00  0.00    +0.000 A 
ATOM      8  C   UNL     1      35.372   1.804  14.667  0.00  0.00    +0.000 A 
ATOM      9  C   UNL     1      36.142   1.497  15.765  0.00  0.00    +0.000 A 
ATOM     10  C   UNL     1      36.932   2.486  16.305  0.00  0.00    +0.000 A 
ATOM     11  C   UNL     1      36.926   3.738  15.738  0.00  0.00    +0.000 A 
ENDROOT
BRANCH   1  15
ATOM     12  C   UNL     1      39.309   7.999  20.727  0.00  0.00    +0.000 C 
ATOM     13  C   UNL     1      39.742   7.149  19.596  0.00  0.00    +0.000 A 
ATOM     14  C   UNL     1      38.910   6.159  19.060  0.00  0.00    +0.000 A 
ATOM     15  C   UNL     1      39.333   5.388  18.003  0.00  0.00    +0.000 A 
ATOM     16  C   UNL     1      40.608   5.652  17.521  0.00  0.00    +0.000 A 
ATOM     17  C   UNL     1      41.429   6.605  18.026  0.00  0.00    +0.000 A 
ATOM     18  C   UNL     1      40.996   7.362  19.073  0.00  0.00    +0.000 A 
BRANCH  18  19
ATOM     19  O   UNL     1      41.847   8.329  19.576  0.00  0.00    +0.000 OA
BRANCH  19  20
ATOM     20  C   UNL     1      42.666   7.980  20.638  0.00  0.00    +0.000 A 
ATOM     21  C   UNL     1      42.898   6.674  21.012  0.00  0.00    +0.000 A 
ATOM     22  C   UNL     1      43.711   6.311  22.067  0.00  0.00    +0.000 A 
ATOM     23  C   UNL     1      44.341   7.284  22.813  0.00  0.00    +0.000 A 
ATOM     24  C   UNL     1      44.124   8.598  22.458  0.00  0.00    +0.000 A 
ATOM     25  C   UNL     1      43.311   8.955  21.402  0.00  0.00    +0.000 A 
ENDBRANCH  19  20
ENDBRANCH  18  19
ENDBRANCH   1  15
BRANCH   9  26
ATOM     26  C   UNL     1      36.118   0.150  16.336  0.00  0.00    +0.000 C 
ATOM     27  C   UNL     1      36.120  -0.939  16.795  0.00  0.00    +0.000 C 
BRANCH  27  28
ATOM     28  C   UNL     1      36.159  -2.368  17.400  0.00  0.00    +0.000 C 
ATOM     29  C   UNL     1      37.540  -2.836  16.682  0.00  0.00    +0.000 C 
ATOM     30  C   UNL     1      37.314  -4.125  15.985  0.00  0.00    +0.000 C 
ATOM     31  C   UNL     1      36.695  -3.755  14.646  0.00  0.00    +0.000 C 
ATOM     32  N   UNL     1      35.696  -2.735  14.996  0.00  0.00    +0.000 NA
ATOM     33  C   UNL     1      35.160  -3.032  16.303  0.00  0.00    +0.000 C 
ENDBRANCH  27  28
ENDBRANCH   9  26
TORSDOF 5
ENDMDL
MODEL 3
REMARK VINA RESULT:      -8.4     25.201     27.129
REMARK  Name = 
REMARK  5 active torsions:
REMARK  status: ('A' for Active; 'I' for Inactive)
REMARK    1  A    between atoms: C_4  and  N_5
REMARK    2  A    between atoms: C_13  and  C_14
REMARK    3  A    between atoms: C_15  and  C_16
REMARK    4  A    between atoms: C_26  and  O_27
REMARK    5  A    between atoms: O_27  and  C_28
REMARK                            x       y       z     vdW  Elec       q    Type
REMARK                         _______ _______ _______ _____ _____    ______ ____
ROOT
ATOM      1  N   UNL     1      25.598  15.163  37.011  0.00  0.00    +0.000 NA
ATOM      2  C   UNL     1      25.014  15.807  38.132  0.00  0.00    +0.000 A 
ATOM      3  N   UNL     1      24.311  16.950  38.084  0.00  0.00    +0.000 NA
ATOM      4  C   UNL     1      23.770  17.536  39.166  0.00  0.00    +0.000 A 
ATOM      5  N   UNL     1      23.933  16.958  40.361  0.00  0.00    +0.000 NA
ATOM      6  C   UNL     1      24.620  15.815  40.512  0.00  0.00    +0.000 A 
ATOM      7  C   UNL     1      24.794  15.209  41.744  0.00  0.00    +0.000 A 
ATOM      8  C   UNL     1      25.516  14.041  41.778  0.00  0.00    +0.000 A 
ATOM      9  C   UNL     1      26.070  13.442  40.670  0.00  0.00    +0.000 A 
ATOM     10  C   UNL     1      25.893  14.047  39.446  0.00  0.00    +0.000 A 
ATOM     11  C   UNL     1      25.177  15.218  39.370  0.00  0.00    +0.000 A 
ENDROOT
BRANCH   1  15
ATOM     12  C   UNL     1      25.184  14.933  32.059  0.00  0.00    +0.000 C 
ATOM     13  C   UNL     1      25.215  15.692  33.329  0.00  0.00    +0.000 A 
ATOM     14  C   UNL     1      25.389  15.054  34.562  0.00  0.00    +0.000 A 
ATOM     15  C   UNL     1      25.423  15.784  35.727  0.00  0.00    +0.000 A 
ATOM     16  C   UNL     1      25.276  17.159  35.596  0.00  0.00    +0.000 A 
ATOM     17  C   UNL     1      25.107  17.795  34.412  0.00  0.00    +0.000 A 
ATOM     18  C   UNL     1      25.076  17.059  33.265  0.00  0.00    +0.000 A 
BRANCH  18  19
ATOM     19  O   UNL     1      24.903  17.725  32.066  0.00  0.00    +0.000 OA
BRANCH  19  20
ATOM     20  C   UNL     1      24.355  18.998  32.107  0.00  0.00    +0.000 A 
ATOM     21  C   UNL     1      25.103  20.131  32.339  0.00  0.00    +0.000 A 
ATOM     22  C   UNL     1      24.573  21.405  32.382  0.00  0.00    +0.000 A 
ATOM     23  C   UNL     1      23.221  21.592  32.187  0.00  0.00    +0.000 A 
ATOM     24  C   UNL     1      22.452  20.472  31.953  0.00  0.00    +0.000 A 
ATOM     25  C   UNL     1      22.988  19.202  31.910  0.00  0.00    +0.000 A 
ENDBRANCH  19  20
ENDBRANCH  18  19
ENDBRANCH   1  15
BRANCH   9  26
ATOM     26  C   UNL     1      26.823  12.195  40.798  0.00  0.00    +0.000 C 
ATOM     27  C   UNL     1      27.420  11.182  40.919  0.00  0.00    +0.000 C 
BRANCH  27  28
ATOM     28  C   UNL     1      28.180   9.841  41.103  0.00  0.00    +0.000 C 
ATOM     29  C   UNL     1      26.864   8.902  41.266  0.00  0.00    +0.000 C 
ATOM     30  C   UNL     1      26.992   8.092  42.501  0.00  0.00    +0.000 C 
ATOM     31  C   UNL     1      26.532   9.003  43.628  0.00  0.00    +0.000 C 
ATOM     32  N   UNL     1      27.180  10.287  43.323  0.00  0.00    +0.000 NA
ATOM     33  C   UNL     1      28.454  10.032  42.694  0.00  0.00    +0.000 C 
ENDBRANCH  27  28
ENDBRANCH   9  26
TORSDOF 5
ENDMDL
MODEL 4
REMARK VINA RESULT:      -8.3      1.607      2.281
REMARK  Name = 
REMARK  5 active torsions:
REMARK  status: ('A' for Active; 'I' for Inactive)
REMARK    1  A    between atoms: C_4  and  N_5
REMARK    2  A    between atoms: C_13  and  C_14
REMARK    3  A    between atoms: C_15  and  C_16
REMARK    4  A    between atoms: C_26  and  O_27
REMARK    5  A    between atoms: O_27  and  C_28
REMARK                            x       y       z     vdW  Elec       q    Type
REMARK                         _______ _______ _______ _____ _____    ______ ____
ROOT
ATOM      1  N   UNL     1      38.793   5.004  17.803  0.00  0.00    +0.000 NA
ATOM      2  C   UNL     1      38.201   5.442  16.591  0.00  0.00    +0.000 A 
ATOM      3  N   UNL     1      38.463   6.610  15.982  0.00  0.00    +0.000 NA
ATOM      4  C   UNL     1      37.884   6.997  14.833  0.00  0.00    +0.000 A 
ATOM      5  N   UNL     1      36.996   6.181  14.253  0.00  0.00    +0.000 NA
ATOM      6  C   UNL     1      36.667   4.994  14.783  0.00  0.00    +0.000 A 
ATOM      7  C   UNL     1      35.750   4.143  14.191  0.00  0.00    +0.000 A 
ATOM      8  C   UNL     1      35.490   2.952  14.824  0.00  0.00    +0.000 A 
ATOM      9  C   UNL     1      36.084   2.558  16.002  0.00  0.00    +0.000 A 
ATOM     10  C   UNL     1      36.996   3.406  16.587  0.00  0.00    +0.000 A 
ATOM     11  C   UNL     1      37.283   4.607  15.985  0.00  0.00    +0.000 A 
ENDROOT
BRANCH   1  15
ATOM     12  C   UNL     1      43.310   7.069  18.075  0.00  0.00    +0.000 C 
ATOM     13  C   UNL     1      41.927   6.894  18.571  0.00  0.00    +0.000 A 
ATOM     14  C   UNL     1      41.024   6.031  17.940  0.00  0.00    +0.000 A 
ATOM     15  C   UNL     1      39.746   5.880  18.426  0.00  0.00    +0.000 A 
ATOM     16  C   UNL     1      39.426   6.624  19.553  0.00  0.00    +0.000 A 
ATOM     17  C   UNL     1      40.285   7.465  20.179  0.00  0.00    +0.000 A 
ATOM     18  C   UNL     1      41.548   7.604  19.687  0.00  0.00    +0.000 A 
BRANCH  18  19
ATOM     19  O   UNL     1      42.411   8.466  20.337  0.00  0.00    +0.000 OA
BRANCH  19  20
ATOM     20  C   UNL     1      42.136   9.823  20.278  0.00  0.00    +0.000 A 
ATOM     21  C   UNL     1      42.115  10.536  19.099  0.00  0.00    +0.000 A 
ATOM     22  C   UNL     1      41.842  11.887  19.023  0.00  0.00    +0.000 A 
ATOM     23  C   UNL     1      41.571  12.597  20.174  0.00  0.00    +0.000 A 
ATOM     24  C   UNL     1      41.586  11.905  21.366  0.00  0.00    +0.000 A 
ATOM     25  C   UNL     1      41.859  10.555  21.435  0.00  0.00    +0.000 A 
ENDBRANCH  19  20
ENDBRANCH  18  19
ENDBRANCH   1  15
BRANCH   9  26
ATOM     26  C   UNL     1      35.749   1.269  16.607  0.00  0.00    +0.000 C 
ATOM     27  C   UNL     1      35.481   0.236  17.115  0.00  0.00    +0.000 C 
BRANCH  27  28
ATOM     28  C   UNL     1      35.129  -1.104  17.816  0.00  0.00    +0.000 C 
ATOM     29  C   UNL     1      35.864  -0.774  19.227  0.00  0.00    +0.000 C 
ATOM     30  C   UNL     1      36.780  -1.888  19.572  0.00  0.00    +0.000 C 
ATOM     31  C   UNL     1      38.058  -1.612  18.795  0.00  0.00    +0.000 C 
ATOM     32  N   UNL     1      37.577  -1.224  17.462  0.00  0.00    +0.000 NA
ATOM     33  C   UNL     1      36.361  -1.947  17.173  0.00  0.00    +0.000 C 
ENDBRANCH  27  28
ENDBRANCH   9  26
TORSDOF 5
ENDMDL
MODEL 5
REMARK VINA RESULT:      -8.2      8.257     13.309
REMARK  Name = 
REMARK  5 active torsions:
REMARK  status: ('A' for Active; 'I' for Inactive)
REMARK    1  A    between atoms: C_4  and  N_5
REMARK    2  A    between atoms: C_13  and  C_14
REMARK    3  A    between atoms: C_15  and  C_16
REMARK    4  A    between atoms: C_26  and  O_27
REMARK    5  A    between atoms: O_27  and  C_28
REMARK                            x       y       z     vdW  Elec       q    Type
REMARK                         _______ _______ _______ _____ _____    ______ ____
ROOT
ATOM      1  N   UNL     1      34.402  -5.865  14.234  0.00  0.00    +0.000 NA
ATOM      2  C   UNL     1      34.363  -7.045  15.021  0.00  0.00    +0.000 A 
ATOM      3  N   UNL     1      34.791  -7.140  16.290  0.00  0.00    +0.000 NA
ATOM      4  C   UNL     1      34.741  -8.274  17.009  0.00  0.00    +0.000 A 
ATOM      5  N   UNL     1      34.237  -9.376  16.440  0.00  0.00    +0.000 NA
ATOM      6  C   UNL     1      33.784  -9.382  15.177  0.00  0.00    +0.000 A 
ATOM      7  C   UNL     1      33.262 -10.516  14.580  0.00  0.00    +0.000 A 
ATOM      8  C   UNL     1      32.829 -10.405  13.281  0.00  0.00    +0.000 A 
ATOM      9  C   UNL     1      32.881  -9.243  12.546  0.00  0.00    +0.000 A 
ATOM     10  C   UNL     1      33.400  -8.117  13.144  0.00  0.00    +0.000 A 
ATOM     11  C   UNL     1      33.845  -8.187  14.442  0.00  0.00    +0.000 A 
ENDROOT
BRANCH   1  15
ATOM     12  C   UNL     1      38.205  -2.844  15.306  0.00  0.00    +0.000 C 
ATOM     13  C   UNL     1      36.772  -3.205  15.370  0.00  0.00    +0.000 A 
ATOM     14  C   UNL     1      36.278  -4.365  14.764  0.00  0.00    +0.000 A 
ATOM     15  C   UNL     1      34.943  -4.682  14.845  0.00  0.00    +0.000 A 
ATOM     16  C   UNL     1      34.142  -3.794  15.551  0.00  0.00    +0.000 A 
ATOM     17  C   UNL     1      34.600  -2.666  16.146  0.00  0.00    +0.000 A 
ATOM     18  C   UNL     1      35.926  -2.364  16.057  0.00  0.00    +0.000 A 
BRANCH  18  19
ATOM     19  O   UNL     1      36.375  -1.209  16.669  0.00  0.00    +0.000 OA
BRANCH  19  20
ATOM     20  C   UNL     1      35.962   0.004  16.142  0.00  0.00    +0.000 A 
ATOM     21  C   UNL     1      36.280   0.418  14.866  0.00  0.00    +0.000 A 
ATOM     22  C   UNL     1      35.876   1.622  14.327  0.00  0.00    +0.000 A 
ATOM     23  C   UNL     1      35.111   2.488  15.079  0.00  0.00    +0.000 A 
ATOM     24  C   UNL     1      34.780   2.096  16.359  0.00  0.00    +0.000 A 
ATOM     25  C   UNL     1      35.186   0.890  16.892  0.00  0.00    +0.000 A 
ENDBRANCH  19  20
ENDBRANCH  18  19
ENDBRANCH   1  15
BRANCH   9  26
ATOM     26  C   UNL     1      32.395  -9.214  11.167  0.00  0.00    +0.000 C 
ATOM     27  C   UNL     1      31.987  -9.175  10.058  0.00  0.00    +0.000 C 
BRANCH  27  28
ATOM     28  C   UNL     1      31.429  -9.098   8.611  0.00  0.00    +0.000 C 
ATOM     29  C   UNL     1      30.153 -10.075   8.851  0.00  0.00    +0.000 C 
ATOM     30  C   UNL     1      30.153 -11.139   7.818  0.00  0.00    +0.000 C 
ATOM     31  C   UNL     1      31.113 -12.199   8.334  0.00  0.00    +0.000 C 
ATOM     32  N   UNL     1      32.260 -11.420   8.821  0.00  0.00    +0.000 NA
ATOM     33  C   UNL     1      32.410 -10.242   8.001  0.00  0.00    +0.000 C 
ENDBRANCH  27  28
ENDBRANCH   9  26
TORSDOF 5
ENDMDL
MODEL 6
REMARK VINA RESULT:      -8.0     26.588     30.730
REMARK  Name = 
REMARK  5 active torsions:
REMARK  status: ('A' for Active; 'I' for Inactive)
REMARK    1  A    between atoms: C_4  and  N_5
REMARK    2  A    between atoms: C_13  and  C_14
REMARK    3  A    between atoms: C_15  and  C_16
REMARK    4  A    between atoms: C_26  and  O_27
REMARK    5  A    between atoms: O_27  and  C_28
REMARK                            x       y       z     vdW  Elec       q    Type
REMARK                         _______ _______ _______ _____ _____    ______ ____
ROOT
ATOM      1  N   UNL     1      11.580   1.858   8.070  0.00  0.00    +0.000 NA
ATOM      2  C   UNL     1      11.149   0.681   8.735  0.00  0.00    +0.000 A 
ATOM      3  N   UNL     1      10.082   0.602   9.547  0.00  0.00    +0.000 NA
ATOM      4  C   UNL     1       9.699  -0.528  10.164  0.00  0.00    +0.000 A 
ATOM      5  N   UNL     1      10.410  -1.644   9.964  0.00  0.00    +0.000 NA
ATOM      6  C   UNL     1      11.492  -1.667   9.171  0.00  0.00    +0.000 A 
ATOM      7  C   UNL     1      12.235  -2.814   8.957  0.00  0.00    +0.000 A 
ATOM      8  C   UNL     1      13.323  -2.720   8.125  0.00  0.00    +0.000 A 
ATOM      9  C   UNL     1      13.715  -1.560   7.495  0.00  0.00    +0.000 A 
ATOM     10  C   UNL     1      12.973  -0.421   7.708  0.00  0.00    +0.000 A 
ATOM     11  C   UNL     1      11.877  -0.474   8.535  0.00  0.00    +0.000 A 
ENDROOT
BRANCH   1  15
ATOM     12  C   UNL     1       8.391   5.348   6.525  0.00  0.00    +0.000 C 
ATOM     13  C   UNL     1       9.269   4.753   7.556  0.00  0.00    +0.000 A 
ATOM     14  C   UNL     1      10.000   3.585   7.312  0.00  0.00    +0.000 A 
ATOM     15  C   UNL     1      10.816   3.056   8.285  0.00  0.00    +0.000 A 
ATOM     16  C   UNL     1      10.860   3.743   9.491  0.00  0.00    +0.000 A 
ATOM     17  C   UNL     1      10.160   4.875   9.746  0.00  0.00    +0.000 A 
ATOM     18  C   UNL     1       9.356   5.388   8.773  0.00  0.00    +0.000 A 
BRANCH  18  19
ATOM     19  O   UNL     1       8.650   6.543   9.051  0.00  0.00    +0.000 OA
BRANCH  19  20
ATOM     20  C   UNL     1       7.447   6.417   9.729  0.00  0.00    +0.000 A 
ATOM     21  C   UNL     1       7.367   6.082  11.063  0.00  0.00    +0.000 A 
ATOM     22  C   UNL     1       6.178   5.953  11.753  0.00  0.00    +0.000 A 
ATOM     23  C   UNL     1       4.982   6.164  11.100  0.00  0.00    +0.000 A 
ATOM     24  C   UNL     1       5.036   6.501   9.765  0.00  0.00    +0.000 A 
ATOM     25  C   UNL     1       6.228   6.628   9.082  0.00  0.00    +0.000 A 
ENDBRANCH  19  20
ENDBRANCH  18  19
ENDBRANCH   1  15
BRANCH   9  26
ATOM     26  C   UNL     1      14.888  -1.550   6.622  0.00  0.00    +0.000 C 
ATOM     27  C   UNL     1      15.848  -1.551   5.932  0.00  0.00    +0.000 C 
BRANCH  27  28
ATOM     28  C   UNL     1      17.126  -1.573   5.051  0.00  0.00    +0.000 C 
ATOM     29  C   UNL     1      17.571  -0.035   5.330  0.00  0.00    +0.000 C 
ATOM     30  C   UNL     1      17.794   0.650   4.035  0.00  0.00    +0.000 C 
ATOM     31  C   UNL     1      16.415   1.091   3.570  0.00  0.00    +0.000 C 
ATOM     32  N   UNL     1      15.570  -0.082   3.832  0.00  0.00    +0.000 NA
ATOM     33  C   UNL     1      16.357  -1.278   3.649  0.00  0.00    +0.000 C 
ENDBRANCH  27  28
ENDBRANCH   9  26
TORSDOF 5
ENDMDL
MODEL 7
REMARK VINA RESULT:      -7.9      6.877     10.485
REMARK  Name = 
REMARK  5 active torsions:
REMARK  status: ('A' for Active; 'I' for Inactive)
REMARK    1  A    between atoms: C_4  and  N_5
REMARK    2  A    between atoms: C_13  and  C_14
REMARK    3  A    between atoms: C_15  and  C_16
REMARK    4  A    between atoms: C_26  and  O_27
REMARK    5  A    between atoms: O_27  and  C_28
REMARK                            x       y       z     vdW  Elec       q    Type
REMARK                         _______ _______ _______ _____ _____    ______ ____
ROOT
ATOM      1  N   UNL     1      38.367   0.398  13.816  0.00  0.00    +0.000 NA
ATOM      2  C   UNL     1      37.487   0.106  14.891  0.00  0.00    +0.000 A 
ATOM      3  N   UNL     1      37.507  -1.023  15.617  0.00  0.00    +0.000 NA
ATOM      4  C   UNL     1      36.659  -1.271  16.630  0.00  0.00    +0.000 A 
ATOM      5  N   UNL     1      35.741  -0.349  16.941  0.00  0.00    +0.000 NA
ATOM      6  C   UNL     1      35.641   0.810  16.274  0.00  0.00    +0.000 A 
ATOM      7  C   UNL     1      34.695   1.770  16.588  0.00  0.00    +0.000 A 
ATOM      8  C   UNL     1      34.685   2.920  15.836  0.00  0.00    +0.000 A 
ATOM      9  C   UNL     1      35.554   3.172  14.799  0.00  0.00    +0.000 A 
ATOM     10  C   UNL     1      36.494   2.215  14.490  0.00  0.00    +0.000 A 
ATOM     11  C   UNL     1      36.536   1.051  15.219  0.00  0.00    +0.000 A 
ENDROOT
BRANCH   1  15
ATOM     12  C   UNL     1      42.846  -1.685  14.399  0.00  0.00    +0.000 C 
ATOM     13  C   UNL     1      41.516  -1.618  13.754  0.00  0.00    +0.000 A 
ATOM     14  C   UNL     1      40.579  -0.638  14.103  0.00  0.00    +0.000 A 
ATOM     15  C   UNL     1      39.353  -0.592  13.482  0.00  0.00    +0.000 A 
ATOM     16  C   UNL     1      39.117  -1.559  12.514  0.00  0.00    +0.000 A 
ATOM     17  C   UNL     1      40.011  -2.515  12.161  0.00  0.00    +0.000 A 
ATOM     18  C   UNL     1      41.222  -2.548  12.784  0.00  0.00    +0.000 A 
BRANCH  18  19
ATOM     19  O   UNL     1      42.121  -3.530  12.413  0.00  0.00    +0.000 OA
BRANCH  19  20
ATOM     20  C   UNL     1      42.620  -3.495  11.120  0.00  0.00    +0.000 A 
ATOM     21  C   UNL     1      42.394  -4.494  10.198  0.00  0.00    +0.000 A 
ATOM     22  C   UNL     1      42.883  -4.473   8.908  0.00  0.00    +0.000 A 
ATOM     23  C   UNL     1      43.646  -3.406   8.482  0.00  0.00    +0.000 A 
ATOM     24  C   UNL     1      43.886  -2.394   9.386  0.00  0.00    +0.000 A 
ATOM     25  C   UNL     1      43.394  -2.421  10.674  0.00  0.00    +0.000 A 
ENDBRANCH  19  20
ENDBRANCH  18  19
ENDBRANCH   1  15
BRANCH   9  26
ATOM     26  C   UNL     1      35.473   4.426  14.051  0.00  0.00    +0.000 C 
ATOM     27  C   UNL     1      35.398   5.429  13.431  0.00  0.00    +0.000 C 
BRANCH  27  28
ATOM     28  C   UNL     1      35.276   6.731  12.593  0.00  0.00    +0.000 C 
ATOM     29  C   UNL     1      35.831   7.742  13.737  0.00  0.00    +0.000 C 
ATOM     30  C   UNL     1      34.865   8.852  13.917  0.00  0.00    +0.000 C 
ATOM     31  C   UNL     1      33.799   8.309  14.856  0.00  0.00    +0.000 C 
ATOM     32  N   UNL     1      33.532   6.961  14.335  0.00  0.00    +0.000 NA
ATOM     33  C   UNL     1      33.698   6.971  12.901  0.00  0.00    +0.000 C 
ENDBRANCH  27  28
ENDBRANCH   9  26
TORSDOF 5
ENDMDL
MODEL 8
REMARK VINA RESULT:      -7.7      3.998      6.030
REMARK  Name = 
REMARK  5 active torsions:
REMARK  status: ('A' for Active; 'I' for Inactive)
REMARK    1  A    between atoms: C_4  and  N_5
REMARK    2  A    between atoms: C_13  and  C_14
REMARK    3  A    between atoms: C_15  and  C_16
REMARK    4  A    between atoms: C_26  and  O_27
REMARK    5  A    between atoms: O_27  and  C_28
REMARK                            x       y       z     vdW  Elec       q    Type
REMARK                         _______ _______ _______ _____ _____    ______ ____
ROOT
ATOM      1  N   UNL     1      38.188   2.665  15.607  0.00  0.00    +0.000 NA
ATOM      2  C   UNL     1      37.013   1.938  15.931  0.00  0.00    +0.000 A 
ATOM      3  N   UNL     1      35.899   2.470  16.459  0.00  0.00    +0.000 NA
ATOM      4  C   UNL     1      34.801   1.755  16.756  0.00  0.00    +0.000 A 
ATOM      5  N   UNL     1      34.806   0.438  16.515  0.00  0.00    +0.000 NA
ATOM      6  C   UNL     1      35.871  -0.186  15.990  0.00  0.00    +0.000 A 
ATOM      7  C   UNL     1      35.887  -1.546  15.738  0.00  0.00    +0.000 A 
ATOM      8  C   UNL     1      37.032  -2.078  15.199  0.00  0.00    +0.000 A 
ATOM      9  C   UNL     1      38.156  -1.343  14.896  0.00  0.00    +0.000 A 
ATOM     10  C   UNL     1      38.137   0.010  15.147  0.00  0.00    +0.000 A 
ATOM     11  C   UNL     1      37.009   0.579  15.687  0.00  0.00    +0.000 A 
ENDROOT
BRANCH   1  15
ATOM     12  C   UNL     1      36.975   7.330  14.382  0.00  0.00    +0.000 C 
ATOM     13  C   UNL     1      37.599   6.344  15.291  0.00  0.00    +0.000 A 
ATOM     14  C   UNL     1      37.587   4.973  15.009  0.00  0.00    +0.000 A 
ATOM     15  C   UNL     1      38.183   4.078  15.866  0.00  0.00    +0.000 A 
ATOM     16  C   UNL     1      38.778   4.615  16.999  0.00  0.00    +0.000 A 
ATOM     17  C   UNL     1      38.801   5.938  17.292  0.00  0.00    +0.000 A 
ATOM     18  C   UNL     1      38.207   6.814  16.433  0.00  0.00    +0.000 A 
BRANCH  18  19
ATOM     19  O   UNL     1      38.240   8.160  16.747  0.00  0.00    +0.000 OA
BRANCH  19  20
ATOM     20  C   UNL     1      38.364   8.509  18.082  0.00  0.00    +0.000 A 
ATOM     21  C   UNL     1      37.309   8.486  18.968  0.00  0.00    +0.000 A 
ATOM     22  C   UNL     1      37.417   8.830  20.300  0.00  0.00    +0.000 A 
ATOM     23  C   UNL     1      38.636   9.226  20.809  0.00  0.00    +0.000 A 
ATOM     24  C   UNL     1      39.706   9.258  19.942  0.00  0.00    +0.000 A 
ATOM     25  C   UNL     1      39.592   8.912  18.612  0.00  0.00    +0.000 A 
ENDBRANCH  19  20
ENDBRANCH  18  19
ENDBRANCH   1  15
BRANCH   9  26
ATOM     26  C   UNL     1      39.335  -1.992  14.322  0.00  0.00    +0.000 C 
ATOM     27  C   UNL     1      40.286  -2.502  13.841  0.00  0.00    +0.000 C 
BRANCH  27  28
ATOM     28  C   UNL     1      41.538  -3.145  13.184  0.00  0.00    +0.000 C 
ATOM     29  C   UNL     1      42.626  -2.111  13.807  0.00  0.00    +0.000 C 
ATOM     30  C   UNL     1      43.461  -1.563  12.710  0.00  0.00    +0.000 C 
ATOM     31  C   UNL     1      42.650  -0.419  12.122  0.00  0.00    +0.000 C 
ATOM     32  N   UNL     1      41.291  -0.970  12.028  0.00  0.00    +0.000 NA
ATOM     33  C   UNL     1      41.376  -2.385  11.756  0.00  0.00    +0.000 C 
ENDBRANCH  27  28
ENDBRANCH   9  26
TORSDOF 5
ENDMDL
MODEL 9
REMARK VINA RESULT:      -7.7      3.435      9.905
REMARK  Name = 
REMARK  5 active torsions:
REMARK  status: ('A' for Active; 'I' for Inactive)
REMARK    1  A    between atoms: C_4  and  N_5
REMARK    2  A    between atoms: C_13  and  C_14
REMARK    3  A    between atoms: C_15  and  C_16
REMARK    4  A    between atoms: C_26  and  O_27
REMARK    5  A    between atoms: O_27  and  C_28
REMARK                            x       y       z     vdW  Elec       q    Type
REMARK                         _______ _______ _______ _____ _____    ______ ____
ROOT
ATOM      1  N   UNL     1      38.080   2.388  15.652  0.00  0.00    +0.000 NA
ATOM      2  C   UNL     1      37.330   3.491  15.169  0.00  0.00    +0.000 A 
ATOM      3  N   UNL     1      36.182   3.400  14.479  0.00  0.00    +0.000 NA
ATOM      4  C   UNL     1      35.494   4.465  14.033  0.00  0.00    +0.000 A 
ATOM      5  N   UNL     1      35.970   5.690  14.287  0.00  0.00    +0.000 NA
ATOM      6  C   UNL     1      37.109   5.885  14.968  0.00  0.00    +0.000 A 
ATOM      7  C   UNL     1      37.609   7.147  15.235  0.00  0.00    +0.000 A 
ATOM      8  C   UNL     1      38.785   7.227  15.940  0.00  0.00    +0.000 A 
ATOM      9  C   UNL     1      39.488   6.135  16.395  0.00  0.00    +0.000 A 
ATOM     10  C   UNL     1      38.987   4.881  16.129  0.00  0.00    +0.000 A 
ATOM     11  C   UNL     1      37.813   4.759  15.425  0.00  0.00    +0.000 A 
ENDROOT
BRANCH   1  15
ATOM     12  C   UNL     1      38.035  -1.826  13.010  0.00  0.00    +0.000 C 
ATOM     13  C   UNL     1      37.536  -0.977  14.115  0.00  0.00    +0.000 A 
ATOM     14  C   UNL     1      38.056   0.300  14.351  0.00  0.00    +0.000 A 
ATOM     15  C   UNL     1      37.570   1.073  15.380  0.00  0.00    +0.000 A 
ATOM     16  C   UNL     1      36.556   0.511  16.144  0.00  0.00    +0.000 A 
ATOM     17  C   UNL     1      36.039  -0.723  15.932  0.00  0.00    +0.000 A 
ATOM     18  C   UNL     1      36.530  -1.478  14.909  0.00  0.00    +0.000 A 
BRANCH  18  19
ATOM     19  O   UNL     1      35.992  -2.735  14.707  0.00  0.00    +0.000 OA
BRANCH  19  20
ATOM     20  C   UNL     1      36.458  -3.773  15.498  0.00  0.00    +0.000 A 
ATOM     21  C   UNL     1      37.680  -3.744  16.133  0.00  0.00    +0.000 A 
ATOM     22  C   UNL     1      38.158  -4.769  16.925  0.00  0.00    +0.000 A 
ATOM     23  C   UNL     1      37.396  -5.903  17.111  0.00  0.00    +0.000 A 
ATOM     24  C   UNL     1      36.170  -5.955  16.485  0.00  0.00    +0.000 A 
ATOM     25  C   UNL     1      35.697  -4.927  15.696  0.00  0.00    +0.000 A 
ENDBRANCH  19  20
ENDBRANCH  18  19
ENDBRANCH   1  15
BRANCH   9  26
ATOM     26  C   UNL     1      40.733   6.312  17.142  0.00  0.00    +0.000 C 
ATOM     27  C   UNL     1      41.728   6.453  17.764  0.00  0.00    +0.000 C 
BRANCH  27  28
ATOM     28  C   UNL     1      43.016   6.631  18.612  0.00  0.00    +0.000 C 
ATOM     29  C   UNL     1      42.283   6.647  20.063  0.00  0.00    +0.000 C 
ATOM     30  C   UNL     1      42.717   7.849  20.815  0.00  0.00    +0.000 C 
ATOM     31  C   UNL     1      41.834   8.979  20.311  0.00  0.00    +0.000 C 
ATOM     32  N   UNL     1      41.823   8.787  18.854  0.00  0.00    +0.000 NA
ATOM     33  C   UNL     1      43.096   8.246  18.442  0.00  0.00    +0.000 C 
ENDBRANCH  27  28
ENDBRANCH   9  26
TORSDOF 5
ENDMDL
MODEL 10
REMARK VINA RESULT:      -7.7     25.563     27.649
REMARK  Name = 
REMARK  5 active torsions:
REMARK  status: ('A' for Active; 'I' for Inactive)
REMARK    1  A    between atoms: C_4  and  N_5
REMARK    2  A    between atoms: C_13  and  C_14
REMARK    3  A    between atoms: C_15  and  C_16
REMARK    4  A    between atoms: C_26  and  O_27
REMARK    5  A    between atoms: O_27  and  C_28
REMARK                            x       y       z     vdW  Elec       q    Type
REMARK                         _______ _______ _______ _____ _____    ______ ____
ROOT
ATOM      1  N   UNL     1      26.880  12.705  40.180  0.00  0.00    +0.000 NA
ATOM      2  C   UNL     1      25.841  13.436  40.812  0.00  0.00    +0.000 A 
ATOM      3  N   UNL     1      25.359  13.186  42.040  0.00  0.00    +0.000 NA
ATOM      4  C   UNL     1      24.373  13.898  42.611  0.00  0.00    +0.000 A 
ATOM      5  N   UNL     1      23.834  14.916  41.929  0.00  0.00    +0.000 NA
ATOM      6  C   UNL     1      24.247  15.243  40.695  0.00  0.00    +0.000 A 
ATOM      7  C   UNL     1      23.697  16.293  39.981  0.00  0.00    +0.000 A 
ATOM      8  C   UNL     1      24.198  16.537  38.726  0.00  0.00    +0.000 A 
ATOM      9  C   UNL     1      25.208  15.807  38.142  0.00  0.00    +0.000 A 
ATOM     10  C   UNL     1      25.754  14.764  38.856  0.00  0.00    +0.000 A 
ATOM     11  C   UNL     1      25.279  14.487  40.115  0.00  0.00    +0.000 A 
ENDROOT
BRANCH   1  15
ATOM     12  C   UNL     1      26.883   7.964  41.687  0.00  0.00    +0.000 C 
ATOM     13  C   UNL     1      27.479   9.318  41.650  0.00  0.00    +0.000 A 
ATOM     14  C   UNL     1      26.889  10.360  40.925  0.00  0.00    +0.000 A 
ATOM     15  C   UNL     1      27.458  11.612  40.914  0.00  0.00    +0.000 A 
ATOM     16  C   UNL     1      28.625  11.764  41.649  0.00  0.00    +0.000 A 
ATOM     17  C   UNL     1      29.212  10.769  42.357  0.00  0.00    +0.000 A 
ATOM     18  C   UNL     1      28.637   9.533  42.360  0.00  0.00    +0.000 A 
BRANCH  18  19
ATOM     19  O   UNL     1      29.249   8.529  43.088  0.00  0.00    +0.000 OA
BRANCH  19  20
ATOM     20  C   UNL     1      29.181   8.599  44.470  0.00  0.00    +0.000 A 
ATOM     21  C   UNL     1      27.992   8.577  45.166  0.00  0.00    +0.000 A 
ATOM     22  C   UNL     1      27.906   8.645  46.542  0.00  0.00    +0.000 A 
ATOM     23  C   UNL     1      29.057   8.742  47.296  0.00  0.00    +0.000 A 
ATOM     24  C   UNL     1      30.259   8.765  46.622  0.00  0.00    +0.000 A 
ATOM     25  C   UNL     1      30.337   8.697  45.246  0.00  0.00    +0.000 A 
ENDBRANCH  19  20
ENDBRANCH  18  19
ENDBRANCH   1  15
BRANCH   9  26
ATOM     26  C   UNL     1      25.684  16.138  36.799  0.00  0.00    +0.000 C 
ATOM     27  C   UNL     1      26.048  16.410  35.708  0.00  0.00    +0.000 C 
BRANCH  27  28
ATOM     28  C   UNL     1      26.492  16.781  34.267  0.00  0.00    +0.000 C 
ATOM     29  C   UNL     1      25.019  16.682  33.587  0.00  0.00    +0.000 C 
ATOM     30  C   UNL     1      25.088  15.795  32.401  0.00  0.00    +0.000 C 
ATOM     31  C   UNL     1      24.975  14.381  32.950  0.00  0.00    +0.000 C 
ATOM     32  N   UNL     1      25.866  14.390  34.118  0.00  0.00    +0.000 NA
ATOM     33  C   UNL     1      26.971  15.282  33.859  0.00  0.00    +0.000 C 
ENDBRANCH  27  28
ENDBRANCH   9  26
TORSDOF 5
ENDMDL
