MODEL 1
REMARK VINA RESULT:      -8.0      0.000      0.000
REMARK  Name = 
REMARK  8 active torsions:
REMARK  status: ('A' for Active; 'I' for Inactive)
REMARK    1  A    between atoms: O_2  and  C_3
REMARK    2  A    between atoms: C_6  and  C_7
REMARK    3  A    between atoms: C_7  and  C_8
REMARK    4  A    between atoms: C_8  and  N_9
REMARK    5  A    between atoms: C_10  and  C_12
REMARK    6  A    between atoms: C_12  and  N_19
REMARK    7  A    between atoms: C_13  and  C_14
REMARK    8  A    between atoms: C_20  and  C_22
REMARK                            x       y       z     vdW  Elec       q    Type
REMARK                         _______ _______ _______ _____ _____    ______ ____
ROOT
ATOM      1  C   UNL     1      37.961   3.758  15.771  0.00  0.00    +0.000 C 
ATOM      2  C   UNL     1      38.944   3.328  15.074  0.00  0.00    +0.000 C 
ENDROOT
BRANCH   2   3
ATOM      3  C   UNL     1      38.999   2.111  14.291  0.00  0.00    +0.000 A 
ATOM      4  C   UNL     1      39.678   0.943  14.466  0.00  0.00    +0.000 A 
ATOM      5  C   UNL     1      39.540  -0.027  13.579  0.00  0.00    +0.000 A 
ATOM      6  C   UNL     1      38.713   0.190  12.515  0.00  0.00    +0.000 A 
ATOM      7  S   UNL     1      38.152   1.768  12.803  0.00  0.00    +0.000 S 
ENDBRANCH   2   3
BRANCH   1   9
ATOM      8  N   UNL     1      36.364   2.015  16.742  0.00  0.00    +0.000 NA
ATOM      9  C   UNL     1      36.709   3.055  15.874  0.00  0.00    +0.000 C 
ATOM     10  O   UNL     1      35.780   3.420  15.071  0.00  0.00    +0.000 OA
BRANCH   8  11
ATOM     11  C   UNL     1      35.053   1.375  16.756  0.00  0.00    +0.000 C 
BRANCH  11  12
ATOM     12  C   UNL     1      35.066   0.049  17.446  0.00  0.00    +0.000 C 
BRANCH  12  16
ATOM     13  C   UNL     1      38.464  -2.383  16.792  0.00  0.00    +0.000 A 
ATOM     14  C   UNL     1      37.671  -2.073  15.712  0.00  0.00    +0.000 A 
ATOM     15  C   UNL     1      36.543  -1.273  15.897  0.00  0.00    +0.000 A 
ATOM     16  C   UNL     1      36.225  -0.798  17.156  0.00  0.00    +0.000 A 
ATOM     17  C   UNL     1      37.041  -1.123  18.241  0.00  0.00    +0.000 A 
ATOM     18  C   UNL     1      38.137  -1.907  18.020  0.00  0.00    +0.000 A 
BRANCH  13  20
ATOM     19  C   UNL     1      40.373  -3.124  15.469  0.00  0.00    +0.000 C 
ATOM     20  O   UNL     1      39.591  -3.172  16.647  0.00  0.00    +0.000 OA
ENDBRANCH  13  20
ENDBRANCH  12  16
ENDBRANCH  11  12
ENDBRANCH   8  11
ENDBRANCH   1   9
BRANCH   1  21
ATOM     21  N   UNL     1      38.137   5.023  16.486  0.00  0.00    +0.000 NA
ATOM     22  C   UNL     1      38.492   5.037  17.854  0.00  0.00    +0.000 C 
ATOM     23  O   UNL     1      38.650   3.940  18.439  0.00  0.00    +0.000 OA
BRANCH  22  24
ATOM     24  C   UNL     1      38.681   6.268  18.605  0.00  0.00    +0.000 A 
ATOM     25  C   UNL     1      39.701   6.295  19.556  0.00  0.00    +0.000 A 
ATOM     26  C   UNL     1      39.885   7.446  20.259  0.00  0.00    +0.000 A 
ATOM     27  C   UNL     1      39.101   8.555  20.052  0.00  0.00    +0.000 A 
ATOM     28  C   UNL     1      39.314   9.816  20.834  0.00  0.00    +0.000 C 
ATOM     29  C   UNL     1      38.089   8.525  19.106  0.00  0.00    +0.000 A 
ATOM     30  C   UNL     1      37.217   9.728  18.858  0.00  0.00    +0.000 C 
ATOM     31  C   UNL     1      37.885   7.379  18.387  0.00  0.00    +0.000 A 
ENDBRANCH  22  24
ENDBRANCH   1  21
TORSDOF 8
ENDMDL
MODEL 2
REMARK VINA RESULT:      -7.6      1.715      2.474
REMARK  Name = 
REMARK  8 active torsions:
REMARK  status: ('A' for Active; 'I' for Inactive)
REMARK    1  A    between atoms: O_2  and  C_3
REMARK    2  A    between atoms: C_6  and  C_7
REMARK    3  A    between atoms: C_7  and  C_8
REMARK    4  A    between atoms: C_8  and  N_9
REMARK    5  A    between atoms: C_10  and  C_12
REMARK    6  A    between atoms: C_12  and  N_19
REMARK    7  A    between atoms: C_13  and  C_14
REMARK    8  A    between atoms: C_20  and  C_22
REMARK                            x       y       z     vdW  Elec       q    Type
REMARK                         _______ _______ _______ _____ _____    ______ ____
ROOT
ATOM      1  C   UNL     1      38.271   3.674  15.751  0.00  0.00    +0.000 C 
ATOM      2  C   UNL     1      39.127   3.136  14.967  0.00  0.00    +0.000 C 
ENDROOT
BRANCH   2   3
ATOM      3  C   UNL     1      38.963   1.932  14.180  0.00  0.00    +0.000 A 
ATOM      4  C   UNL     1      38.339   1.695  12.992  0.00  0.00    +0.000 A 
ATOM      5  C   UNL     1      38.344   0.474  12.489  0.00  0.00    +0.000 A 
ATOM      6  C   UNL     1      38.982  -0.507  13.192  0.00  0.00    +0.000 A 
ATOM      7  S   UNL     1      39.559   0.334  14.552  0.00  0.00    +0.000 S 
ENDBRANCH   2   3
BRANCH   1   9
ATOM      8  N   UNL     1      36.587   2.035  16.758  0.00  0.00    +0.000 NA
ATOM      9  C   UNL     1      36.957   3.126  15.966  0.00  0.00    +0.000 C 
ATOM     10  O   UNL     1      35.989   3.704  15.358  0.00  0.00    +0.000 OA
BRANCH   8  11
ATOM     11  C   UNL     1      35.212   1.568  16.901  0.00  0.00    +0.000 C 
BRANCH  11  12
ATOM     12  C   UNL     1      35.120   0.251  17.602  0.00  0.00    +0.000 C 
BRANCH  12  16
ATOM     13  C   UNL     1      35.244  -3.237  15.213  0.00  0.00    +0.000 A 
ATOM     14  C   UNL     1      36.101  -2.207  14.902  0.00  0.00    +0.000 A 
ATOM     15  C   UNL     1      36.083  -1.044  15.672  0.00  0.00    +0.000 A 
ATOM     16  C   UNL     1      35.209  -0.928  16.738  0.00  0.00    +0.000 A 
ATOM     17  C   UNL     1      34.346  -1.983  17.039  0.00  0.00    +0.000 A 
ATOM     18  C   UNL     1      34.394  -3.105  16.263  0.00  0.00    +0.000 A 
BRANCH  13  20
ATOM     19  C   UNL     1      34.164  -5.325  14.569  0.00  0.00    +0.000 C 
ATOM     20  O   UNL     1      35.235  -4.406  14.473  0.00  0.00    +0.000 OA
ENDBRANCH  13  20
ENDBRANCH  12  16
ENDBRANCH  11  12
ENDBRANCH   8  11
ENDBRANCH   1   9
BRANCH   1  21
ATOM     21  N   UNL     1      38.663   4.899  16.450  0.00  0.00    +0.000 NA
ATOM     22  C   UNL     1      38.755   4.929  17.860  0.00  0.00    +0.000 C 
ATOM     23  O   UNL     1      38.490   3.882  18.496  0.00  0.00    +0.000 OA
BRANCH  22  24
ATOM     24  C   UNL     1      39.144   6.121  18.597  0.00  0.00    +0.000 A 
ATOM     25  C   UNL     1      38.243   7.185  18.629  0.00  0.00    +0.000 A 
ATOM     26  C   UNL     1      38.600   8.301  19.320  0.00  0.00    +0.000 A 
ATOM     27  C   UNL     1      39.806   8.394  19.972  0.00  0.00    +0.000 A 
ATOM     28  C   UNL     1      40.188   9.631  20.730  0.00  0.00    +0.000 C 
ATOM     29  C   UNL     1      40.699   7.336  19.939  0.00  0.00    +0.000 A 
ATOM     30  C   UNL     1      42.026   7.412  20.647  0.00  0.00    +0.000 C 
ATOM     31  C   UNL     1      40.362   6.203  19.250  0.00  0.00    +0.000 A 
ENDBRANCH  22  24
ENDBRANCH   1  21
TORSDOF 8
ENDMDL
MODEL 3
REMARK VINA RESULT:      -7.4      2.374      9.172
REMARK  Name = 
REMARK  8 active torsions:
REMARK  status: ('A' for Active; 'I' for Inactive)
REMARK    1  A    between atoms: O_2  and  C_3
REMARK    2  A    between atoms: C_6  and  C_7
REMARK    3  A    between atoms: C_7  and  C_8
REMARK    4  A    between atoms: C_8  and  N_9
REMARK    5  A    between atoms: C_10  and  C_12
REMARK    6  A    between atoms: C_12  and  N_19
REMARK    7  A    between atoms: C_13  and  C_14
REMARK    8  A    between atoms: C_20  and  C_22
REMARK                            x       y       z     vdW  Elec       q    Type
REMARK                         _______ _______ _______ _____ _____    ______ ____
ROOT
ATOM      1  C   UNL     1      36.891   2.151  15.549  0.00  0.00    +0.000 C 
ATOM      2  C   UNL     1      36.093   2.480  14.604  0.00  0.00    +0.000 C 
ENDROOT
BRANCH   2   3
ATOM      3  C   UNL     1      35.951   3.783  13.989  0.00  0.00    +0.000 A 
ATOM      4  C   UNL     1      35.109   4.824  14.240  0.00  0.00    +0.000 A 
ATOM      5  C   UNL     1      35.200   5.922  13.512  0.00  0.00    +0.000 A 
ATOM      6  C   UNL     1      36.145   5.963  12.528  0.00  0.00    +0.000 A 
ATOM      7  S   UNL     1      36.881   4.437  12.665  0.00  0.00    +0.000 S 
ENDBRANCH   2   3
BRANCH   1   9
ATOM      8  N   UNL     1      37.647   3.812  17.339  0.00  0.00    +0.000 NA
ATOM      9  C   UNL     1      37.806   3.080  16.158  0.00  0.00    +0.000 C 
ATOM     10  O   UNL     1      38.916   3.272  15.549  0.00  0.00    +0.000 OA
BRANCH   8  11
ATOM     11  C   UNL     1      38.651   4.730  17.863  0.00  0.00    +0.000 C 
BRANCH  11  12
ATOM     12  C   UNL     1      38.398   6.149  17.469  0.00  0.00    +0.000 C 
BRANCH  12  16
ATOM     13  C   UNL     1      38.431   9.071  20.527  0.00  0.00    +0.000 A 
ATOM     14  C   UNL     1      39.241   7.969  20.673  0.00  0.00    +0.000 A 
ATOM     15  C   UNL     1      39.251   6.988  19.682  0.00  0.00    +0.000 A 
ATOM     16  C   UNL     1      38.451   7.123  18.561  0.00  0.00    +0.000 A 
ATOM     17  C   UNL     1      37.635   8.248  18.429  0.00  0.00    +0.000 A 
ATOM     18  C   UNL     1      37.653   9.186  19.420  0.00  0.00    +0.000 A 
BRANCH  13  20
ATOM     19  C   UNL     1      38.816  11.383  21.197  0.00  0.00    +0.000 C 
ATOM     20  O   UNL     1      38.395  10.064  21.489  0.00  0.00    +0.000 OA
ENDBRANCH  13  20
ENDBRANCH  12  16
ENDBRANCH  11  12
ENDBRANCH   8  11
ENDBRANCH   1   9
BRANCH   1  21
ATOM     21  N   UNL     1      36.856   0.763  16.016  0.00  0.00    +0.000 NA
ATOM     22  C   UNL     1      37.725  -0.206  15.467  0.00  0.00    +0.000 C 
ATOM     23  O   UNL     1      38.525   0.151  14.569  0.00  0.00    +0.000 OA
BRANCH  22  24
ATOM     24  C   UNL     1      37.730  -1.594  15.901  0.00  0.00    +0.000 A 
ATOM     25  C   UNL     1      37.226  -2.550  15.019  0.00  0.00    +0.000 A 
ATOM     26  C   UNL     1      37.231  -3.850  15.420  0.00  0.00    +0.000 A 
ATOM     27  C   UNL     1      37.713  -4.228  16.650  0.00  0.00    +0.000 A 
ATOM     28  C   UNL     1      37.712  -5.665  17.079  0.00  0.00    +0.000 C 
ATOM     29  C   UNL     1      38.213  -3.277  17.524  0.00  0.00    +0.000 A 
ATOM     30  C   UNL     1      38.749  -3.665  18.877  0.00  0.00    +0.000 C 
ATOM     31  C   UNL     1      38.218  -1.962  17.143  0.00  0.00    +0.000 A 
ENDBRANCH  22  24
ENDBRANCH   1  21
TORSDOF 8
ENDMDL
MODEL 4
REMARK VINA RESULT:      -7.4      2.638      8.553
REMARK  Name = 
REMARK  8 active torsions:
REMARK  status: ('A' for Active; 'I' for Inactive)
REMARK    1  A    between atoms: O_2  and  C_3
REMARK    2  A    between atoms: C_6  and  C_7
REMARK    3  A    between atoms: C_7  and  C_8
REMARK    4  A    between atoms: C_8  and  N_9
REMARK    5  A    between atoms: C_10  and  C_12
REMARK    6  A    between atoms: C_12  and  N_19
REMARK    7  A    between atoms: C_13  and  C_14
REMARK    8  A    between atoms: C_20  and  C_22
REMARK                            x       y       z     vdW  Elec       q    Type
REMARK                         _______ _______ _______ _____ _____    ______ ____
ROOT
ATOM      1  C   UNL     1      37.158   2.829  15.221  0.00  0.00    +0.000 C 
ATOM      2  C   UNL     1      36.317   3.043  14.281  0.00  0.00    +0.000 C 
ENDROOT
BRANCH   2   3
ATOM      3  C   UNL     1      35.764   4.317  13.871  0.00  0.00    +0.000 A 
ATOM      4  C   UNL     1      34.765   5.087  14.387  0.00  0.00    +0.000 A 
ATOM      5  C   UNL     1      34.460   6.232  13.802  0.00  0.00    +0.000 A 
ATOM      6  C   UNL     1      35.169   6.593  12.692  0.00  0.00    +0.000 A 
ATOM      7  S   UNL     1      36.251   5.296  12.510  0.00  0.00    +0.000 S 
ENDBRANCH   2   3
BRANCH   1   9
ATOM      8  N   UNL     1      38.361   5.046  15.638  0.00  0.00    +0.000 NA
ATOM      9  C   UNL     1      37.698   3.883  16.041  0.00  0.00    +0.000 C 
ATOM     10  O   UNL     1      37.559   3.751  17.307  0.00  0.00    +0.000 OA
BRANCH   8  11
ATOM     11  C   UNL     1      38.867   6.051  16.567  0.00  0.00    +0.000 C 
BRANCH  11  12
ATOM     12  C   UNL     1      40.360   6.117  16.588  0.00  0.00    +0.000 C 
BRANCH  12  16
ATOM     13  C   UNL     1      42.268   6.599  20.332  0.00  0.00    +0.000 A 
ATOM     14  C   UNL     1      40.917   6.342  20.321  0.00  0.00    +0.000 A 
ATOM     15  C   UNL     1      40.260   6.179  19.101  0.00  0.00    +0.000 A 
ATOM     16  C   UNL     1      40.962   6.277  17.914  0.00  0.00    +0.000 A 
ATOM     17  C   UNL     1      42.333   6.539  17.944  0.00  0.00    +0.000 A 
ATOM     18  C   UNL     1      42.941   6.691  19.157  0.00  0.00    +0.000 A 
BRANCH  13  20
ATOM     19  C   UNL     1      44.092   5.984  21.828  0.00  0.00    +0.000 C 
ATOM     20  O   UNL     1      42.953   6.766  21.522  0.00  0.00    +0.000 OA
ENDBRANCH  13  20
ENDBRANCH  12  16
ENDBRANCH  11  12
ENDBRANCH   8  11
ENDBRANCH   1   9
BRANCH   1  21
ATOM     21  N   UNL     1      37.576   1.446  15.458  0.00  0.00    +0.000 NA
ATOM     22  C   UNL     1      36.715   0.531  16.105  0.00  0.00    +0.000 C 
ATOM     23  O   UNL     1      35.586   0.934  16.473  0.00  0.00    +0.000 OA
BRANCH  22  24
ATOM     24  C   UNL     1      37.086  -0.852  16.359  0.00  0.00    +0.000 A 
ATOM     25  C   UNL     1      36.154  -1.663  17.006  0.00  0.00    +0.000 A 
ATOM     26  C   UNL     1      36.494  -2.959  17.242  0.00  0.00    +0.000 A 
ATOM     27  C   UNL     1      37.712  -3.469  16.863  0.00  0.00    +0.000 A 
ATOM     28  C   UNL     1      38.075  -4.900  17.131  0.00  0.00    +0.000 C 
ATOM     29  C   UNL     1      38.636  -2.661  16.221  0.00  0.00    +0.000 A 
ATOM     30  C   UNL     1      39.977  -3.197  15.793  0.00  0.00    +0.000 C 
ATOM     31  C   UNL     1      38.316  -1.354  15.972  0.00  0.00    +0.000 A 
ENDBRANCH  22  24
ENDBRANCH   1  21
TORSDOF 8
ENDMDL
MODEL 5
REMARK VINA RESULT:      -7.3      4.288      5.693
REMARK  Name = 
REMARK  8 active torsions:
REMARK  status: ('A' for Active; 'I' for Inactive)
REMARK    1  A    between atoms: O_2  and  C_3
REMARK    2  A    between atoms: C_6  and  C_7
REMARK    3  A    between atoms: C_7  and  C_8
REMARK    4  A    between atoms: C_8  and  N_9
REMARK    5  A    between atoms: C_10  and  C_12
REMARK    6  A    between atoms: C_12  and  N_19
REMARK    7  A    between atoms: C_13  and  C_14
REMARK    8  A    between atoms: C_20  and  C_22
REMARK                            x       y       z     vdW  Elec       q    Type
REMARK                         _______ _______ _______ _____ _____    ______ ____
ROOT
ATOM      1  C   UNL     1      35.712   1.685  15.221  0.00  0.00    +0.000 C 
ATOM      2  C   UNL     1      35.148   1.474  16.350  0.00  0.00    +0.000 C 
ENDROOT
BRANCH   2   3
ATOM      3  C   UNL     1      35.477   0.447  17.317  0.00  0.00    +0.000 A 
ATOM      4  C   UNL     1      36.106   0.498  18.524  0.00  0.00    +0.000 A 
ATOM      5  C   UNL     1      36.275  -0.615  19.215  0.00  0.00    +0.000 A 
ATOM      6  C   UNL     1      35.806  -1.780  18.679  0.00  0.00    +0.000 A 
ATOM      7  S   UNL     1      35.136  -1.261  17.206  0.00  0.00    +0.000 S 
ENDBRANCH   2   3
BRANCH   1   9
ATOM      8  N   UNL     1      36.787  -0.136  13.785  0.00  0.00    +0.000 NA
ATOM      9  C   UNL     1      36.809   0.890  14.735  0.00  0.00    +0.000 C 
ATOM     10  O   UNL     1      37.963   1.145  15.228  0.00  0.00    +0.000 OA
BRANCH   8  11
ATOM     11  C   UNL     1      37.972  -0.877  13.367  0.00  0.00    +0.000 C 
BRANCH  11  12
ATOM     12  C   UNL     1      37.813  -2.355  13.521  0.00  0.00    +0.000 C 
BRANCH  12  16
ATOM     13  C   UNL     1      38.368  -3.987  17.383  0.00  0.00    +0.000 A 
ATOM     14  C   UNL     1      39.112  -2.885  17.031  0.00  0.00    +0.000 A 
ATOM     15  C   UNL     1      38.952  -2.325  15.764  0.00  0.00    +0.000 A 
ATOM     16  C   UNL     1      38.051  -2.875  14.869  0.00  0.00    +0.000 A 
ATOM     17  C   UNL     1      37.305  -3.993  15.242  0.00  0.00    +0.000 A 
ATOM     18  C   UNL     1      37.489  -4.512  16.492  0.00  0.00    +0.000 A 
BRANCH  13  20
ATOM     19  C   UNL     1      38.905  -3.810  19.754  0.00  0.00    +0.000 C 
ATOM     20  O   UNL     1      38.499  -4.568  18.631  0.00  0.00    +0.000 OA
ENDBRANCH  13  20
ENDBRANCH  12  16
ENDBRANCH  11  12
ENDBRANCH   8  11
ENDBRANCH   1   9
BRANCH   1  21
ATOM     21  N   UNL     1      35.204   2.788  14.403  0.00  0.00    +0.000 NA
ATOM     22  C   UNL     1      35.825   4.057  14.435  0.00  0.00    +0.000 C 
ATOM     23  O   UNL     1      36.819   4.215  15.183  0.00  0.00    +0.000 OA
BRANCH  22  24
ATOM     24  C   UNL     1      35.358   5.181  13.638  0.00  0.00    +0.000 A 
ATOM     25  C   UNL     1      34.323   5.957  14.157  0.00  0.00    +0.000 A 
ATOM     26  C   UNL     1      33.885   7.011  13.417  0.00  0.00    +0.000 A 
ATOM     27  C   UNL     1      34.434   7.317  12.195  0.00  0.00    +0.000 A 
ATOM     28  C   UNL     1      33.941   8.481  11.389  0.00  0.00    +0.000 C 
ATOM     29  C   UNL     1      35.463   6.544  11.682  0.00  0.00    +0.000 A 
ATOM     30  C   UNL     1      36.083   6.859  10.346  0.00  0.00    +0.000 C 
ATOM     31  C   UNL     1      35.920   5.478  12.408  0.00  0.00    +0.000 A 
ENDBRANCH  22  24
ENDBRANCH   1  21
TORSDOF 8
ENDMDL
MODEL 6
REMARK VINA RESULT:      -7.3      2.687      8.690
REMARK  Name = 
REMARK  8 active torsions:
REMARK  status: ('A' for Active; 'I' for Inactive)
REMARK    1  A    between atoms: O_2  and  C_3
REMARK    2  A    between atoms: C_6  and  C_7
REMARK    3  A    between atoms: C_7  and  C_8
REMARK    4  A    between atoms: C_8  and  N_9
REMARK    5  A    between atoms: C_10  and  C_12
REMARK    6  A    between atoms: C_12  and  N_19
REMARK    7  A    between atoms: C_13  and  C_14
REMARK    8  A    between atoms: C_20  and  C_22
REMARK                            x       y       z     vdW  Elec       q    Type
REMARK                         _______ _______ _______ _____ _____    ______ ____
ROOT
ATOM      1  C   UNL     1      36.724   1.843  15.169  0.00  0.00    +0.000 C 
ATOM      2  C   UNL     1      36.503   2.130  13.941  0.00  0.00    +0.000 C 
ENDROOT
BRANCH   2   3
ATOM      3  C   UNL     1      36.522   3.441  13.329  0.00  0.00    +0.000 A 
ATOM      4  C   UNL     1      37.226   3.948  12.278  0.00  0.00    +0.000 A 
ATOM      5  C   UNL     1      37.043   5.207  11.921  0.00  0.00    +0.000 A 
ATOM      6  C   UNL     1      36.147   5.951  12.633  0.00  0.00    +0.000 A 
ATOM      7  S   UNL     1      35.586   4.841  13.790  0.00  0.00    +0.000 S 
ENDBRANCH   2   3
BRANCH   1   9
ATOM      8  N   UNL     1      38.231   3.557  16.320  0.00  0.00    +0.000 NA
ATOM      9  C   UNL     1      37.042   2.840  16.158  0.00  0.00    +0.000 C 
ATOM     10  O   UNL     1      36.125   3.115  17.008  0.00  0.00    +0.000 OA
BRANCH   8  11
ATOM     11  C   UNL     1      38.440   4.551  17.367  0.00  0.00    +0.000 C 
BRANCH  11  12
ATOM     12  C   UNL     1      39.419   5.609  16.972  0.00  0.00    +0.000 C 
BRANCH  12  16
ATOM     13  C   UNL     1      42.289   6.781  19.850  0.00  0.00    +0.000 A 
ATOM     14  C   UNL     1      41.028   6.450  20.288  0.00  0.00    +0.000 A 
ATOM     15  C   UNL     1      40.059   6.061  19.363  0.00  0.00    +0.000 A 
ATOM     16  C   UNL     1      40.366   6.008  18.015  0.00  0.00    +0.000 A 
ATOM     17  C   UNL     1      41.651   6.348  17.587  0.00  0.00    +0.000 A 
ATOM     18  C   UNL     1      42.571   6.723  18.523  0.00  0.00    +0.000 A 
BRANCH  13  20
ATOM     19  C   UNL     1      43.500   6.460  21.941  0.00  0.00    +0.000 C 
ATOM     20  O   UNL     1      43.274   7.170  20.739  0.00  0.00    +0.000 OA
ENDBRANCH  13  20
ENDBRANCH  12  16
ENDBRANCH  11  12
ENDBRANCH   8  11
ENDBRANCH   1   9
BRANCH   1  21
ATOM     21  N   UNL     1      36.646   0.435  15.564  0.00  0.00    +0.000 NA
ATOM     22  C   UNL     1      37.802  -0.377  15.577  0.00  0.00    +0.000 C 
ATOM     23  O   UNL     1      38.894   0.136  15.240  0.00  0.00    +0.000 OA
BRANCH  22  24
ATOM     24  C   UNL     1      37.773  -1.779  15.965  0.00  0.00    +0.000 A 
ATOM     25  C   UNL     1      38.795  -2.241  16.794  0.00  0.00    +0.000 A 
ATOM     26  C   UNL     1      38.771  -3.551  17.163  0.00  0.00    +0.000 A 
ATOM     27  C   UNL     1      37.780  -4.404  16.742  0.00  0.00    +0.000 A 
ATOM     28  C   UNL     1      37.766  -5.846  17.156  0.00  0.00    +0.000 C 
ATOM     29  C   UNL     1      36.766  -3.942  15.920  0.00  0.00    +0.000 A 
ATOM     30  C   UNL     1      35.667  -4.856  15.447  0.00  0.00    +0.000 C 
ATOM     31  C   UNL     1      36.768  -2.629  15.535  0.00  0.00    +0.000 A 
ENDBRANCH  22  24
ENDBRANCH   1  21
TORSDOF 8
ENDMDL
MODEL 7
REMARK VINA RESULT:      -7.2      2.961      3.859
REMARK  Name = 
REMARK  8 active torsions:
REMARK  status: ('A' for Active; 'I' for Inactive)
REMARK    1  A    between atoms: O_2  and  C_3
REMARK    2  A    between atoms: C_6  and  C_7
REMARK    3  A    between atoms: C_7  and  C_8
REMARK    4  A    between atoms: C_8  and  N_9
REMARK    5  A    between atoms: C_10  and  C_12
REMARK    6  A    between atoms: C_12  and  N_19
REMARK    7  A    between atoms: C_13  and  C_14
REMARK    8  A    between atoms: C_20  and  C_22
REMARK                            x       y       z     vdW  Elec       q    Type
REMARK                         _______ _______ _______ _____ _____    ______ ____
ROOT
ATOM      1  C   UNL     1      37.039   5.855  14.498  0.00  0.00    +0.000 C 
ATOM      2  C   UNL     1      37.277   6.505  13.422  0.00  0.00    +0.000 C 
ENDROOT
BRANCH   2   3
ATOM      3  C   UNL     1      36.652   6.321  12.129  0.00  0.00    +0.000 A 
ATOM      4  C   UNL     1      35.639   6.982  11.502  0.00  0.00    +0.000 A 
ATOM      5  C   UNL     1      35.261   6.598  10.296  0.00  0.00    +0.000 A 
ATOM      6  C   UNL     1      35.912   5.542   9.727  0.00  0.00    +0.000 A 
ATOM      7  S   UNL     1      37.045   5.123  10.922  0.00  0.00    +0.000 S 
ENDBRANCH   2   3
BRANCH   1   9
ATOM      8  N   UNL     1      36.265   3.445  14.857  0.00  0.00    +0.000 NA
ATOM      9  C   UNL     1      36.063   4.799  14.573  0.00  0.00    +0.000 C 
ATOM     10  O   UNL     1      34.845   5.129  14.354  0.00  0.00    +0.000 OA
BRANCH   8  11
ATOM     11  C   UNL     1      35.190   2.460  14.907  0.00  0.00    +0.000 C 
BRANCH  11  12
ATOM     12  C   UNL     1      34.811   2.092  16.306  0.00  0.00    +0.000 C 
BRANCH  12  16
ATOM     13  C   UNL     1      36.592  -1.517  17.604  0.00  0.00    +0.000 A 
ATOM     14  C   UNL     1      36.094  -0.660  18.558  0.00  0.00    +0.000 A 
ATOM     15  C   UNL     1      35.502   0.539  18.160  0.00  0.00    +0.000 A 
ATOM     16  C   UNL     1      35.417   0.861  16.817  0.00  0.00    +0.000 A 
ATOM     17  C   UNL     1      35.928  -0.020  15.863  0.00  0.00    +0.000 A 
ATOM     18  C   UNL     1      36.500  -1.184  16.292  0.00  0.00    +0.000 A 
BRANCH  13  20
ATOM     19  C   UNL     1      38.592  -2.865  17.959  0.00  0.00    +0.000 C 
ATOM     20  O   UNL     1      37.186  -2.715  17.961  0.00  0.00    +0.000 OA
ENDBRANCH  13  20
ENDBRANCH  12  16
ENDBRANCH  11  12
ENDBRANCH   8  11
ENDBRANCH   1   9
BRANCH   1  21
ATOM     21  N   UNL     1      37.803   6.216  15.694  0.00  0.00    +0.000 NA
ATOM     22  C   UNL     1      39.008   5.549  16.011  0.00  0.00    +0.000 C 
ATOM     23  O   UNL     1      39.405   4.640  15.245  0.00  0.00    +0.000 OA
BRANCH  22  24
ATOM     24  C   UNL     1      39.802   5.876  17.185  0.00  0.00    +0.000 A 
ATOM     25  C   UNL     1      39.168   5.833  18.427  0.00  0.00    +0.000 A 
ATOM     26  C   UNL     1      39.907   6.134  19.529  0.00  0.00    +0.000 A 
ATOM     27  C   UNL     1      41.235   6.473  19.440  0.00  0.00    +0.000 A 
ATOM     28  C   UNL     1      42.038   6.804  20.663  0.00  0.00    +0.000 C 
ATOM     29  C   UNL     1      41.862   6.515  18.205  0.00  0.00    +0.000 A 
ATOM     30  C   UNL     1      43.318   6.881  18.081  0.00  0.00    +0.000 C 
ATOM     31  C   UNL     1      41.140   6.216  17.083  0.00  0.00    +0.000 A 
ENDBRANCH  22  24
ENDBRANCH   1  21
TORSDOF 8
ENDMDL
MODEL 8
REMARK VINA RESULT:      -7.2      3.096      8.660
REMARK  Name = 
REMARK  8 active torsions:
REMARK  status: ('A' for Active; 'I' for Inactive)
REMARK    1  A    between atoms: O_2  and  C_3
REMARK    2  A    between atoms: C_6  and  C_7
REMARK    3  A    between atoms: C_7  and  C_8
REMARK    4  A    between atoms: C_8  and  N_9
REMARK    5  A    between atoms: C_10  and  C_12
REMARK    6  A    between atoms: C_12  and  N_19
REMARK    7  A    between atoms: C_13  and  C_14
REMARK    8  A    between atoms: C_20  and  C_22
REMARK                            x       y       z     vdW  Elec       q    Type
REMARK                         _______ _______ _______ _____ _____    ______ ____
ROOT
ATOM      1  C   UNL     1      36.221   3.916  14.500  0.00  0.00    +0.000 C 
ATOM      2  C   UNL     1      35.217   4.484  13.947  0.00  0.00    +0.000 C 
ENDROOT
BRANCH   2   3
ATOM      3  C   UNL     1      34.992   5.905  13.785  0.00  0.00    +0.000 A 
ATOM      4  C   UNL     1      34.089   6.757  14.347  0.00  0.00    +0.000 A 
ATOM      5  C   UNL     1      34.108   8.035  14.014  0.00  0.00    +0.000 A 
ATOM      6  C   UNL     1      35.044   8.448  13.110  0.00  0.00    +0.000 A 
ATOM      7  S   UNL     1      35.873   7.008  12.757  0.00  0.00    +0.000 S 
ENDBRANCH   2   3
BRANCH   1   9
ATOM      8  N   UNL     1      37.438   5.203  16.344  0.00  0.00    +0.000 NA
ATOM      9  C   UNL     1      37.322   4.653  15.064  0.00  0.00    +0.000 C 
ATOM     10  O   UNL     1      38.338   4.834  14.305  0.00  0.00    +0.000 OA
BRANCH   8  11
ATOM     11  C   UNL     1      38.612   5.933  16.808  0.00  0.00    +0.000 C 
BRANCH  11  12
ATOM     12  C   UNL     1      38.943   5.645  18.237  0.00  0.00    +0.000 C 
BRANCH  12  16
ATOM     13  C   UNL     1      42.860   6.837  19.298  0.00  0.00    +0.000 A 
ATOM     14  C   UNL     1      41.941   6.659  20.305  0.00  0.00    +0.000 A 
ATOM     15  C   UNL     1      40.641   6.267  19.986  0.00  0.00    +0.000 A 
ATOM     16  C   UNL     1      40.281   6.060  18.667  0.00  0.00    +0.000 A 
ATOM     17  C   UNL     1      41.226   6.246  17.657  0.00  0.00    +0.000 A 
ATOM     18  C   UNL     1      42.488   6.629  18.009  0.00  0.00    +0.000 A 
BRANCH  13  20
ATOM     19  C   UNL     1      44.595   7.425  20.907  0.00  0.00    +0.000 C 
ATOM     20  O   UNL     1      44.159   7.224  19.576  0.00  0.00    +0.000 OA
ENDBRANCH  13  20
ENDBRANCH  12  16
ENDBRANCH  11  12
ENDBRANCH   8  11
ENDBRANCH   1   9
BRANCH   1  21
ATOM     21  N   UNL     1      36.231   2.453  14.553  0.00  0.00    +0.000 NA
ATOM     22  C   UNL     1      35.725   1.766  15.679  0.00  0.00    +0.000 C 
ATOM     23  O   UNL     1      35.270   2.440  16.633  0.00  0.00    +0.000 OA
BRANCH  22  24
ATOM     24  C   UNL     1      35.711   0.314  15.774  0.00  0.00    +0.000 A 
ATOM     25  C   UNL     1      34.936  -0.260  16.780  0.00  0.00    +0.000 A 
ATOM     26  C   UNL     1      34.917  -1.618  16.871  0.00  0.00    +0.000 A 
ATOM     27  C   UNL     1      35.632  -2.412  16.008  0.00  0.00    +0.000 A 
ATOM     28  C   UNL     1      35.602  -3.907  16.120  0.00  0.00    +0.000 C 
ATOM     29  C   UNL     1      36.401  -1.839  15.009  0.00  0.00    +0.000 A 
ATOM     30  C   UNL     1      37.192  -2.687  14.049  0.00  0.00    +0.000 C 
ATOM     31  C   UNL     1      36.436  -0.475  14.897  0.00  0.00    +0.000 A 
ENDBRANCH  22  24
ENDBRANCH   1  21
TORSDOF 8
ENDMDL
MODEL 9
REMARK VINA RESULT:      -7.1     24.002     26.873
REMARK  Name = 
REMARK  8 active torsions:
REMARK  status: ('A' for Active; 'I' for Inactive)
REMARK    1  A    between atoms: O_2  and  C_3
REMARK    2  A    between atoms: C_6  and  C_7
REMARK    3  A    between atoms: C_7  and  C_8
REMARK    4  A    between atoms: C_8  and  N_9
REMARK    5  A    between atoms: C_10  and  C_12
REMARK    6  A    between atoms: C_12  and  N_19
REMARK    7  A    between atoms: C_13  and  C_14
REMARK    8  A    between atoms: C_20  and  C_22
REMARK                            x       y       z     vdW  Elec       q    Type
REMARK                         _______ _______ _______ _____ _____    ______ ____
ROOT
ATOM      1  C   UNL     1      12.927   0.044  29.332  0.00  0.00    +0.000 C 
ATOM      2  C   UNL     1      12.019   0.945  29.314  0.00  0.00    +0.000 C 
ENDROOT
BRANCH   2   3
ATOM      3  C   UNL     1      11.645   1.793  28.201  0.00  0.00    +0.000 A 
ATOM      4  C   UNL     1      12.078   3.022  27.804  0.00  0.00    +0.000 A 
ATOM      5  C   UNL     1      11.556   3.576  26.725  0.00  0.00    +0.000 A 
ATOM      6  C   UNL     1      10.593   2.883  26.050  0.00  0.00    +0.000 A 
ATOM      7  S   UNL     1      10.456   1.460  26.968  0.00  0.00    +0.000 S 
ENDBRANCH   2   3
BRANCH   1   9
ATOM      8  N   UNL     1      14.994   0.253  27.841  0.00  0.00    +0.000 NA
ATOM      9  C   UNL     1      13.742  -0.266  28.186  0.00  0.00    +0.000 C 
ATOM     10  O   UNL     1      13.272  -1.131  27.366  0.00  0.00    +0.000 OA
BRANCH   8  11
ATOM     11  C   UNL     1      15.731  -0.141  26.646  0.00  0.00    +0.000 C 
BRANCH  11  12
ATOM     12  C   UNL     1      16.917   0.731  26.386  0.00  0.00    +0.000 C 
BRANCH  12  16
ATOM     13  C   UNL     1      19.866  -0.710  23.719  0.00  0.00    +0.000 A 
ATOM     14  C   UNL     1      19.099  -1.629  24.395  0.00  0.00    +0.000 A 
ATOM     15  C   UNL     1      18.119  -1.184  25.283  0.00  0.00    +0.000 A 
ATOM     16  C   UNL     1      17.922   0.171  25.480  0.00  0.00    +0.000 A 
ATOM     17  C   UNL     1      18.710   1.090  24.785  0.00  0.00    +0.000 A 
ATOM     18  C   UNL     1      19.659   0.615  23.925  0.00  0.00    +0.000 A 
BRANCH  13  20
ATOM     19  C   UNL     1      20.538  -1.939  21.723  0.00  0.00    +0.000 C 
ATOM     20  O   UNL     1      20.847  -1.115  22.831  0.00  0.00    +0.000 OA
ENDBRANCH  13  20
ENDBRANCH  12  16
ENDBRANCH  11  12
ENDBRANCH   8  11
ENDBRANCH   1   9
BRANCH   1  21
ATOM     21  N   UNL     1      13.131  -0.692  30.581  0.00  0.00    +0.000 NA
ATOM     22  C   UNL     1      14.119  -0.286  31.506  0.00  0.00    +0.000 C 
ATOM     23  O   UNL     1      14.816   0.719  31.230  0.00  0.00    +0.000 OA
BRANCH  22  24
ATOM     24  C   UNL     1      14.355  -0.983  32.761  0.00  0.00    +0.000 A 
ATOM     25  C   UNL     1      15.295  -0.439  33.636  0.00  0.00    +0.000 A 
ATOM     26  C   UNL     1      15.518  -1.086  34.812  0.00  0.00    +0.000 A 
ATOM     27  C   UNL     1      14.846  -2.237  35.144  0.00  0.00    +0.000 A 
ATOM     28  C   UNL     1      15.101  -2.940  36.444  0.00  0.00    +0.000 C 
ATOM     29  C   UNL     1      13.912  -2.775  34.274  0.00  0.00    +0.000 A 
ATOM     30  C   UNL     1      13.161  -4.035  34.615  0.00  0.00    +0.000 C 
ATOM     31  C   UNL     1      13.672  -2.142  33.084  0.00  0.00    +0.000 A 
ENDBRANCH  22  24
ENDBRANCH   1  21
TORSDOF 8
ENDMDL
MODEL 10
REMARK VINA RESULT:      -7.0      1.948      3.363
REMARK  Name = 
REMARK  8 active torsions:
REMARK  status: ('A' for Active; 'I' for Inactive)
REMARK    1  A    between atoms: O_2  and  C_3
REMARK    2  A    between atoms: C_6  and  C_7
REMARK    3  A    between atoms: C_7  and  C_8
REMARK    4  A    between atoms: C_8  and  N_9
REMARK    5  A    between atoms: C_10  and  C_12
REMARK    6  A    between atoms: C_12  and  N_19
REMARK    7  A    between atoms: C_13  and  C_14
REMARK    8  A    between atoms: C_20  and  C_22
REMARK                            x       y       z     vdW  Elec       q    Type
REMARK                         _______ _______ _______ _____ _____    ______ ____
ROOT
ATOM      1  C   UNL     1      37.158   3.093  16.207  0.00  0.00    +0.000 C 
ATOM      2  C   UNL     1      36.334   2.609  17.058  0.00  0.00    +0.000 C 
ENDROOT
BRANCH   2   3
ATOM      3  C   UNL     1      35.890   1.235  17.167  0.00  0.00    +0.000 A 
ATOM      4  C   UNL     1      35.004   0.502  16.437  0.00  0.00    +0.000 A 
ATOM      5  C   UNL     1      34.784  -0.760  16.760  0.00  0.00    +0.000 A 
ATOM      6  C   UNL     1      35.464  -1.276  17.825  0.00  0.00    +0.000 A 
ATOM      7  S   UNL     1      36.399   0.046  18.339  0.00  0.00    +0.000 S 
ENDBRANCH   2   3
BRANCH   1   9
ATOM      8  N   UNL     1      37.232   1.770  14.021  0.00  0.00    +0.000 NA
ATOM      9  C   UNL     1      37.791   2.293  15.191  0.00  0.00    +0.000 C 
ATOM     10  O   UNL     1      39.029   2.017  15.368  0.00  0.00    +0.000 OA
BRANCH   8  11
ATOM     11  C   UNL     1      37.978   0.969  13.056  0.00  0.00    +0.000 C 
BRANCH  11  12
ATOM     12  C   UNL     1      37.504  -0.447  12.994  0.00  0.00    +0.000 C 
BRANCH  12  16
ATOM     13  C   UNL     1      38.888  -3.094  15.989  0.00  0.00    +0.000 A 
ATOM     14  C   UNL     1      39.760  -2.146  15.508  0.00  0.00    +0.000 A 
ATOM     15  C   UNL     1      39.333  -1.260  14.519  0.00  0.00    +0.000 A 
ATOM     16  C   UNL     1      38.042  -1.335  14.027  0.00  0.00    +0.000 A 
ATOM     17  C   UNL     1      37.170  -2.304  14.527  0.00  0.00    +0.000 A 
ATOM     18  C   UNL     1      37.625  -3.153  15.495  0.00  0.00    +0.000 A 
BRANCH  13  20
ATOM     19  C   UNL     1      38.348  -4.878  17.560  0.00  0.00    +0.000 C 
ATOM     20  O   UNL     1      39.276  -3.989  16.970  0.00  0.00    +0.000 OA
ENDBRANCH  13  20
ENDBRANCH  12  16
ENDBRANCH  11  12
ENDBRANCH   8  11
ENDBRANCH   1   9
BRANCH   1  21
ATOM     21  N   UNL     1      37.458   4.524  16.288  0.00  0.00    +0.000 NA
ATOM     22  C   UNL     1      38.253   5.038  17.337  0.00  0.00    +0.000 C 
ATOM     23  O   UNL     1      38.693   4.239  18.197  0.00  0.00    +0.000 OA
BRANCH  22  24
ATOM     24  C   UNL     1      38.580   6.450  17.456  0.00  0.00    +0.000 A 
ATOM     25  C   UNL     1      39.342   7.026  16.440  0.00  0.00    +0.000 A 
ATOM     26  C   UNL     1      39.648   8.347  16.545  0.00  0.00    +0.000 A 
ATOM     27  C   UNL     1      39.228   9.106  17.611  0.00  0.00    +0.000 A 
ATOM     28  C   UNL     1      39.573  10.562  17.714  0.00  0.00    +0.000 C 
ATOM     29  C   UNL     1      38.471   8.532  18.619  0.00  0.00    +0.000 A 
ATOM     30  C   UNL     1      37.996   9.342  19.796  0.00  0.00    +0.000 C 
ATOM     31  C   UNL     1      38.151   7.204  18.535  0.00  0.00    +0.000 A 
ENDBRANCH  22  24
ENDBRANCH   1  21
TORSDOF 8
ENDMDL
