MODEL 1
REMARK VINA RESULT:      -5.8      0.000      0.000
REMARK  Name = 
REMARK  3 active torsions:
REMARK  status: ('A' for Active; 'I' for Inactive)
REMARK    1  A    between atoms: C_2  and  C_4
REMARK    2  A    between atoms: C_6  and  N_7
REMARK    3  A    between atoms: C_14  and  C_15
REMARK                            x       y       z     vdW  Elec       q    Type
REMARK                         _______ _______ _______ _____ _____    ______ ____
ROOT
ATOM      1  C   UNL     1      33.572   1.584  34.597  0.00  0.00    +0.000 A 
ATOM      2  C   UNL     1      33.815   1.239  35.897  0.00  0.00    +0.000 A 
ATOM      3  C   UNL     1      34.259   2.211  36.863  0.00  0.00    +0.000 A 
ATOM      4  C   UNL     1      34.400   3.453  36.360  0.00  0.00    +0.000 A 
ATOM      5  C   UNL     1      34.186   3.829  35.118  0.00  0.00    +0.000 A 
ATOM      6  C   UNL     1      33.759   2.857  34.188  0.00  0.00    +0.000 A 
ATOM      7  O   UNL     1      33.523   3.180  32.870  0.00  0.00    +0.000 OA
ENDROOT
BRANCH   3   8
ATOM      8  N   UNL     1      34.615   1.787  38.126  0.00  0.00    +0.000 NA
ATOM      9  C   UNL     1      35.899   1.333  38.623  0.00  0.00    +0.000 A 
ATOM     10  N   UNL     1      37.107   1.293  38.060  0.00  0.00    +0.000 NA
ATOM     11  C   UNL     1      38.113   0.825  38.763  0.00  0.00    +0.000 A 
ATOM     12  C   UNL     1      37.894   0.393  40.028  0.00  0.00    +0.000 A 
ATOM     13  S   UNL     1      36.235   0.672  40.193  0.00  0.00    +0.000 S 
ENDBRANCH   3   8
BRANCH   1  15
ATOM     14  C   UNL     1      32.315  -0.430  34.646  0.00  0.00    +0.000 C 
ATOM     15  C   UNL     1      32.945   0.619  33.606  0.00  0.00    +0.000 C 
ATOM     16  C   UNL     1      34.215  -0.208  33.111  0.00  0.00    +0.000 C 
ENDBRANCH   1  15
BRANCH   5  17
ATOM     17  C   UNL     1      34.304   5.192  34.505  0.00  0.00    +0.000 C 
ATOM     18  C   UNL     1      33.514   6.262  35.292  0.00  0.00    +0.000 C 
ATOM     19  C   UNL     1      35.786   5.592  35.038  0.00  0.00    +0.000 C 
ENDBRANCH   5  17
TORSDOF 3
ENDMDL
MODEL 2
REMARK VINA RESULT:      -5.7     16.257     18.359
REMARK  Name = 
REMARK  3 active torsions:
REMARK  status: ('A' for Active; 'I' for Inactive)
REMARK    1  A    between atoms: C_2  and  C_4
REMARK    2  A    between atoms: C_6  and  N_7
REMARK    3  A    between atoms: C_14  and  C_15
REMARK                            x       y       z     vdW  Elec       q    Type
REMARK                         _______ _______ _______ _____ _____    ______ ____
ROOT
ATOM      1  C   UNL     1      17.067  10.687  37.150  0.00  0.00    +0.000 A 
ATOM      2  C   UNL     1      18.275  10.440  36.562  0.00  0.00    +0.000 A 
ATOM      3  C   UNL     1      19.317   9.727  37.254  0.00  0.00    +0.000 A 
ATOM      4  C   UNL     1      18.977   9.342  38.501  0.00  0.00    +0.000 A 
ATOM      5  C   UNL     1      17.833   9.563  39.108  0.00  0.00    +0.000 A 
ATOM      6  C   UNL     1      16.831  10.271  38.412  0.00  0.00    +0.000 A 
ATOM      7  O   UNL     1      15.610  10.544  38.992  0.00  0.00    +0.000 OA
ENDROOT
BRANCH   3   8
ATOM      8  N   UNL     1      20.560   9.618  36.667  0.00  0.00    +0.000 NA
ATOM      9  C   UNL     1      21.787  10.334  36.959  0.00  0.00    +0.000 A 
ATOM     10  N   UNL     1      22.104  11.202  37.920  0.00  0.00    +0.000 NA
ATOM     11  C   UNL     1      23.320  11.699  37.943  0.00  0.00    +0.000 A 
ATOM     12  C   UNL     1      24.208  11.323  36.992  0.00  0.00    +0.000 A 
ATOM     13  S   UNL     1      23.279  10.249  36.075  0.00  0.00    +0.000 S 
ENDBRANCH   3   8
BRANCH   1  15
ATOM     14  C   UNL     1      16.396  10.971  34.890  0.00  0.00    +0.000 C 
ATOM     15  C   UNL     1      15.900  11.286  36.384  0.00  0.00    +0.000 C 
ATOM     16  C   UNL     1      16.225  12.845  36.463  0.00  0.00    +0.000 C 
ENDBRANCH   1  15
BRANCH   5  17
ATOM     17  C   UNL     1      17.389   9.144  40.478  0.00  0.00    +0.000 C 
ATOM     18  C   UNL     1      17.532   7.622  40.703  0.00  0.00    +0.000 C 
ATOM     19  C   UNL     1      18.694   9.605  41.329  0.00  0.00    +0.000 C 
ENDBRANCH   5  17
TORSDOF 3
ENDMDL
MODEL 3
REMARK VINA RESULT:      -5.7      1.811      2.357
REMARK  Name = 
REMARK  3 active torsions:
REMARK  status: ('A' for Active; 'I' for Inactive)
REMARK    1  A    between atoms: C_2  and  C_4
REMARK    2  A    between atoms: C_6  and  N_7
REMARK    3  A    between atoms: C_14  and  C_15
REMARK                            x       y       z     vdW  Elec       q    Type
REMARK                         _______ _______ _______ _____ _____    ______ ____
ROOT
ATOM      1  C   UNL     1      33.529   1.123  34.781  0.00  0.00    +0.000 A 
ATOM      2  C   UNL     1      33.746   0.934  36.117  0.00  0.00    +0.000 A 
ATOM      3  C   UNL     1      34.129   2.023  36.978  0.00  0.00    +0.000 A 
ATOM      4  C   UNL     1      34.242   3.206  36.342  0.00  0.00    +0.000 A 
ATOM      5  C   UNL     1      34.051   3.433  35.061  0.00  0.00    +0.000 A 
ATOM      6  C   UNL     1      33.685   2.349  34.236  0.00  0.00    +0.000 A 
ATOM      7  O   UNL     1      33.476   2.514  32.884  0.00  0.00    +0.000 OA
ENDROOT
BRANCH   3   8
ATOM      8  N   UNL     1      34.462   1.757  38.289  0.00  0.00    +0.000 NA
ATOM      9  C   UNL     1      33.722   1.030  39.303  0.00  0.00    +0.000 A 
ATOM     10  N   UNL     1      32.590   0.329  39.247  0.00  0.00    +0.000 NA
ATOM     11  C   UNL     1      32.147  -0.240  40.345  0.00  0.00    +0.000 A 
ATOM     12  C   UNL     1      32.845  -0.092  41.497  0.00  0.00    +0.000 A 
ATOM     13  S   UNL     1      34.140   0.864  40.980  0.00  0.00    +0.000 S 
ENDBRANCH   3   8
BRANCH   1  15
ATOM     14  C   UNL     1      32.208  -0.836  35.008  0.00  0.00    +0.000 C 
ATOM     15  C   UNL     1      32.965   0.031  33.889  0.00  0.00    +0.000 C 
ATOM     16  C   UNL     1      34.247  -0.885  33.645  0.00  0.00    +0.000 C 
ENDBRANCH   1  15
BRANCH   5  17
ATOM     17  C   UNL     1      34.140   4.723  34.302  0.00  0.00    +0.000 C 
ATOM     18  C   UNL     1      32.870   5.589  34.461  0.00  0.00    +0.000 C 
ATOM     19  C   UNL     1      35.093   5.560  35.318  0.00  0.00    +0.000 C 
ENDBRANCH   5  17
TORSDOF 3
ENDMDL
MODEL 4
REMARK VINA RESULT:      -5.6      0.507      3.709
REMARK  Name = 
REMARK  3 active torsions:
REMARK  status: ('A' for Active; 'I' for Inactive)
REMARK    1  A    between atoms: C_2  and  C_4
REMARK    2  A    between atoms: C_6  and  N_7
REMARK    3  A    between atoms: C_14  and  C_15
REMARK                            x       y       z     vdW  Elec       q    Type
REMARK                         _______ _______ _______ _____ _____    ______ ____
ROOT
ATOM      1  C   UNL     1      34.157   3.888  35.030  0.00  0.00    +0.000 A 
ATOM      2  C   UNL     1      34.389   3.525  36.327  0.00  0.00    +0.000 A 
ATOM      3  C   UNL     1      34.225   2.164  36.768  0.00  0.00    +0.000 A 
ATOM      4  C   UNL     1      33.835   1.319  35.792  0.00  0.00    +0.000 A 
ATOM      5  C   UNL     1      33.593   1.624  34.537  0.00  0.00    +0.000 A 
ATOM      6  C   UNL     1      33.753   2.966  34.131  0.00  0.00    +0.000 A 
ATOM      7  O   UNL     1      33.510   3.356  32.832  0.00  0.00    +0.000 OA
ENDROOT
BRANCH   3   8
ATOM      8  N   UNL     1      34.345   1.874  38.111  0.00  0.00    +0.000 NA
ATOM      9  C   UNL     1      35.425   1.221  38.825  0.00  0.00    +0.000 A 
ATOM     10  N   UNL     1      36.634   0.819  38.434  0.00  0.00    +0.000 NA
ATOM     11  C   UNL     1      37.423   0.248  39.316  0.00  0.00    +0.000 A 
ATOM     12  C   UNL     1      36.985   0.082  40.587  0.00  0.00    +0.000 A 
ATOM     13  S   UNL     1      35.438   0.755  40.497  0.00  0.00    +0.000 S 
ENDBRANCH   3   8
BRANCH   1  15
ATOM     14  C   UNL     1      35.894   5.492  35.239  0.00  0.00    +0.000 C 
ATOM     15  C   UNL     1      34.483   5.276  34.506  0.00  0.00    +0.000 C 
ATOM     16  C   UNL     1      33.552   6.194  35.418  0.00  0.00    +0.000 C 
ENDBRANCH   1  15
BRANCH   5  17
ATOM     17  C   UNL     1      33.180   0.731  33.406  0.00  0.00    +0.000 C 
ATOM     18  C   UNL     1      34.390   0.175  32.622  0.00  0.00    +0.000 C 
ATOM     19  C   UNL     1      32.839  -0.617  34.247  0.00  0.00    +0.000 C 
ENDBRANCH   5  17
TORSDOF 3
ENDMDL
MODEL 5
REMARK VINA RESULT:      -5.6     22.959     25.874
REMARK  Name = 
REMARK  3 active torsions:
REMARK  status: ('A' for Active; 'I' for Inactive)
REMARK    1  A    between atoms: C_2  and  C_4
REMARK    2  A    between atoms: C_6  and  N_7
REMARK    3  A    between atoms: C_14  and  C_15
REMARK                            x       y       z     vdW  Elec       q    Type
REMARK                         _______ _______ _______ _____ _____    ______ ____
ROOT
ATOM      1  C   UNL     1      24.743  25.669  28.881  0.00  0.00    +0.000 A 
ATOM      2  C   UNL     1      24.805  25.385  27.546  0.00  0.00    +0.000 A 
ATOM      3  C   UNL     1      25.552  24.258  27.051  0.00  0.00    +0.000 A 
ATOM      4  C   UNL     1      26.158  23.539  28.018  0.00  0.00    +0.000 A 
ATOM      5  C   UNL     1      26.132  23.779  29.310  0.00  0.00    +0.000 A 
ATOM      6  C   UNL     1      25.400  24.893  29.770  0.00  0.00    +0.000 A 
ATOM      7  O   UNL     1      25.336  25.206  31.111  0.00  0.00    +0.000 OA
ENDROOT
BRANCH   3   8
ATOM      8  N   UNL     1      25.692  24.091  25.689  0.00  0.00    +0.000 NA
ATOM      9  C   UNL     1      26.871  23.757  24.914  0.00  0.00    +0.000 A 
ATOM     10  N   UNL     1      28.106  23.413  25.277  0.00  0.00    +0.000 NA
ATOM     11  C   UNL     1      28.989  23.155  24.338  0.00  0.00    +0.000 A 
ATOM     12  C   UNL     1      28.622  23.253  23.038  0.00  0.00    +0.000 A 
ATOM     13  S   UNL     1      27.001  23.711  23.183  0.00  0.00    +0.000 S 
ENDBRANCH   3   8
BRANCH   1  15
ATOM     14  C   UNL     1      22.623  26.617  28.388  0.00  0.00    +0.000 C 
ATOM     15  C   UNL     1      23.829  26.747  29.439  0.00  0.00    +0.000 C 
ATOM     16  C   UNL     1      24.527  28.075  28.901  0.00  0.00    +0.000 C 
ENDBRANCH   1  15
BRANCH   5  17
ATOM     17  C   UNL     1      26.763  23.009  30.431  0.00  0.00    +0.000 C 
ATOM     18  C   UNL     1      26.329  21.526  30.445  0.00  0.00    +0.000 C 
ATOM     19  C   UNL     1      28.243  22.787  29.796  0.00  0.00    +0.000 C 
ENDBRANCH   5  17
TORSDOF 3
ENDMDL
MODEL 6
REMARK VINA RESULT:      -5.6     16.124     18.154
REMARK  Name = 
REMARK  3 active torsions:
REMARK  status: ('A' for Active; 'I' for Inactive)
REMARK    1  A    between atoms: C_2  and  C_4
REMARK    2  A    between atoms: C_6  and  N_7
REMARK    3  A    between atoms: C_14  and  C_15
REMARK                            x       y       z     vdW  Elec       q    Type
REMARK                         _______ _______ _______ _____ _____    ______ ____
ROOT
ATOM      1  C   UNL     1      17.957   9.555  39.285  0.00  0.00    +0.000 A 
ATOM      2  C   UNL     1      19.195   9.424  38.723  0.00  0.00    +0.000 A 
ATOM      3  C   UNL     1      19.486   9.947  37.413  0.00  0.00    +0.000 A 
ATOM      4  C   UNL     1      18.439  10.562  36.827  0.00  0.00    +0.000 A 
ATOM      5  C   UNL     1      17.231  10.705  37.326  0.00  0.00    +0.000 A 
ATOM      6  C   UNL     1      16.968  10.176  38.607  0.00  0.00    +0.000 A 
ATOM      7  O   UNL     1      15.722  10.285  39.187  0.00  0.00    +0.000 OA
ENDROOT
BRANCH   3   8
ATOM      8  N   UNL     1      20.709   9.675  36.838  0.00  0.00    +0.000 NA
ATOM      9  C   UNL     1      21.977  10.363  36.989  0.00  0.00    +0.000 A 
ATOM     10  N   UNL     1      22.358  11.361  37.785  0.00  0.00    +0.000 NA
ATOM     11  C   UNL     1      23.598  11.789  37.709  0.00  0.00    +0.000 A 
ATOM     12  C   UNL     1      24.445  11.211  36.823  0.00  0.00    +0.000 A 
ATOM     13  S   UNL     1      23.443  10.050  36.113  0.00  0.00    +0.000 S 
ENDBRANCH   3   8
BRANCH   1  15
ATOM     14  C   UNL     1      19.095   9.541  41.368  0.00  0.00    +0.000 C 
ATOM     15  C   UNL     1      17.674   9.162  40.725  0.00  0.00    +0.000 C 
ATOM     16  C   UNL     1      17.810   7.575  40.661  0.00  0.00    +0.000 C 
ENDBRANCH   1  15
BRANCH   5  17
ATOM     17  C   UNL     1      16.036  11.393  36.736  0.00  0.00    +0.000 C 
ATOM     18  C   UNL     1      16.218  12.926  36.659  0.00  0.00    +0.000 C 
ATOM     19  C   UNL     1      16.298  11.072  35.165  0.00  0.00    +0.000 C 
ENDBRANCH   5  17
TORSDOF 3
ENDMDL
MODEL 7
REMARK VINA RESULT:      -5.6     23.033     26.127
REMARK  Name = 
REMARK  3 active torsions:
REMARK  status: ('A' for Active; 'I' for Inactive)
REMARK    1  A    between atoms: C_2  and  C_4
REMARK    2  A    between atoms: C_6  and  N_7
REMARK    3  A    between atoms: C_14  and  C_15
REMARK                            x       y       z     vdW  Elec       q    Type
REMARK                         _______ _______ _______ _____ _____    ______ ____
ROOT
ATOM      1  C   UNL     1      26.245  23.650  29.361  0.00  0.00    +0.000 A 
ATOM      2  C   UNL     1      26.422  23.319  28.047  0.00  0.00    +0.000 A 
ATOM      3  C   UNL     1      25.791  24.067  26.991  0.00  0.00    +0.000 A 
ATOM      4  C   UNL     1      25.038  25.096  27.428  0.00  0.00    +0.000 A 
ATOM      5  C   UNL     1      24.833  25.447  28.678  0.00  0.00    +0.000 A 
ATOM      6  C   UNL     1      25.455  24.693  29.696  0.00  0.00    +0.000 A 
ATOM      7  O   UNL     1      25.279  25.001  31.027  0.00  0.00    +0.000 OA
ENDROOT
BRANCH   3   8
ATOM      8  N   UNL     1      25.895  23.614  25.692  0.00  0.00    +0.000 NA
ATOM      9  C   UNL     1      26.503  24.246  24.537  0.00  0.00    +0.000 A 
ATOM     10  N   UNL     1      27.218  25.363  24.408  0.00  0.00    +0.000 NA
ATOM     11  C   UNL     1      27.655  25.696  23.215  0.00  0.00    +0.000 A 
ATOM     12  C   UNL     1      27.363  24.903  22.157  0.00  0.00    +0.000 A 
ATOM     13  S   UNL     1      26.462  23.679  22.897  0.00  0.00    +0.000 S 
ENDBRANCH   3   8
BRANCH   1  15
ATOM     14  C   UNL     1      28.384  22.671  29.676  0.00  0.00    +0.000 C 
ATOM     15  C   UNL     1      27.029  22.984  30.478  0.00  0.00    +0.000 C 
ATOM     16  C   UNL     1      26.379  21.528  30.507  0.00  0.00    +0.000 C 
ENDBRANCH   1  15
BRANCH   5  17
ATOM     17  C   UNL     1      24.028  26.587  29.224  0.00  0.00    +0.000 C 
ATOM     18  C   UNL     1      24.667  27.961  28.916  0.00  0.00    +0.000 C 
ATOM     19  C   UNL     1      22.857  26.644  28.099  0.00  0.00    +0.000 C 
ENDBRANCH   5  17
TORSDOF 3
ENDMDL
MODEL 8
REMARK VINA RESULT:      -5.4     21.616     24.124
REMARK  Name = 
REMARK  3 active torsions:
REMARK  status: ('A' for Active; 'I' for Inactive)
REMARK    1  A    between atoms: C_2  and  C_4
REMARK    2  A    between atoms: C_6  and  N_7
REMARK    3  A    between atoms: C_14  and  C_15
REMARK                            x       y       z     vdW  Elec       q    Type
REMARK                         _______ _______ _______ _____ _____    ______ ____
ROOT
ATOM      1  C   UNL     1      28.176  22.918  29.392  0.00  0.00    +0.000 A 
ATOM      2  C   UNL     1      27.840  22.763  28.077  0.00  0.00    +0.000 A 
ATOM      3  C   UNL     1      28.840  22.544  27.065  0.00  0.00    +0.000 A 
ATOM      4  C   UNL     1      30.100  22.505  27.543  0.00  0.00    +0.000 A 
ATOM      5  C   UNL     1      30.471  22.656  28.795  0.00  0.00    +0.000 A 
ATOM      6  C   UNL     1      29.473  22.878  29.768  0.00  0.00    +0.000 A 
ATOM      7  O   UNL     1      29.792  23.051  31.097  0.00  0.00    +0.000 OA
ENDROOT
BRANCH   3   8
ATOM      8  N   UNL     1      28.461  22.525  25.739  0.00  0.00    +0.000 NA
ATOM      9  C   UNL     1      28.250  23.628  24.821  0.00  0.00    +0.000 A 
ATOM     10  N   UNL     1      28.459  24.938  24.942  0.00  0.00    +0.000 NA
ATOM     11  C   UNL     1      28.175  25.718  23.923  0.00  0.00    +0.000 A 
ATOM     12  C   UNL     1      27.676  25.171  22.789  0.00  0.00    +0.000 A 
ATOM     13  S   UNL     1      27.626  23.533  23.203  0.00  0.00    +0.000 S 
ENDBRANCH   3   8
BRANCH   1  15
ATOM     14  C   UNL     1      26.464  21.537  30.286  0.00  0.00    +0.000 C 
ATOM     15  C   UNL     1      27.134  22.982  30.494  0.00  0.00    +0.000 C 
ATOM     16  C   UNL     1      26.016  23.905  29.831  0.00  0.00    +0.000 C 
ENDBRANCH   1  15
BRANCH   5  17
ATOM     17  C   UNL     1      31.846  22.603  29.391  0.00  0.00    +0.000 C 
ATOM     18  C   UNL     1      32.569  21.272  29.085  0.00  0.00    +0.000 C 
ATOM     19  C   UNL     1      32.636  23.523  28.309  0.00  0.00    +0.000 C 
ENDBRANCH   5  17
TORSDOF 3
ENDMDL
MODEL 9
REMARK VINA RESULT:      -5.4     19.942     22.164
REMARK  Name = 
REMARK  3 active torsions:
REMARK  status: ('A' for Active; 'I' for Inactive)
REMARK    1  A    between atoms: C_2  and  C_4
REMARK    2  A    between atoms: C_6  and  N_7
REMARK    3  A    between atoms: C_14  and  C_15
REMARK                            x       y       z     vdW  Elec       q    Type
REMARK                         _______ _______ _______ _____ _____    ______ ____
ROOT
ATOM      1  C   UNL     1      26.230   4.532  17.328  0.00  0.00    +0.000 A 
ATOM      2  C   UNL     1      24.947   4.512  17.797  0.00  0.00    +0.000 A 
ATOM      3  C   UNL     1      24.208   3.282  17.916  0.00  0.00    +0.000 A 
ATOM      4  C   UNL     1      24.901   2.191  17.530  0.00  0.00    +0.000 A 
ATOM      5  C   UNL     1      26.131   2.163  17.067  0.00  0.00    +0.000 A 
ATOM      6  C   UNL     1      26.831   3.383  16.952  0.00  0.00    +0.000 A 
ATOM      7  O   UNL     1      28.121   3.427  16.468  0.00  0.00    +0.000 OA
ENDROOT
BRANCH   3   8
ATOM      8  N   UNL     1      22.876   3.330  18.269  0.00  0.00    +0.000 NA
ATOM      9  C   UNL     1      21.744   2.615  17.712  0.00  0.00    +0.000 A 
ATOM     10  N   UNL     1      21.666   1.647  16.800  0.00  0.00    +0.000 NA
ATOM     11  C   UNL     1      20.481   1.173  16.486  0.00  0.00    +0.000 A 
ATOM     12  C   UNL     1      19.381   1.683  17.090  0.00  0.00    +0.000 A 
ATOM     13  S   UNL     1      20.070   2.841  18.111  0.00  0.00    +0.000 S 
ENDBRANCH   3   8
BRANCH   1  15
ATOM     14  C   UNL     1      27.458   5.803  18.913  0.00  0.00    +0.000 C 
ATOM     15  C   UNL     1      27.083   5.788  17.352  0.00  0.00    +0.000 C 
ATOM     16  C   UNL     1      25.975   6.934  17.320  0.00  0.00    +0.000 C 
ENDBRANCH   1  15
BRANCH   5  17
ATOM     17  C   UNL     1      26.959   0.988  16.644  0.00  0.00    +0.000 C 
ATOM     18  C   UNL     1      26.539  -0.317  17.359  0.00  0.00    +0.000 C 
ATOM     19  C   UNL     1      26.258   0.675  15.211  0.00  0.00    +0.000 C 
ENDBRANCH   5  17
TORSDOF 3
ENDMDL
MODEL 10
REMARK VINA RESULT:      -5.3      5.898      8.066
REMARK  Name = 
REMARK  3 active torsions:
REMARK  status: ('A' for Active; 'I' for Inactive)
REMARK    1  A    between atoms: C_2  and  C_4
REMARK    2  A    between atoms: C_6  and  N_7
REMARK    3  A    between atoms: C_14  and  C_15
REMARK                            x       y       z     vdW  Elec       q    Type
REMARK                         _______ _______ _______ _____ _____    ______ ____
ROOT
ATOM      1  C   UNL     1      34.932  -3.282  35.586  0.00  0.00    +0.000 A 
ATOM      2  C   UNL     1      34.328  -4.218  34.794  0.00  0.00    +0.000 A 
ATOM      3  C   UNL     1      33.581  -3.842  33.622  0.00  0.00    +0.000 A 
ATOM      4  C   UNL     1      33.551  -2.512  33.399  0.00  0.00    +0.000 A 
ATOM      5  C   UNL     1      34.110  -1.578  34.135  0.00  0.00    +0.000 A 
ATOM      6  C   UNL     1      34.829  -1.970  35.283  0.00  0.00    +0.000 A 
ATOM      7  O   UNL     1      35.434  -1.043  36.103  0.00  0.00    +0.000 OA
ENDROOT
BRANCH   3   8
ATOM      8  N   UNL     1      32.882  -4.810  32.932  0.00  0.00    +0.000 NA
ATOM      9  C   UNL     1      33.137  -5.381  31.624  0.00  0.00    +0.000 A 
ATOM     10  N   UNL     1      34.150  -5.232  30.771  0.00  0.00    +0.000 NA
ATOM     11  C   UNL     1      34.118  -5.891  29.635  0.00  0.00    +0.000 A 
ATOM     12  C   UNL     1      33.061  -6.694  29.363  0.00  0.00    +0.000 A 
ATOM     13  S   UNL     1      32.124  -6.491  30.755  0.00  0.00    +0.000 S 
ENDBRANCH   3   8
BRANCH   1  15
ATOM     14  C   UNL     1      37.090  -4.231  35.865  0.00  0.00    +0.000 C 
ATOM     15  C   UNL     1      35.860  -3.663  36.727  0.00  0.00    +0.000 C 
ATOM     16  C   UNL     1      35.215  -5.032  37.227  0.00  0.00    +0.000 C 
ENDBRANCH   1  15
BRANCH   5  17
ATOM     17  C   UNL     1      34.130  -0.093  33.929  0.00  0.00    +0.000 C 
ATOM     18  C   UNL     1      34.255   0.294  32.438  0.00  0.00    +0.000 C 
ATOM     19  C   UNL     1      32.543   0.216  34.092  0.00  0.00    +0.000 C 
ENDBRANCH   5  17
TORSDOF 3
ENDMDL
