MODEL 1
REMARK VINA RESULT:      -7.2      0.000      0.000
REMARK  Name = 
REMARK  3 active torsions:
REMARK  status: ('A' for Active; 'I' for Inactive)
REMARK    1  A    between atoms: O_2  and  C_3
REMARK    2  A    between atoms: C_6  and  C_7
REMARK    3  A    between atoms: C_19  and  O_20
REMARK                            x       y       z     vdW  Elec       q    Type
REMARK                         _______ _______ _______ _____ _____    ______ ____
ROOT
ATOM      1  C   UNL     1      16.788  10.812  34.959  0.00  0.00    +0.000 A 
ATOM      2  C   UNL     1      17.240  10.107  33.867  0.00  0.00    +0.000 A 
ATOM      3  N   UNL     1      16.823  10.341  32.611  0.00  0.00    +0.000 NA
ATOM      4  C   UNL     1      15.904  11.327  32.428  0.00  0.00    +0.000 A 
ATOM      5  C   UNL     1      15.268  11.829  31.325  0.00  0.00    +0.000 A 
ATOM      6  C   UNL     1      14.422  12.842  31.722  0.00  0.00    +0.000 A 
ATOM      7  C   UNL     1      13.525  13.686  30.895  0.00  0.00    +0.000 C 
ATOM      8  N   UNL     1      14.555  12.942  33.062  0.00  0.00    +0.000 NA
ATOM      9  N   UNL     1      15.443  12.032  33.476  0.00  0.00    +0.000 N 
ATOM     10  C   UNL     1      15.855  11.807  34.740  0.00  0.00    +0.000 A 
ATOM     11  N   UNL     1      15.361  12.561  35.853  0.00  0.00    +0.000 NA
ENDROOT
BRANCH   1  15
ATOM     12  C   UNL     1      18.113  10.018  38.920  0.00  0.00    +0.000 A 
ATOM     13  C   UNL     1      16.786  10.285  38.650  0.00  0.00    +0.000 A 
ATOM     14  C   UNL     1      16.368  10.543  37.351  0.00  0.00    +0.000 A 
ATOM     15  C   UNL     1      17.260  10.537  36.316  0.00  0.00    +0.000 A 
ATOM     16  C   UNL     1      18.585  10.268  36.593  0.00  0.00    +0.000 A 
ATOM     17  C   UNL     1      19.028  10.006  37.894  0.00  0.00    +0.000 A 
BRANCH  12  19
ATOM     18  C   UNL     1      17.559   9.444  41.215  0.00  0.00    +0.000 C 
ATOM     19  O   UNL     1      18.495   9.768  40.209  0.00  0.00    +0.000 OA
ENDBRANCH  12  19
BRANCH  17  20
ATOM     20  O   UNL     1      20.340   9.737  38.197  0.00  0.00    +0.000 OA
ATOM     21  C   UNL     1      21.438  10.147  37.431  0.00  0.00    +0.000 C 
ENDBRANCH  17  20
ENDBRANCH   1  15
TORSDOF 3
ENDMDL
MODEL 2
REMARK VINA RESULT:      -7.1      1.464      2.240
REMARK  Name = 
REMARK  3 active torsions:
REMARK  status: ('A' for Active; 'I' for Inactive)
REMARK    1  A    between atoms: O_2  and  C_3
REMARK    2  A    between atoms: C_6  and  C_7
REMARK    3  A    between atoms: C_19  and  O_20
REMARK                            x       y       z     vdW  Elec       q    Type
REMARK                         _______ _______ _______ _____ _____    ______ ____
ROOT
ATOM      1  C   UNL     1      16.601  11.586  36.354  0.00  0.00    +0.000 A 
ATOM      2  C   UNL     1      15.632  12.553  36.488  0.00  0.00    +0.000 A 
ATOM      3  N   UNL     1      14.855  12.969  35.473  0.00  0.00    +0.000 NA
ATOM      4  C   UNL     1      15.052  12.395  34.256  0.00  0.00    +0.000 A 
ATOM      5  C   UNL     1      14.467  12.561  33.030  0.00  0.00    +0.000 A 
ATOM      6  C   UNL     1      15.065  11.705  32.132  0.00  0.00    +0.000 A 
ATOM      7  C   UNL     1      14.779  11.518  30.688  0.00  0.00    +0.000 C 
ATOM      8  N   UNL     1      16.006  11.028  32.824  0.00  0.00    +0.000 NA
ATOM      9  N   UNL     1      15.992  11.447  34.094  0.00  0.00    +0.000 N 
ATOM     10  C   UNL     1      16.776  11.022  35.104  0.00  0.00    +0.000 A 
ATOM     11  N   UNL     1      17.776  10.012  34.926  0.00  0.00    +0.000 NA
ENDROOT
BRANCH   1  15
ATOM     12  C   UNL     1      18.982  10.290  39.628  0.00  0.00    +0.000 A 
ATOM     13  C   UNL     1      17.740   9.738  39.385  0.00  0.00    +0.000 A 
ATOM     14  C   UNL     1      16.974  10.172  38.311  0.00  0.00    +0.000 A 
ATOM     15  C   UNL     1      17.433  11.151  37.476  0.00  0.00    +0.000 A 
ATOM     16  C   UNL     1      18.675  11.699  37.725  0.00  0.00    +0.000 A 
ATOM     17  C   UNL     1      19.464  11.277  38.801  0.00  0.00    +0.000 A 
BRANCH  12  19
ATOM     18  C   UNL     1      19.916   8.467  40.935  0.00  0.00    +0.000 C 
ATOM     19  O   UNL     1      19.714   9.842  40.694  0.00  0.00    +0.000 OA
ENDBRANCH  12  19
BRANCH  17  20
ATOM     20  O   UNL     1      20.702  11.804  39.072  0.00  0.00    +0.000 OA
ATOM     21  C   UNL     1      21.771  11.841  38.168  0.00  0.00    +0.000 C 
ENDBRANCH  17  20
ENDBRANCH   1  15
TORSDOF 3
ENDMDL
MODEL 3
REMARK VINA RESULT:      -7.1      1.616      3.073
REMARK  Name = 
REMARK  3 active torsions:
REMARK  status: ('A' for Active; 'I' for Inactive)
REMARK    1  A    between atoms: O_2  and  C_3
REMARK    2  A    between atoms: C_6  and  C_7
REMARK    3  A    between atoms: C_19  and  O_20
REMARK                            x       y       z     vdW  Elec       q    Type
REMARK                         _______ _______ _______ _____ _____    ______ ____
ROOT
ATOM      1  C   UNL     1      16.805  11.295  36.670  0.00  0.00    +0.000 A 
ATOM      2  C   UNL     1      15.986  12.399  36.730  0.00  0.00    +0.000 A 
ATOM      3  N   UNL     1      15.262  12.841  35.688  0.00  0.00    +0.000 NA
ATOM      4  C   UNL     1      15.358  12.151  34.519  0.00  0.00    +0.000 A 
ATOM      5  C   UNL     1      14.786  12.303  33.285  0.00  0.00    +0.000 A 
ATOM      6  C   UNL     1      15.242  11.302  32.456  0.00  0.00    +0.000 A 
ATOM      7  C   UNL     1      14.912  11.045  31.033  0.00  0.00    +0.000 C 
ATOM      8  N   UNL     1      16.087  10.553  33.198  0.00  0.00    +0.000 NA
ATOM      9  N   UNL     1      16.150  11.068  34.431  0.00  0.00    +0.000 N 
ATOM     10  C   UNL     1      16.880  10.615  35.469  0.00  0.00    +0.000 A 
ATOM     11  N   UNL     1      17.723   9.462  35.370  0.00  0.00    +0.000 NA
ENDROOT
BRANCH   1  15
ATOM     12  C   UNL     1      19.100   9.986  40.000  0.00  0.00    +0.000 A 
ATOM     13  C   UNL     1      19.627  10.856  39.067  0.00  0.00    +0.000 A 
ATOM     14  C   UNL     1      18.864  11.275  37.985  0.00  0.00    +0.000 A 
ATOM     15  C   UNL     1      17.582  10.835  37.822  0.00  0.00    +0.000 A 
ATOM     16  C   UNL     1      17.061   9.965  38.759  0.00  0.00    +0.000 A 
ATOM     17  C   UNL     1      17.811   9.530  39.857  0.00  0.00    +0.000 A 
BRANCH  12  19
ATOM     18  C   UNL     1      20.861   8.590  40.927  0.00  0.00    +0.000 C 
ATOM     19  O   UNL     1      19.875   9.592  41.057  0.00  0.00    +0.000 OA
ENDBRANCH  12  19
BRANCH  17  20
ATOM     20  O   UNL     1      17.319   8.666  40.803  0.00  0.00    +0.000 OA
ATOM     21  C   UNL     1      16.051   8.761  41.391  0.00  0.00    +0.000 C 
ENDBRANCH  17  20
ENDBRANCH   1  15
TORSDOF 3
ENDMDL
MODEL 4
REMARK VINA RESULT:      -6.9      3.598      7.172
REMARK  Name = 
REMARK  3 active torsions:
REMARK  status: ('A' for Active; 'I' for Inactive)
REMARK    1  A    between atoms: O_2  and  C_3
REMARK    2  A    between atoms: C_6  and  C_7
REMARK    3  A    between atoms: C_19  and  O_20
REMARK                            x       y       z     vdW  Elec       q    Type
REMARK                         _______ _______ _______ _____ _____    ______ ____
ROOT
ATOM      1  C   UNL     1      16.428  11.124  36.908  0.00  0.00    +0.000 A 
ATOM      2  C   UNL     1      17.781  10.876  36.938  0.00  0.00    +0.000 A 
ATOM      3  N   UNL     1      18.412  10.332  37.993  0.00  0.00    +0.000 NA
ATOM      4  C   UNL     1      17.658  10.019  39.081  0.00  0.00    +0.000 A 
ATOM      5  C   UNL     1      17.946   9.469  40.301  0.00  0.00    +0.000 A 
ATOM      6  C   UNL     1      16.783   9.373  41.032  0.00  0.00    +0.000 A 
ATOM      7  C   UNL     1      16.584   8.845  42.404  0.00  0.00    +0.000 C 
ATOM      8  N   UNL     1      15.801   9.865  40.247  0.00  0.00    +0.000 NA
ATOM      9  N   UNL     1      16.333  10.250  39.081  0.00  0.00    +0.000 N 
ATOM     10  C   UNL     1      15.691  10.794  38.029  0.00  0.00    +0.000 A 
ATOM     11  N   UNL     1      14.280  11.039  38.035  0.00  0.00    +0.000 NA
ENDROOT
BRANCH   1  15
ATOM     12  C   UNL     1      14.490  12.882  33.558  0.00  0.00    +0.000 A 
ATOM     13  C   UNL     1      14.357  13.418  34.823  0.00  0.00    +0.000 A 
ATOM     14  C   UNL     1      14.997  12.833  35.908  0.00  0.00    +0.000 A 
ATOM     15  C   UNL     1      15.768  11.717  35.745  0.00  0.00    +0.000 A 
ATOM     16  C   UNL     1      15.896  11.186  34.477  0.00  0.00    +0.000 A 
ATOM     17  C   UNL     1      15.261  11.759  33.370  0.00  0.00    +0.000 A 
BRANCH  12  19
ATOM     18  C   UNL     1      13.531  14.856  32.514  0.00  0.00    +0.000 C 
ATOM     19  O   UNL     1      13.848  13.481  32.509  0.00  0.00    +0.000 OA
ENDBRANCH  12  19
BRANCH  17  20
ATOM     20  O   UNL     1      15.371  11.252  32.100  0.00  0.00    +0.000 OA
ATOM     21  C   UNL     1      14.620  10.182  31.598  0.00  0.00    +0.000 C 
ENDBRANCH  17  20
ENDBRANCH   1  15
TORSDOF 3
ENDMDL
MODEL 5
REMARK VINA RESULT:      -6.6     18.090     19.223
REMARK  Name = 
REMARK  3 active torsions:
REMARK  status: ('A' for Active; 'I' for Inactive)
REMARK    1  A    between atoms: O_2  and  C_3
REMARK    2  A    between atoms: C_6  and  C_7
REMARK    3  A    between atoms: C_19  and  O_20
REMARK                            x       y       z     vdW  Elec       q    Type
REMARK                         _______ _______ _______ _____ _____    ______ ____
ROOT
ATOM      1  C   UNL     1      26.435  24.199  25.786  0.00  0.00    +0.000 A 
ATOM      2  C   UNL     1      25.792  23.265  25.008  0.00  0.00    +0.000 A 
ATOM      3  N   UNL     1      26.059  23.076  23.704  0.00  0.00    +0.000 NA
ATOM      4  C   UNL     1      27.017  23.859  23.140  0.00  0.00    +0.000 A 
ATOM      5  C   UNL     1      27.539  23.948  21.878  0.00  0.00    +0.000 A 
ATOM      6  C   UNL     1      28.503  24.931  21.863  0.00  0.00    +0.000 A 
ATOM      7  C   UNL     1      29.346  25.395  20.734  0.00  0.00    +0.000 C 
ATOM      8  N   UNL     1      28.556  25.428  23.117  0.00  0.00    +0.000 NA
ATOM      9  N   UNL     1      27.663  24.781  23.875  0.00  0.00    +0.000 N 
ATOM     10  C   UNL     1      27.404  24.979  25.183  0.00  0.00    +0.000 A 
ATOM     11  N   UNL     1      28.094  25.963  25.961  0.00  0.00    +0.000 NA
ENDROOT
BRANCH   1  15
ATOM     12  C   UNL     1      25.508  24.776  29.894  0.00  0.00    +0.000 A 
ATOM     13  C   UNL     1      25.077  25.668  28.932  0.00  0.00    +0.000 A 
ATOM     14  C   UNL     1      25.388  25.465  27.594  0.00  0.00    +0.000 A 
ATOM     15  C   UNL     1      26.125  24.384  27.204  0.00  0.00    +0.000 A 
ATOM     16  C   UNL     1      26.552  23.496  28.171  0.00  0.00    +0.000 A 
ATOM     17  C   UNL     1      26.251  23.679  29.524  0.00  0.00    +0.000 A 
BRANCH  12  19
ATOM     18  C   UNL     1      24.566  26.196  31.626  0.00  0.00    +0.000 C 
ATOM     19  O   UNL     1      25.186  25.001  31.205  0.00  0.00    +0.000 OA
ENDBRANCH  12  19
BRANCH  17  20
ATOM     20  O   UNL     1      26.663  22.814  30.506  0.00  0.00    +0.000 OA
ATOM     21  C   UNL     1      26.331  21.455  30.564  0.00  0.00    +0.000 C 
ENDBRANCH  17  20
ENDBRANCH   1  15
TORSDOF 3
ENDMDL
MODEL 6
REMARK VINA RESULT:      -6.6      1.491      1.940
REMARK  Name = 
REMARK  3 active torsions:
REMARK  status: ('A' for Active; 'I' for Inactive)
REMARK    1  A    between atoms: O_2  and  C_3
REMARK    2  A    between atoms: C_6  and  C_7
REMARK    3  A    between atoms: C_19  and  O_20
REMARK                            x       y       z     vdW  Elec       q    Type
REMARK                         _______ _______ _______ _____ _____    ______ ____
ROOT
ATOM      1  C   UNL     1      17.725  10.393  36.457  0.00  0.00    +0.000 A 
ATOM      2  C   UNL     1      18.212   9.580  35.460  0.00  0.00    +0.000 A 
ATOM      3  N   UNL     1      17.797   9.646  34.183  0.00  0.00    +0.000 NA
ATOM      4  C   UNL     1      16.845  10.569  33.879  0.00  0.00    +0.000 A 
ATOM      5  C   UNL     1      16.201  10.912  32.721  0.00  0.00    +0.000 A 
ATOM      6  C   UNL     1      15.317  11.933  32.989  0.00  0.00    +0.000 A 
ATOM      7  C   UNL     1      14.397  12.639  32.064  0.00  0.00    +0.000 C 
ATOM      8  N   UNL     1      15.434  12.198  34.308  0.00  0.00    +0.000 NA
ATOM      9  N   UNL     1      16.351  11.377  34.833  0.00  0.00    +0.000 N 
ATOM     10  C   UNL     1      16.759  11.321  36.116  0.00  0.00    +0.000 A 
ATOM     11  N   UNL     1      16.229  12.184  37.129  0.00  0.00    +0.000 NA
ENDROOT
BRANCH   1  15
ATOM     12  C   UNL     1      19.051  10.095  40.485  0.00  0.00    +0.000 A 
ATOM     13  C   UNL     1      17.890   9.476  40.067  0.00  0.00    +0.000 A 
ATOM     14  C   UNL     1      17.471   9.583  38.748  0.00  0.00    +0.000 A 
ATOM     15  C   UNL     1      18.195  10.301  37.840  0.00  0.00    +0.000 A 
ATOM     16  C   UNL     1      19.355  10.917  38.265  0.00  0.00    +0.000 A 
ATOM     17  C   UNL     1      19.797  10.823  39.588  0.00  0.00    +0.000 A 
BRANCH  12  19
ATOM     18  C   UNL     1      18.511   9.750  42.829  0.00  0.00    +0.000 C 
ATOM     19  O   UNL     1      19.440   9.972  41.791  0.00  0.00    +0.000 OA
ENDBRANCH  12  19
BRANCH  17  20
ATOM     20  O   UNL     1      20.946  11.425  40.037  0.00  0.00    +0.000 OA
ATOM     21  C   UNL     1      22.244  10.975  39.767  0.00  0.00    +0.000 C 
ENDBRANCH  17  20
ENDBRANCH   1  15
TORSDOF 3
ENDMDL
MODEL 7
REMARK VINA RESULT:      -6.5     18.815     20.354
REMARK  Name = 
REMARK  3 active torsions:
REMARK  status: ('A' for Active; 'I' for Inactive)
REMARK    1  A    between atoms: O_2  and  C_3
REMARK    2  A    between atoms: C_6  and  C_7
REMARK    3  A    between atoms: C_19  and  O_20
REMARK                            x       y       z     vdW  Elec       q    Type
REMARK                         _______ _______ _______ _____ _____    ______ ____
ROOT
ATOM      1  C   UNL     1      33.617   0.979  34.656  0.00  0.00    +0.000 A 
ATOM      2  C   UNL     1      33.544   1.496  33.382  0.00  0.00    +0.000 A 
ATOM      3  N   UNL     1      33.645   2.808  33.109  0.00  0.00    +0.000 NA
ATOM      4  C   UNL     1      33.826   3.656  34.158  0.00  0.00    +0.000 A 
ATOM      5  C   UNL     1      33.967   5.013  34.259  0.00  0.00    +0.000 A 
ATOM      6  C   UNL     1      34.126   5.347  35.586  0.00  0.00    +0.000 A 
ATOM      7  C   UNL     1      34.313   6.686  36.195  0.00  0.00    +0.000 C 
ATOM      8  N   UNL     1      34.081   4.187  36.275  0.00  0.00    +0.000 NA
ATOM      9  N   UNL     1      33.901   3.179  35.413  0.00  0.00    +0.000 N 
ATOM     10  C   UNL     1      33.801   1.867  35.699  0.00  0.00    +0.000 A 
ATOM     11  N   UNL     1      33.881   1.365  37.038  0.00  0.00    +0.000 NA
ENDROOT
BRANCH   1  15
ATOM     12  C   UNL     1      33.239  -3.183  35.434  0.00  0.00    +0.000 A 
ATOM     13  C   UNL     1      32.127  -2.388  35.242  0.00  0.00    +0.000 A 
ATOM     14  C   UNL     1      32.267  -1.030  34.988  0.00  0.00    +0.000 A 
ATOM     15  C   UNL     1      33.504  -0.454  34.924  0.00  0.00    +0.000 A 
ATOM     16  C   UNL     1      34.612  -1.255  35.117  0.00  0.00    +0.000 A 
ATOM     17  C   UNL     1      34.495  -2.625  35.373  0.00  0.00    +0.000 A 
BRANCH  12  19
ATOM     18  C   UNL     1      32.159  -4.988  36.650  0.00  0.00    +0.000 C 
ATOM     19  O   UNL     1      33.071  -4.518  35.681  0.00  0.00    +0.000 OA
ENDBRANCH  12  19
BRANCH  17  20
ATOM     20  O   UNL     1      35.579  -3.444  35.569  0.00  0.00    +0.000 OA
ATOM     21  C   UNL     1      36.723  -3.096  36.296  0.00  0.00    +0.000 C 
ENDBRANCH  17  20
ENDBRANCH   1  15
TORSDOF 3
ENDMDL
MODEL 8
REMARK VINA RESULT:      -6.4     21.510     22.984
REMARK  Name = 
REMARK  3 active torsions:
REMARK  status: ('A' for Active; 'I' for Inactive)
REMARK    1  A    between atoms: O_2  and  C_3
REMARK    2  A    between atoms: C_6  and  C_7
REMARK    3  A    between atoms: C_19  and  O_20
REMARK                            x       y       z     vdW  Elec       q    Type
REMARK                         _______ _______ _______ _____ _____    ______ ____
ROOT
ATOM      1  C   UNL     1      28.941  26.035  22.463  0.00  0.00    +0.000 A 
ATOM      2  C   UNL     1      28.798  27.383  22.702  0.00  0.00    +0.000 A 
ATOM      3  N   UNL     1      29.086  28.330  21.794  0.00  0.00    +0.000 NA
ATOM      4  C   UNL     1      29.544  27.919  20.580  0.00  0.00    +0.000 A 
ATOM      5  C   UNL     1      29.927  28.578  19.445  0.00  0.00    +0.000 A 
ATOM      6  C   UNL     1      30.309  27.652  18.499  0.00  0.00    +0.000 A 
ATOM      7  C   UNL     1      30.800  27.877  17.117  0.00  0.00    +0.000 C 
ATOM      8  N   UNL     1      30.152  26.440  19.073  0.00  0.00    +0.000 NA
ATOM      9  N   UNL     1      29.694  26.608  20.319  0.00  0.00    +0.000 N 
ATOM     10  C   UNL     1      29.408  25.650  21.221  0.00  0.00    +0.000 A 
ATOM     11  N   UNL     1      29.571  24.255  20.937  0.00  0.00    +0.000 NA
ENDROOT
BRANCH   1  15
ATOM     12  C   UNL     1      28.054  23.084  25.391  0.00  0.00    +0.000 A 
ATOM     13  C   UNL     1      29.330  23.227  24.885  0.00  0.00    +0.000 A 
ATOM     14  C   UNL     1      29.604  24.196  23.929  0.00  0.00    +0.000 A 
ATOM     15  C   UNL     1      28.620  25.025  23.471  0.00  0.00    +0.000 A 
ATOM     16  C   UNL     1      27.346  24.876  23.982  0.00  0.00    +0.000 A 
ATOM     17  C   UNL     1      27.047  23.907  24.946  0.00  0.00    +0.000 A 
BRANCH  12  19
ATOM     18  C   UNL     1      28.155  22.303  27.690  0.00  0.00    +0.000 C 
ATOM     19  O   UNL     1      27.814  22.121  26.333  0.00  0.00    +0.000 OA
ENDBRANCH  12  19
BRANCH  17  20
ATOM     20  O   UNL     1      25.790  23.737  25.471  0.00  0.00    +0.000 OA
ATOM     21  C   UNL     1      25.254  24.492  26.522  0.00  0.00    +0.000 C 
ENDBRANCH  17  20
ENDBRANCH   1  15
TORSDOF 3
ENDMDL
MODEL 9
REMARK VINA RESULT:      -6.4     21.979     23.424
REMARK  Name = 
REMARK  3 active torsions:
REMARK  status: ('A' for Active; 'I' for Inactive)
REMARK    1  A    between atoms: O_2  and  C_3
REMARK    2  A    between atoms: C_6  and  C_7
REMARK    3  A    between atoms: C_19  and  O_20
REMARK                            x       y       z     vdW  Elec       q    Type
REMARK                         _______ _______ _______ _____ _____    ______ ____
ROOT
ATOM      1  C   UNL     1      28.887  26.490  22.130  0.00  0.00    +0.000 A 
ATOM      2  C   UNL     1      28.776  27.858  22.234  0.00  0.00    +0.000 A 
ATOM      3  N   UNL     1      29.163  28.708  21.268  0.00  0.00    +0.000 NA
ATOM      4  C   UNL     1      29.693  28.172  20.135  0.00  0.00    +0.000 A 
ATOM      5  C   UNL     1      30.181  28.712  18.977  0.00  0.00    +0.000 A 
ATOM      6  C   UNL     1      30.598  27.691  18.151  0.00  0.00    +0.000 A 
ATOM      7  C   UNL     1      31.195  27.772  16.795  0.00  0.00    +0.000 C 
ATOM      8  N   UNL     1      30.356  26.542  18.818  0.00  0.00    +0.000 NA
ATOM      9  N   UNL     1      29.814  26.839  20.005  0.00  0.00    +0.000 N 
ATOM     10  C   UNL     1      29.429  25.977  20.967  0.00  0.00    +0.000 A 
ATOM     11  N   UNL     1      29.562  24.558  20.823  0.00  0.00    +0.000 NA
ENDROOT
BRANCH   1  15
ATOM     12  C   UNL     1      27.590  23.869  25.215  0.00  0.00    +0.000 A 
ATOM     13  C   UNL     1      26.702  24.375  24.286  0.00  0.00    +0.000 A 
ATOM     14  C   UNL     1      27.142  25.230  23.284  0.00  0.00    +0.000 A 
ATOM     15  C   UNL     1      28.457  25.587  23.197  0.00  0.00    +0.000 A 
ATOM     16  C   UNL     1      29.339  25.078  24.129  0.00  0.00    +0.000 A 
ATOM     17  C   UNL     1      28.919  24.215  25.147  0.00  0.00    +0.000 A 
BRANCH  12  19
ATOM     18  C   UNL     1      26.452  23.510  27.332  0.00  0.00    +0.000 C 
ATOM     19  O   UNL     1      27.128  23.029  26.190  0.00  0.00    +0.000 OA
ENDBRANCH  12  19
BRANCH  17  20
ATOM     20  O   UNL     1      29.774  23.694  26.086  0.00  0.00    +0.000 OA
ATOM     21  C   UNL     1      30.868  22.869  25.801  0.00  0.00    +0.000 C 
ENDBRANCH  17  20
ENDBRANCH   1  15
TORSDOF 3
ENDMDL
MODEL 10
REMARK VINA RESULT:      -6.3      3.953      6.680
REMARK  Name = 
REMARK  3 active torsions:
REMARK  status: ('A' for Active; 'I' for Inactive)
REMARK    1  A    between atoms: O_2  and  C_3
REMARK    2  A    between atoms: C_6  and  C_7
REMARK    3  A    between atoms: C_19  and  O_20
REMARK                            x       y       z     vdW  Elec       q    Type
REMARK                         _______ _______ _______ _____ _____    ______ ____
ROOT
ATOM      1  C   UNL     1      19.341  10.786  37.384  0.00  0.00    +0.000 A 
ATOM      2  C   UNL     1      19.824   9.754  36.613  0.00  0.00    +0.000 A 
ATOM      3  N   UNL     1      21.133   9.543  36.393  0.00  0.00    +0.000 NA
ATOM      4  C   UNL     1      22.013  10.406  36.970  0.00  0.00    +0.000 A 
ATOM      5  C   UNL     1      23.378  10.501  36.968  0.00  0.00    +0.000 A 
ATOM      6  C   UNL     1      23.750  11.584  37.732  0.00  0.00    +0.000 A 
ATOM      7  C   UNL     1      25.111  12.093  38.029  0.00  0.00    +0.000 C 
ATOM      8  N   UNL     1      22.606  12.135  38.190  0.00  0.00    +0.000 NA
ATOM      9  N   UNL     1      21.570  11.423  37.729  0.00  0.00    +0.000 N 
ATOM     10  C   UNL     1      20.261  11.644  37.956  0.00  0.00    +0.000 A 
ATOM     11  N   UNL     1      19.795  12.731  38.766  0.00  0.00    +0.000 NA
ENDROOT
BRANCH   1  15
ATOM     12  C   UNL     1      15.184  11.352  38.069  0.00  0.00    +0.000 A 
ATOM     13  C   UNL     1      15.923  10.480  38.843  0.00  0.00    +0.000 A 
ATOM     14  C   UNL     1      17.281  10.306  38.607  0.00  0.00    +0.000 A 
ATOM     15  C   UNL     1      17.910  10.992  37.607  0.00  0.00    +0.000 A 
ATOM     16  C   UNL     1      17.164  11.863  36.838  0.00  0.00    +0.000 A 
ATOM     17  C   UNL     1      15.796  12.054  37.058  0.00  0.00    +0.000 A 
BRANCH  12  19
ATOM     18  C   UNL     1      12.878  10.657  37.750  0.00  0.00    +0.000 C 
ATOM     19  O   UNL     1      13.849  11.503  38.326  0.00  0.00    +0.000 OA
ENDBRANCH  12  19
BRANCH  17  20
ATOM     20  O   UNL     1      15.031  12.913  36.308  0.00  0.00    +0.000 OA
ATOM     21  C   UNL     1      14.647  12.690  34.981  0.00  0.00    +0.000 C 
ENDBRANCH  17  20
ENDBRANCH   1  15
TORSDOF 3
ENDMDL
