MODEL 1
REMARK VINA RESULT:      -7.7      0.000      0.000
REMARK  Name = 
REMARK  8 active torsions:
REMARK  status: ('A' for Active; 'I' for Inactive)
REMARK    1  A    between atoms: C_2  and  S_3
REMARK    2  A    between atoms: C_2  and  C_11
REMARK    3  A    between atoms: S_3  and  C_4
REMARK    4  A    between atoms: C_4  and  C_5
REMARK    5  A    between atoms: N_13  and  C_14
REMARK    6  A    between atoms: C_19  and  C_20
REMARK    7  A    between atoms: N_22  and  C_23
REMARK    8  A    between atoms: C_23  and  C_25
REMARK                            x       y       z     vdW  Elec       q    Type
REMARK                         _______ _______ _______ _____ _____    ______ ____
ROOT
ATOM      1  C   UNL     1      40.290  -0.060  14.515  0.00  0.00    +0.000 A 
ATOM      2  C   UNL     1      41.349   0.755  14.095  0.00  0.00    +0.000 A 
ATOM      3  C   UNL     1      42.552   0.131  13.800  0.00  0.00    +0.000 A 
ATOM      4  C   UNL     1      42.706  -1.233  13.916  0.00  0.00    +0.000 A 
ATOM      5  C   UNL     1      41.631  -1.980  14.333  0.00  0.00    +0.000 A 
ATOM      6  C   UNL     1      40.392  -1.407  14.644  0.00  0.00    +0.000 A 
ENDROOT
BRANCH   1   9
ATOM      7  C   UNL     1      38.092   0.961  13.874  0.00  0.00    +0.000 C 
ATOM      8  O   UNL     1      38.324   0.769  12.674  0.00  0.00    +0.000 OA
ATOM      9  N   UNL     1      39.034   0.569  14.823  0.00  0.00    +0.000 NA
BRANCH   7  11
ATOM     10  C   UNL     1      36.676   1.130  15.744  0.00  0.00    +0.000 C 
ATOM     11  C   UNL     1      36.765   1.628  14.242  0.00  0.00    +0.000 C 
BRANCH  11  12
ATOM     12  S   UNL     1      37.411   3.366  14.643  0.00  0.00    +0.000 S 
BRANCH  12  13
ATOM     13  C   UNL     1      37.382   3.483  16.455  0.00  0.00    +0.000 C 
BRANCH  13  14
ATOM     14  C   UNL     1      38.442   4.448  16.936  0.00  0.00    +0.000 A 
ATOM     15  C   UNL     1      38.543   4.752  18.260  0.00  0.00    +0.000 A 
ATOM     16  C   UNL     1      39.497   5.624  18.728  0.00  0.00    +0.000 A 
ATOM     17  C   UNL     1      40.388   6.223  17.859  0.00  0.00    +0.000 A 
ATOM     18  C   UNL     1      40.254   5.893  16.530  0.00  0.00    +0.000 A 
ATOM     19  C   UNL     1      39.313   5.027  16.045  0.00  0.00    +0.000 A 
ENDBRANCH  13  14
ENDBRANCH  12  13
ENDBRANCH  11  12
ENDBRANCH   7  11
ENDBRANCH   1   9
BRANCH   6  20
ATOM     20  C   UNL     1      39.274  -2.219  15.082  0.00  0.00    +0.000 C 
ATOM     21  O   UNL     1      38.547  -2.712  14.166  0.00  0.00    +0.000 OA
ATOM     22  N   UNL     1      38.954  -2.485  16.431  0.00  0.00    +0.000 NA
BRANCH  22  23
ATOM     23  C   UNL     1      37.680  -3.404  16.669  0.00  0.00    +0.000 C 
ATOM     24  C   UNL     1      38.381  -4.155  17.972  0.00  0.00    +0.000 C 
BRANCH  23  25
ATOM     25  C   UNL     1      36.897  -2.312  17.555  0.00  0.00    +0.000 A 
ATOM     26  C   UNL     1      35.592  -2.094  17.260  0.00  0.00    +0.000 A 
ATOM     27  C   UNL     1      34.904  -1.130  18.009  0.00  0.00    +0.000 A 
ATOM     28  C   UNL     1      35.583  -0.445  19.013  0.00  0.00    +0.000 A 
ATOM     29  C   UNL     1      36.912  -0.704  19.272  0.00  0.00    +0.000 A 
ATOM     30  C   UNL     1      37.593  -1.670  18.520  0.00  0.00    +0.000 A 
ENDBRANCH  23  25
ENDBRANCH  22  23
ENDBRANCH   6  20
TORSDOF 8
ENDMDL
MODEL 2
REMARK VINA RESULT:      -7.6      2.050      7.545
REMARK  Name = 
REMARK  8 active torsions:
REMARK  status: ('A' for Active; 'I' for Inactive)
REMARK    1  A    between atoms: C_2  and  S_3
REMARK    2  A    between atoms: C_2  and  C_11
REMARK    3  A    between atoms: S_3  and  C_4
REMARK    4  A    between atoms: C_4  and  C_5
REMARK    5  A    between atoms: N_13  and  C_14
REMARK    6  A    between atoms: C_19  and  C_20
REMARK    7  A    between atoms: N_22  and  C_23
REMARK    8  A    between atoms: C_23  and  C_25
REMARK                            x       y       z     vdW  Elec       q    Type
REMARK                         _______ _______ _______ _____ _____    ______ ____
ROOT
ATOM      1  C   UNL     1      37.230   0.933  15.613  0.00  0.00    +0.000 A 
ATOM      2  C   UNL     1      36.488  -0.202  15.963  0.00  0.00    +0.000 A 
ATOM      3  C   UNL     1      35.282   0.005  16.616  0.00  0.00    +0.000 A 
ATOM      4  C   UNL     1      34.828   1.271  16.911  0.00  0.00    +0.000 A 
ATOM      5  C   UNL     1      35.600   2.346  16.541  0.00  0.00    +0.000 A 
ATOM      6  C   UNL     1      36.826   2.200  15.881  0.00  0.00    +0.000 A 
ENDROOT
BRANCH   1   9
ATOM      7  C   UNL     1      38.612   0.485  13.568  0.00  0.00    +0.000 C 
ATOM      8  O   UNL     1      37.596   0.416  12.866  0.00  0.00    +0.000 OA
ATOM      9  N   UNL     1      38.483   0.739  14.933  0.00  0.00    +0.000 NA
BRANCH   7  11
ATOM     10  C   UNL     1      40.866   0.215  14.185  0.00  0.00    +0.000 C 
ATOM     11  C   UNL     1      39.965   0.284  12.882  0.00  0.00    +0.000 C 
BRANCH  11  12
ATOM     12  S   UNL     1      39.875  -1.589  12.599  0.00  0.00    +0.000 S 
BRANCH  12  13
ATOM     13  C   UNL     1      40.124  -2.335  14.236  0.00  0.00    +0.000 C 
BRANCH  13  14
ATOM     14  C   UNL     1      38.828  -2.924  14.747  0.00  0.00    +0.000 A 
ATOM     15  C   UNL     1      37.768  -3.084  13.906  0.00  0.00    +0.000 A 
ATOM     16  C   UNL     1      36.579  -3.617  14.340  0.00  0.00    +0.000 A 
ATOM     17  C   UNL     1      36.424  -4.010  15.655  0.00  0.00    +0.000 A 
ATOM     18  C   UNL     1      37.515  -3.832  16.474  0.00  0.00    +0.000 A 
ATOM     19  C   UNL     1      38.706  -3.304  16.061  0.00  0.00    +0.000 A 
ENDBRANCH  13  14
ENDBRANCH  12  13
ENDBRANCH  11  12
ENDBRANCH   7  11
ENDBRANCH   1   9
BRANCH   6  20
ATOM     20  C   UNL     1      37.621   3.352  15.502  0.00  0.00    +0.000 C 
ATOM     21  O   UNL     1      37.590   3.674  14.275  0.00  0.00    +0.000 OA
ATOM     22  N   UNL     1      38.406   4.114  16.394  0.00  0.00    +0.000 NA
BRANCH  22  23
ATOM     23  C   UNL     1      39.192   5.334  15.750  0.00  0.00    +0.000 C 
ATOM     24  C   UNL     1      37.909   6.364  15.967  0.00  0.00    +0.000 C 
BRANCH  23  25
ATOM     25  C   UNL     1      39.928   5.752  17.118  0.00  0.00    +0.000 A 
ATOM     26  C   UNL     1      39.212   5.653  18.264  0.00  0.00    +0.000 A 
ATOM     27  C   UNL     1      39.835   6.036  19.460  0.00  0.00    +0.000 A 
ATOM     28  C   UNL     1      41.148   6.495  19.420  0.00  0.00    +0.000 A 
ATOM     29  C   UNL     1      41.833   6.577  18.226  0.00  0.00    +0.000 A 
ATOM     30  C   UNL     1      41.204   6.192  17.035  0.00  0.00    +0.000 A 
ENDBRANCH  23  25
ENDBRANCH  22  23
ENDBRANCH   6  20
TORSDOF 8
ENDMDL
MODEL 3
REMARK VINA RESULT:      -7.5      1.810      2.713
REMARK  Name = 
REMARK  8 active torsions:
REMARK  status: ('A' for Active; 'I' for Inactive)
REMARK    1  A    between atoms: C_2  and  S_3
REMARK    2  A    between atoms: C_2  and  C_11
REMARK    3  A    between atoms: S_3  and  C_4
REMARK    4  A    between atoms: C_4  and  C_5
REMARK    5  A    between atoms: N_13  and  C_14
REMARK    6  A    between atoms: C_19  and  C_20
REMARK    7  A    between atoms: N_22  and  C_23
REMARK    8  A    between atoms: C_23  and  C_25
REMARK                            x       y       z     vdW  Elec       q    Type
REMARK                         _______ _______ _______ _____ _____    ______ ____
ROOT
ATOM      1  C   UNL     1      39.900  -0.379  14.811  0.00  0.00    +0.000 A 
ATOM      2  C   UNL     1      40.993  -0.137  13.970  0.00  0.00    +0.000 A 
ATOM      3  C   UNL     1      41.824  -1.210  13.683  0.00  0.00    +0.000 A 
ATOM      4  C   UNL     1      41.589  -2.464  14.202  0.00  0.00    +0.000 A 
ATOM      5  C   UNL     1      40.501  -2.640  15.021  0.00  0.00    +0.000 A 
ATOM      6  C   UNL     1      39.627  -1.596  15.346  0.00  0.00    +0.000 A 
ENDROOT
BRANCH   1   9
ATOM      7  C   UNL     1      37.933   1.103  14.343  0.00  0.00    +0.000 C 
ATOM      8  O   UNL     1      37.670   0.471  13.312  0.00  0.00    +0.000 OA
ATOM      9  N   UNL     1      39.027   0.721  15.118  0.00  0.00    +0.000 NA
BRANCH   7  11
ATOM     10  C   UNL     1      36.876   1.978  16.253  0.00  0.00    +0.000 C 
ATOM     11  C   UNL     1      37.026   2.281  14.705  0.00  0.00    +0.000 C 
BRANCH  11  12
ATOM     12  S   UNL     1      38.351   3.625  14.890  0.00  0.00    +0.000 S 
BRANCH  12  13
ATOM     13  C   UNL     1      37.741   4.724  16.200  0.00  0.00    +0.000 C 
BRANCH  13  14
ATOM     14  C   UNL     1      38.899   5.290  16.992  0.00  0.00    +0.000 A 
ATOM     15  C   UNL     1      38.866   5.282  18.354  0.00  0.00    +0.000 A 
ATOM     16  C   UNL     1      39.903   5.787  19.102  0.00  0.00    +0.000 A 
ATOM     17  C   UNL     1      41.018   6.321  18.486  0.00  0.00    +0.000 A 
ATOM     18  C   UNL     1      41.014   6.312  17.110  0.00  0.00    +0.000 A 
ATOM     19  C   UNL     1      39.993   5.815  16.349  0.00  0.00    +0.000 A 
ENDBRANCH  13  14
ENDBRANCH  12  13
ENDBRANCH  11  12
ENDBRANCH   7  11
ENDBRANCH   1   9
BRANCH   6  20
ATOM     20  C   UNL     1      38.485  -1.810  16.213  0.00  0.00    +0.000 C 
ATOM     21  O   UNL     1      38.632  -1.470  17.427  0.00  0.00    +0.000 OA
ATOM     22  N   UNL     1      37.253  -2.360  15.798  0.00  0.00    +0.000 NA
BRANCH  22  23
ATOM     23  C   UNL     1      36.144  -2.498  16.926  0.00  0.00    +0.000 C 
ATOM     24  C   UNL     1      35.237  -1.268  16.282  0.00  0.00    +0.000 C 
BRANCH  23  25
ATOM     25  C   UNL     1      35.335  -3.666  16.170  0.00  0.00    +0.000 A 
ATOM     26  C   UNL     1      35.925  -4.884  16.097  0.00  0.00    +0.000 A 
ATOM     27  C   UNL     1      35.240  -5.903  15.422  0.00  0.00    +0.000 A 
ATOM     28  C   UNL     1      33.996  -5.624  14.862  0.00  0.00    +0.000 A 
ATOM     29  C   UNL     1      33.440  -4.366  14.964  0.00  0.00    +0.000 A 
ATOM     30  C   UNL     1      34.130  -3.353  15.642  0.00  0.00    +0.000 A 
ENDBRANCH  23  25
ENDBRANCH  22  23
ENDBRANCH   6  20
TORSDOF 8
ENDMDL
MODEL 4
REMARK VINA RESULT:      -7.4      1.448      5.113
REMARK  Name = 
REMARK  8 active torsions:
REMARK  status: ('A' for Active; 'I' for Inactive)
REMARK    1  A    between atoms: C_2  and  S_3
REMARK    2  A    between atoms: C_2  and  C_11
REMARK    3  A    between atoms: S_3  and  C_4
REMARK    4  A    between atoms: C_4  and  C_5
REMARK    5  A    between atoms: N_13  and  C_14
REMARK    6  A    between atoms: C_19  and  C_20
REMARK    7  A    between atoms: N_22  and  C_23
REMARK    8  A    between atoms: C_23  and  C_25
REMARK                            x       y       z     vdW  Elec       q    Type
REMARK                         _______ _______ _______ _____ _____    ______ ____
ROOT
ATOM      1  C   UNL     1      37.697  -1.228  17.407  0.00  0.00    +0.000 A 
ATOM      2  C   UNL     1      37.221  -1.472  18.701  0.00  0.00    +0.000 A 
ATOM      3  C   UNL     1      37.684  -2.610  19.344  0.00  0.00    +0.000 A 
ATOM      4  C   UNL     1      38.575  -3.469  18.739  0.00  0.00    +0.000 A 
ATOM      5  C   UNL     1      39.006  -3.177  17.468  0.00  0.00    +0.000 A 
ATOM      6  C   UNL     1      38.575  -2.043  16.770  0.00  0.00    +0.000 A 
ENDROOT
BRANCH   1   9
ATOM      7  C   UNL     1      36.043   0.024  15.997  0.00  0.00    +0.000 C 
ATOM      8  O   UNL     1      35.321  -0.977  15.913  0.00  0.00    +0.000 OA
ATOM      9  N   UNL     1      37.230  -0.051  16.725  0.00  0.00    +0.000 NA
BRANCH   7  11
ATOM     10  C   UNL     1      34.848   1.983  16.512  0.00  0.00    +0.000 C 
ATOM     11  C   UNL     1      35.581   1.297  15.285  0.00  0.00    +0.000 C 
BRANCH  11  12
ATOM     12  S   UNL     1      37.182   2.305  15.416  0.00  0.00    +0.000 S 
BRANCH  12  13
ATOM     13  C   UNL     1      36.911   3.461  16.789  0.00  0.00    +0.000 C 
BRANCH  13  14
ATOM     14  C   UNL     1      38.119   4.352  16.971  0.00  0.00    +0.000 A 
ATOM     15  C   UNL     1      38.847   4.751  15.890  0.00  0.00    +0.000 A 
ATOM     16  C   UNL     1      39.948   5.561  16.023  0.00  0.00    +0.000 A 
ATOM     17  C   UNL     1      40.352   5.999  17.270  0.00  0.00    +0.000 A 
ATOM     18  C   UNL     1      39.594   5.575  18.337  0.00  0.00    +0.000 A 
ATOM     19  C   UNL     1      38.495   4.769  18.225  0.00  0.00    +0.000 A 
ENDBRANCH  13  14
ENDBRANCH  12  13
ENDBRANCH  11  12
ENDBRANCH   7  11
ENDBRANCH   1   9
BRANCH   6  20
ATOM     20  C   UNL     1      39.047  -1.758  15.429  0.00  0.00    +0.000 C 
ATOM     21  O   UNL     1      38.496  -2.410  14.490  0.00  0.00    +0.000 OA
ATOM     22  N   UNL     1      40.058  -0.823  15.115  0.00  0.00    +0.000 NA
BRANCH  22  23
ATOM     23  C   UNL     1      40.408  -0.678  13.573  0.00  0.00    +0.000 C 
ATOM     24  C   UNL     1      40.164   0.963  13.602  0.00  0.00    +0.000 C 
BRANCH  23  25
ATOM     25  C   UNL     1      41.997  -0.577  13.810  0.00  0.00    +0.000 A 
ATOM     26  C   UNL     1      42.589  -1.590  14.489  0.00  0.00    +0.000 A 
ATOM     27  C   UNL     1      43.969  -1.503  14.721  0.00  0.00    +0.000 A 
ATOM     28  C   UNL     1      44.663  -0.392  14.251  0.00  0.00    +0.000 A 
ATOM     29  C   UNL     1      44.012   0.612  13.565  0.00  0.00    +0.000 A 
ATOM     30  C   UNL     1      42.634   0.517  13.336  0.00  0.00    +0.000 A 
ENDBRANCH  23  25
ENDBRANCH  22  23
ENDBRANCH   6  20
TORSDOF 8
ENDMDL
MODEL 5
REMARK VINA RESULT:      -7.3      1.993      6.465
REMARK  Name = 
REMARK  8 active torsions:
REMARK  status: ('A' for Active; 'I' for Inactive)
REMARK    1  A    between atoms: C_2  and  S_3
REMARK    2  A    between atoms: C_2  and  C_11
REMARK    3  A    between atoms: S_3  and  C_4
REMARK    4  A    between atoms: C_4  and  C_5
REMARK    5  A    between atoms: N_13  and  C_14
REMARK    6  A    between atoms: C_19  and  C_20
REMARK    7  A    between atoms: N_22  and  C_23
REMARK    8  A    between atoms: C_23  and  C_25
REMARK                            x       y       z     vdW  Elec       q    Type
REMARK                         _______ _______ _______ _____ _____    ______ ____
ROOT
ATOM      1  C   UNL     1      38.204   3.940  16.900  0.00  0.00    +0.000 A 
ATOM      2  C   UNL     1      38.197   4.797  18.008  0.00  0.00    +0.000 A 
ATOM      3  C   UNL     1      39.056   5.885  17.974  0.00  0.00    +0.000 A 
ATOM      4  C   UNL     1      39.886   6.117  16.900  0.00  0.00    +0.000 A 
ATOM      5  C   UNL     1      39.848   5.241  15.842  0.00  0.00    +0.000 A 
ATOM      6  C   UNL     1      39.002   4.127  15.819  0.00  0.00    +0.000 A 
ENDROOT
BRANCH   1   9
ATOM      7  C   UNL     1      36.048   2.788  16.340  0.00  0.00    +0.000 C 
ATOM      8  O   UNL     1      35.626   3.802  15.769  0.00  0.00    +0.000 OA
ATOM      9  N   UNL     1      37.318   2.808  16.916  0.00  0.00    +0.000 NA
BRANCH   7  11
ATOM     10  C   UNL     1      35.850   0.717  15.244  0.00  0.00    +0.000 C 
ATOM     11  C   UNL     1      35.134   1.561  16.378  0.00  0.00    +0.000 C 
BRANCH  11  12
ATOM     12  S   UNL     1      35.927   0.650  17.840  0.00  0.00    +0.000 S 
BRANCH  12  13
ATOM     13  C   UNL     1      35.301  -1.051  17.742  0.00  0.00    +0.000 C 
BRANCH  13  14
ATOM     14  C   UNL     1      36.441  -2.038  17.859  0.00  0.00    +0.000 A 
ATOM     15  C   UNL     1      37.467  -1.800  18.724  0.00  0.00    +0.000 A 
ATOM     16  C   UNL     1      38.516  -2.678  18.855  0.00  0.00    +0.000 A 
ATOM     17  C   UNL     1      38.560  -3.837  18.105  0.00  0.00    +0.000 A 
ATOM     18  C   UNL     1      37.507  -4.042  17.243  0.00  0.00    +0.000 A 
ATOM     19  C   UNL     1      36.455  -3.181  17.099  0.00  0.00    +0.000 A 
ENDBRANCH  13  14
ENDBRANCH  12  13
ENDBRANCH  11  12
ENDBRANCH   7  11
ENDBRANCH   1   9
BRANCH   6  20
ATOM     20  C   UNL     1      38.982   3.218  14.689  0.00  0.00    +0.000 C 
ATOM     21  O   UNL     1      38.290   3.583  13.689  0.00  0.00    +0.000 OA
ATOM     22  N   UNL     1      39.666   1.985  14.638  0.00  0.00    +0.000 NA
BRANCH  22  23
ATOM     23  C   UNL     1      39.497   1.157  13.293  0.00  0.00    +0.000 C 
ATOM     24  C   UNL     1      41.005   1.594  12.755  0.00  0.00    +0.000 C 
BRANCH  23  25
ATOM     25  C   UNL     1      39.986  -0.235  13.934  0.00  0.00    +0.000 A 
ATOM     26  C   UNL     1      39.032  -1.058  14.434  0.00  0.00    +0.000 A 
ATOM     27  C   UNL     1      39.446  -2.264  15.015  0.00  0.00    +0.000 A 
ATOM     28  C   UNL     1      40.806  -2.561  15.055  0.00  0.00    +0.000 A 
ATOM     29  C   UNL     1      41.737  -1.688  14.532  0.00  0.00    +0.000 A 
ATOM     30  C   UNL     1      41.315  -0.486  13.951  0.00  0.00    +0.000 A 
ENDBRANCH  23  25
ENDBRANCH  22  23
ENDBRANCH   6  20
TORSDOF 8
ENDMDL
MODEL 6
REMARK VINA RESULT:      -7.3      1.886      5.060
REMARK  Name = 
REMARK  8 active torsions:
REMARK  status: ('A' for Active; 'I' for Inactive)
REMARK    1  A    between atoms: C_2  and  S_3
REMARK    2  A    between atoms: C_2  and  C_11
REMARK    3  A    between atoms: S_3  and  C_4
REMARK    4  A    between atoms: C_4  and  C_5
REMARK    5  A    between atoms: N_13  and  C_14
REMARK    6  A    between atoms: C_19  and  C_20
REMARK    7  A    between atoms: N_22  and  C_23
REMARK    8  A    between atoms: C_23  and  C_25
REMARK                            x       y       z     vdW  Elec       q    Type
REMARK                         _______ _______ _______ _____ _____    ______ ____
ROOT
ATOM      1  C   UNL     1      36.253  -0.063  16.621  0.00  0.00    +0.000 A 
ATOM      2  C   UNL     1      34.987   0.143  17.184  0.00  0.00    +0.000 A 
ATOM      3  C   UNL     1      34.166  -0.966  17.323  0.00  0.00    +0.000 A 
ATOM      4  C   UNL     1      34.573  -2.221  16.926  0.00  0.00    +0.000 A 
ATOM      5  C   UNL     1      35.826  -2.360  16.380  0.00  0.00    +0.000 A 
ATOM      6  C   UNL     1      36.698  -1.278  16.214  0.00  0.00    +0.000 A 
ENDROOT
BRANCH   1   9
ATOM      7  C   UNL     1      37.209   1.854  15.318  0.00  0.00    +0.000 C 
ATOM      8  O   UNL     1      36.508   1.570  14.338  0.00  0.00    +0.000 OA
ATOM      9  N   UNL     1      37.119   1.075  16.470  0.00  0.00    +0.000 NA
BRANCH   7  11
ATOM     10  C   UNL     1      37.295   3.894  14.152  0.00  0.00    +0.000 C 
ATOM     11  C   UNL     1      38.145   3.059  15.197  0.00  0.00    +0.000 C 
BRANCH  11  12
ATOM     12  S   UNL     1      37.583   4.022  16.731  0.00  0.00    +0.000 S 
BRANCH  12  13
ATOM     13  C   UNL     1      38.224   5.705  16.504  0.00  0.00    +0.000 C 
BRANCH  13  14
ATOM     14  C   UNL     1      38.678   6.277  17.827  0.00  0.00    +0.000 A 
ATOM     15  C   UNL     1      38.067   7.381  18.343  0.00  0.00    +0.000 A 
ATOM     16  C   UNL     1      38.455   7.924  19.544  0.00  0.00    +0.000 A 
ATOM     17  C   UNL     1      39.486   7.359  20.269  0.00  0.00    +0.000 A 
ATOM     18  C   UNL     1      40.078   6.247  19.718  0.00  0.00    +0.000 A 
ATOM     19  C   UNL     1      39.706   5.692  18.524  0.00  0.00    +0.000 A 
ENDBRANCH  13  14
ENDBRANCH  12  13
ENDBRANCH  11  12
ENDBRANCH   7  11
ENDBRANCH   1   9
BRANCH   6  20
ATOM     20  C   UNL     1      38.016  -1.454  15.636  0.00  0.00    +0.000 C 
ATOM     21  O   UNL     1      38.991  -1.443  16.449  0.00  0.00    +0.000 OA
ATOM     22  N   UNL     1      38.272  -1.630  14.259  0.00  0.00    +0.000 NA
BRANCH  22  23
ATOM     23  C   UNL     1      39.799  -1.804  13.858  0.00  0.00    +0.000 C 
ATOM     24  C   UNL     1      39.409  -2.515  12.411  0.00  0.00    +0.000 C 
BRANCH  23  25
ATOM     25  C   UNL     1      39.941  -0.324  13.241  0.00  0.00    +0.000 A 
ATOM     26  C   UNL     1      40.926   0.464  13.738  0.00  0.00    +0.000 A 
ATOM     27  C   UNL     1      41.046   1.763  13.225  0.00  0.00    +0.000 A 
ATOM     28  C   UNL     1      40.158   2.183  12.239  0.00  0.00    +0.000 A 
ATOM     29  C   UNL     1      39.173   1.341  11.768  0.00  0.00    +0.000 A 
ATOM     30  C   UNL     1      39.060   0.044  12.284  0.00  0.00    +0.000 A 
ENDBRANCH  23  25
ENDBRANCH  22  23
ENDBRANCH   6  20
TORSDOF 8
ENDMDL
MODEL 7
REMARK VINA RESULT:      -7.1      2.237      5.902
REMARK  Name = 
REMARK  8 active torsions:
REMARK  status: ('A' for Active; 'I' for Inactive)
REMARK    1  A    between atoms: C_2  and  S_3
REMARK    2  A    between atoms: C_2  and  C_11
REMARK    3  A    between atoms: S_3  and  C_4
REMARK    4  A    between atoms: C_4  and  C_5
REMARK    5  A    between atoms: N_13  and  C_14
REMARK    6  A    between atoms: C_19  and  C_20
REMARK    7  A    between atoms: N_22  and  C_23
REMARK    8  A    between atoms: C_23  and  C_25
REMARK                            x       y       z     vdW  Elec       q    Type
REMARK                         _______ _______ _______ _____ _____    ______ ____
ROOT
ATOM      1  C   UNL     1      38.852   4.639  15.771  0.00  0.00    +0.000 A 
ATOM      2  C   UNL     1      39.963   5.447  16.047  0.00  0.00    +0.000 A 
ATOM      3  C   UNL     1      40.160   5.825  17.367  0.00  0.00    +0.000 A 
ATOM      4  C   UNL     1      39.302   5.427  18.369  0.00  0.00    +0.000 A 
ATOM      5  C   UNL     1      38.230   4.635  18.036  0.00  0.00    +0.000 A 
ATOM      6  C   UNL     1      37.980   4.222  16.723  0.00  0.00    +0.000 A 
ENDROOT
BRANCH   1   9
ATOM      7  C   UNL     1      39.147   3.074  13.834  0.00  0.00    +0.000 C 
ATOM      8  O   UNL     1      39.847   2.319  14.520  0.00  0.00    +0.000 OA
ATOM      9  N   UNL     1      38.632   4.235  14.409  0.00  0.00    +0.000 NA
BRANCH   7  11
ATOM     10  C   UNL     1      40.007   3.580  11.704  0.00  0.00    +0.000 C 
ATOM     11  C   UNL     1      38.890   2.679  12.378  0.00  0.00    +0.000 C 
BRANCH  11  12
ATOM     12  S   UNL     1      39.880   1.062  12.334  0.00  0.00    +0.000 S 
BRANCH  12  13
ATOM     13  C   UNL     1      38.641  -0.255  12.167  0.00  0.00    +0.000 C 
BRANCH  13  14
ATOM     14  C   UNL     1      38.718  -1.200  13.344  0.00  0.00    +0.000 A 
ATOM     15  C   UNL     1      39.503  -0.899  14.416  0.00  0.00    +0.000 A 
ATOM     16  C   UNL     1      39.593  -1.737  15.501  0.00  0.00    +0.000 A 
ATOM     17  C   UNL     1      38.881  -2.921  15.535  0.00  0.00    +0.000 A 
ATOM     18  C   UNL     1      38.100  -3.191  14.435  0.00  0.00    +0.000 A 
ATOM     19  C   UNL     1      37.998  -2.370  13.346  0.00  0.00    +0.000 A 
ENDBRANCH  13  14
ENDBRANCH  12  13
ENDBRANCH  11  12
ENDBRANCH   7  11
ENDBRANCH   1   9
BRANCH   6  20
ATOM     20  C   UNL     1      36.841   3.385  16.399  0.00  0.00    +0.000 C 
ATOM     21  O   UNL     1      35.833   3.977  15.903  0.00  0.00    +0.000 OA
ATOM     22  N   UNL     1      36.787   1.988  16.599  0.00  0.00    +0.000 NA
BRANCH  22  23
ATOM     23  C   UNL     1      35.432   1.281  16.168  0.00  0.00    +0.000 C 
ATOM     24  C   UNL     1      36.055   0.834  14.696  0.00  0.00    +0.000 C 
BRANCH  23  25
ATOM     25  C   UNL     1      35.779  -0.116  16.887  0.00  0.00    +0.000 A 
ATOM     26  C   UNL     1      36.564  -0.068  17.991  0.00  0.00    +0.000 A 
ATOM     27  C   UNL     1      36.892  -1.280  18.613  0.00  0.00    +0.000 A 
ATOM     28  C   UNL     1      36.404  -2.468  18.076  0.00  0.00    +0.000 A 
ATOM     29  C   UNL     1      35.609  -2.461  16.949  0.00  0.00    +0.000 A 
ATOM     30  C   UNL     1      35.284  -1.246  16.334  0.00  0.00    +0.000 A 
ENDBRANCH  23  25
ENDBRANCH  22  23
ENDBRANCH   6  20
TORSDOF 8
ENDMDL
MODEL 8
REMARK VINA RESULT:      -7.1      2.420      7.085
REMARK  Name = 
REMARK  8 active torsions:
REMARK  status: ('A' for Active; 'I' for Inactive)
REMARK    1  A    between atoms: C_2  and  S_3
REMARK    2  A    between atoms: C_2  and  C_11
REMARK    3  A    between atoms: S_3  and  C_4
REMARK    4  A    between atoms: C_4  and  C_5
REMARK    5  A    between atoms: N_13  and  C_14
REMARK    6  A    between atoms: C_19  and  C_20
REMARK    7  A    between atoms: N_22  and  C_23
REMARK    8  A    between atoms: C_23  and  C_25
REMARK                            x       y       z     vdW  Elec       q    Type
REMARK                         _______ _______ _______ _____ _____    ______ ____
ROOT
ATOM      1  C   UNL     1      39.252   2.482  14.342  0.00  0.00    +0.000 A 
ATOM      2  C   UNL     1      39.619   1.518  13.394  0.00  0.00    +0.000 A 
ATOM      3  C   UNL     1      40.408   1.938  12.334  0.00  0.00    +0.000 A 
ATOM      4  C   UNL     1      40.815   3.248  12.210  0.00  0.00    +0.000 A 
ATOM      5  C   UNL     1      40.423   4.148  13.171  0.00  0.00    +0.000 A 
ATOM      6  C   UNL     1      39.629   3.784  14.264  0.00  0.00    +0.000 A 
ENDROOT
BRANCH   1   9
ATOM      7  C   UNL     1      37.044   2.017  15.434  0.00  0.00    +0.000 C 
ATOM      8  O   UNL     1      36.438   2.351  14.408  0.00  0.00    +0.000 OA
ATOM      9  N   UNL     1      38.437   2.065  15.450  0.00  0.00    +0.000 NA
BRANCH   7  11
ATOM     10  C   UNL     1      34.822   2.182  16.186  0.00  0.00    +0.000 C 
ATOM     11  C   UNL     1      36.211   1.566  16.636  0.00  0.00    +0.000 C 
BRANCH  11  12
ATOM     12  S   UNL     1      35.835  -0.208  16.084  0.00  0.00    +0.000 S 
BRANCH  12  13
ATOM     13  C   UNL     1      37.264  -1.192  16.621  0.00  0.00    +0.000 C 
BRANCH  13  14
ATOM     14  C   UNL     1      38.132  -1.547  15.435  0.00  0.00    +0.000 A 
ATOM     15  C   UNL     1      39.475  -1.712  15.594  0.00  0.00    +0.000 A 
ATOM     16  C   UNL     1      40.291  -2.037  14.537  0.00  0.00    +0.000 A 
ATOM     17  C   UNL     1      39.765  -2.206  13.270  0.00  0.00    +0.000 A 
ATOM     18  C   UNL     1      38.406  -2.030  13.149  0.00  0.00    +0.000 A 
ATOM     19  C   UNL     1      37.578  -1.707  14.189  0.00  0.00    +0.000 A 
ENDBRANCH  13  14
ENDBRANCH  12  13
ENDBRANCH  11  12
ENDBRANCH   7  11
ENDBRANCH   1   9
BRANCH   6  20
ATOM     20  C   UNL     1      39.230   4.754  15.264  0.00  0.00    +0.000 C 
ATOM     21  O   UNL     1      38.165   5.402  15.024  0.00  0.00    +0.000 OA
ATOM     22  N   UNL     1      39.938   5.015  16.458  0.00  0.00    +0.000 NA
BRANCH  22  23
ATOM     23  C   UNL     1      39.309   6.123  17.405  0.00  0.00    +0.000 C 
ATOM     24  C   UNL     1      38.690   4.985  18.441  0.00  0.00    +0.000 C 
BRANCH  23  25
ATOM     25  C   UNL     1      40.657   6.352  18.252  0.00  0.00    +0.000 A 
ATOM     26  C   UNL     1      41.801   6.561  17.555  0.00  0.00    +0.000 A 
ATOM     27  C   UNL     1      42.987   6.739  18.282  0.00  0.00    +0.000 A 
ATOM     28  C   UNL     1      42.939   6.694  19.672  0.00  0.00    +0.000 A 
ATOM     29  C   UNL     1      41.748   6.477  20.333  0.00  0.00    +0.000 A 
ATOM     30  C   UNL     1      40.567   6.302  19.601  0.00  0.00    +0.000 A 
ENDBRANCH  23  25
ENDBRANCH  22  23
ENDBRANCH   6  20
TORSDOF 8
ENDMDL
MODEL 9
REMARK VINA RESULT:      -7.1      3.123      7.760
REMARK  Name = 
REMARK  8 active torsions:
REMARK  status: ('A' for Active; 'I' for Inactive)
REMARK    1  A    between atoms: C_2  and  S_3
REMARK    2  A    between atoms: C_2  and  C_11
REMARK    3  A    between atoms: S_3  and  C_4
REMARK    4  A    between atoms: C_4  and  C_5
REMARK    5  A    between atoms: N_13  and  C_14
REMARK    6  A    between atoms: C_19  and  C_20
REMARK    7  A    between atoms: N_22  and  C_23
REMARK    8  A    between atoms: C_23  and  C_25
REMARK                            x       y       z     vdW  Elec       q    Type
REMARK                         _______ _______ _______ _____ _____    ______ ____
ROOT
ATOM      1  C   UNL     1      36.790   0.639  15.791  0.00  0.00    +0.000 A 
ATOM      2  C   UNL     1      36.333  -0.660  16.049  0.00  0.00    +0.000 A 
ATOM      3  C   UNL     1      35.142  -0.787  16.747  0.00  0.00    +0.000 A 
ATOM      4  C   UNL     1      34.433   0.314  17.174  0.00  0.00    +0.000 A 
ATOM      5  C   UNL     1      34.931   1.562  16.892  0.00  0.00    +0.000 A 
ATOM      6  C   UNL     1      36.127   1.754  16.191  0.00  0.00    +0.000 A 
ENDROOT
BRANCH   1   9
ATOM      7  C   UNL     1      38.128   0.789  13.676  0.00  0.00    +0.000 C 
ATOM      8  O   UNL     1      37.108   0.645  12.991  0.00  0.00    +0.000 OA
ATOM      9  N   UNL     1      38.022   0.792  15.066  0.00  0.00    +0.000 NA
BRANCH   7  11
ATOM     10  C   UNL     1      40.421   0.847  14.198  0.00  0.00    +0.000 C 
ATOM     11  C   UNL     1      39.460   0.954  12.941  0.00  0.00    +0.000 C 
BRANCH  11  12
ATOM     12  S   UNL     1      39.696  -0.834  12.354  0.00  0.00    +0.000 S 
BRANCH  12  13
ATOM     13  C   UNL     1      40.309  -1.739  13.803  0.00  0.00    +0.000 C 
BRANCH  13  14
ATOM     14  C   UNL     1      39.205  -2.581  14.402  0.00  0.00    +0.000 A 
ATOM     15  C   UNL     1      38.136  -2.953  13.642  0.00  0.00    +0.000 A 
ATOM     16  C   UNL     1      37.118  -3.719  14.157  0.00  0.00    +0.000 A 
ATOM     17  C   UNL     1      37.150  -4.136  15.474  0.00  0.00    +0.000 A 
ATOM     18  C   UNL     1      38.243  -3.740  16.210  0.00  0.00    +0.000 A 
ATOM     19  C   UNL     1      39.266  -2.979  15.715  0.00  0.00    +0.000 A 
ENDBRANCH  13  14
ENDBRANCH  12  13
ENDBRANCH  11  12
ENDBRANCH   7  11
ENDBRANCH   1   9
BRANCH   6  20
ATOM     20  C   UNL     1      36.630   3.084  15.905  0.00  0.00    +0.000 C 
ATOM     21  O   UNL     1      37.466   3.557  16.735  0.00  0.00    +0.000 OA
ATOM     22  N   UNL     1      36.254   3.863  14.789  0.00  0.00    +0.000 NA
BRANCH  22  23
ATOM     23  C   UNL     1      36.938   5.292  14.684  0.00  0.00    +0.000 C 
ATOM     24  C   UNL     1      37.926   4.803  13.444  0.00  0.00    +0.000 C 
BRANCH  23  25
ATOM     25  C   UNL     1      35.808   5.906  13.716  0.00  0.00    +0.000 A 
ATOM     26  C   UNL     1      36.088   5.959  12.391  0.00  0.00    +0.000 A 
ATOM     27  C   UNL     1      35.121   6.513  11.540  0.00  0.00    +0.000 A 
ATOM     28  C   UNL     1      33.929   6.978  12.086  0.00  0.00    +0.000 A 
ATOM     29  C   UNL     1      33.694   6.900  13.443  0.00  0.00    +0.000 A 
ATOM     30  C   UNL     1      34.664   6.345  14.287  0.00  0.00    +0.000 A 
ENDBRANCH  23  25
ENDBRANCH  22  23
ENDBRANCH   6  20
TORSDOF 8
ENDMDL
MODEL 10
REMARK VINA RESULT:      -7.0      2.420      4.604
REMARK  Name = 
REMARK  8 active torsions:
REMARK  status: ('A' for Active; 'I' for Inactive)
REMARK    1  A    between atoms: C_2  and  S_3
REMARK    2  A    between atoms: C_2  and  C_11
REMARK    3  A    between atoms: S_3  and  C_4
REMARK    4  A    between atoms: C_4  and  C_5
REMARK    5  A    between atoms: N_13  and  C_14
REMARK    6  A    between atoms: C_19  and  C_20
REMARK    7  A    between atoms: N_22  and  C_23
REMARK    8  A    between atoms: C_23  and  C_25
REMARK                            x       y       z     vdW  Elec       q    Type
REMARK                         _______ _______ _______ _____ _____    ______ ____
ROOT
ATOM      1  C   UNL     1      38.377   0.890  11.915  0.00  0.00    +0.000 A 
ATOM      2  C   UNL     1      38.090   1.654  10.777  0.00  0.00    +0.000 A 
ATOM      3  C   UNL     1      38.716   1.293   9.594  0.00  0.00    +0.000 A 
ATOM      4  C   UNL     1      39.587   0.227   9.534  0.00  0.00    +0.000 A 
ATOM      5  C   UNL     1      39.829  -0.486  10.683  0.00  0.00    +0.000 A 
ATOM      6  C   UNL     1      39.227  -0.168  11.906  0.00  0.00    +0.000 A 
ENDROOT
BRANCH   1   9
ATOM      7  C   UNL     1      38.220   2.200  14.047  0.00  0.00    +0.000 C 
ATOM      8  O   UNL     1      39.274   2.794  13.789  0.00  0.00    +0.000 OA
ATOM      9  N   UNL     1      37.736   1.248  13.150  0.00  0.00    +0.000 NA
BRANCH   7  11
ATOM     10  C   UNL     1      37.274   4.095  15.068  0.00  0.00    +0.000 C 
ATOM     11  C   UNL     1      37.506   2.554  15.354  0.00  0.00    +0.000 C 
BRANCH  11  12
ATOM     12  S   UNL     1      35.754   1.996  14.891  0.00  0.00    +0.000 S 
BRANCH  12  13
ATOM     13  C   UNL     1      34.854   1.885  16.464  0.00  0.00    +0.000 C 
BRANCH  13  14
ATOM     14  C   UNL     1      35.261   0.638  17.216  0.00  0.00    +0.000 A 
ATOM     15  C   UNL     1      34.821  -0.585  16.806  0.00  0.00    +0.000 A 
ATOM     16  C   UNL     1      35.175  -1.736  17.466  0.00  0.00    +0.000 A 
ATOM     17  C   UNL     1      35.996  -1.685  18.576  0.00  0.00    +0.000 A 
ATOM     18  C   UNL     1      36.420  -0.434  18.961  0.00  0.00    +0.000 A 
ATOM     19  C   UNL     1      36.078   0.723  18.316  0.00  0.00    +0.000 A 
ENDBRANCH  13  14
ENDBRANCH  12  13
ENDBRANCH  11  12
ENDBRANCH   7  11
ENDBRANCH   1   9
BRANCH   6  20
ATOM     20  C   UNL     1      39.500  -0.938  13.104  0.00  0.00    +0.000 C 
ATOM     21  O   UNL     1      40.657  -0.799  13.608  0.00  0.00    +0.000 OA
ATOM     22  N   UNL     1      38.580  -1.811  13.725  0.00  0.00    +0.000 NA
BRANCH  22  23
ATOM     23  C   UNL     1      39.103  -2.547  15.031  0.00  0.00    +0.000 C 
ATOM     24  C   UNL     1      38.595  -1.312  16.014  0.00  0.00    +0.000 C 
BRANCH  23  25
ATOM     25  C   UNL     1      37.770  -3.427  15.227  0.00  0.00    +0.000 A 
ATOM     26  C   UNL     1      36.761  -3.232  14.343  0.00  0.00    +0.000 A 
ATOM     27  C   UNL     1      35.586  -3.975  14.516  0.00  0.00    +0.000 A 
ATOM     28  C   UNL     1      35.506  -4.872  15.578  0.00  0.00    +0.000 A 
ATOM     29  C   UNL     1      36.562  -5.032  16.450  0.00  0.00    +0.000 A 
ATOM     30  C   UNL     1      37.733  -4.287  16.270  0.00  0.00    +0.000 A 
ENDBRANCH  23  25
ENDBRANCH  22  23
ENDBRANCH   6  20
TORSDOF 8
ENDMDL
