MODEL 1
REMARK VINA RESULT:      -6.3      0.000      0.000
REMARK  Name = 
REMARK  3 active torsions:
REMARK  status: ('A' for Active; 'I' for Inactive)
REMARK    1  A    between atoms: C_2  and  C_3
REMARK    2  A    between atoms: C_4  and  C_5
REMARK    3  A    between atoms: C_8  and  N_9
REMARK                            x       y       z     vdW  Elec       q    Type
REMARK                         _______ _______ _______ _____ _____    ______ ____
ROOT
ATOM      1  C   UNL     1      31.312  21.089   9.330  0.00  0.00    +0.000 A 
ATOM      2  C   UNL     1      30.936  22.424   9.287  0.00  0.00    +0.000 A 
ATOM      3  C   UNL     1      30.167  22.954  10.290  0.00  0.00    +0.000 A 
ATOM      4  C   UNL     1      29.726  22.207  11.386  0.00  0.00    +0.000 A 
ATOM      5  C   UNL     1      30.114  20.886  11.399  0.00  0.00    +0.000 A 
ATOM      6  C   UNL     1      30.887  20.340  10.399  0.00  0.00    +0.000 A 
ENDROOT
BRANCH   1   8
ATOM      7  C   UNL     1      31.723  19.869   7.181  0.00  0.00    +0.000 C 
ATOM      8  C   UNL     1      32.141  20.525   8.254  0.00  0.00    +0.000 C 
ATOM      9  C   UNL     1      33.611  20.611   8.216  0.00  0.00    +0.000 C 
ATOM     10  N   UNL     1      34.013  19.962   7.001  0.00  0.00    +0.000 NA
ATOM     11  C   UNL     1      32.850  19.490   6.358  0.00  0.00    +0.000 C 
ATOM     12  O   UNL     1      32.788  18.847   5.258  0.00  0.00    +0.000 OA
BRANCH   7  14
ATOM     13  C   UNL     1      29.795  20.253   5.646  0.00  0.00    +0.000 C 
ATOM     14  C   UNL     1      30.259  19.617   6.939  0.00  0.00    +0.000 C 
ENDBRANCH   7  14
ENDBRANCH   1   8
BRANCH   4  15
ATOM     15  N   UNL     1      28.931  22.812  12.402  0.00  0.00    +0.000 N 
ATOM     16  C   UNL     1      29.278  23.436  13.531  0.00  0.00    +0.000 A 
ATOM     17  C   UNL     1      28.116  23.834  14.144  0.00  0.00    +0.000 A 
ATOM     18  N   UNL     1      27.063  23.459  13.398  0.00  0.00    +0.000 NA
ATOM     19  C   UNL     1      27.591  22.836  12.337  0.00  0.00    +0.000 A 
ATOM     20  C   UNL     1      26.741  22.270  11.254  0.00  0.00    +0.000 C 
ENDBRANCH   4  15
TORSDOF 3
ENDMDL
MODEL 2
REMARK VINA RESULT:      -6.2     28.920     31.574
REMARK  Name = 
REMARK  3 active torsions:
REMARK  status: ('A' for Active; 'I' for Inactive)
REMARK    1  A    between atoms: C_2  and  C_3
REMARK    2  A    between atoms: C_4  and  C_5
REMARK    3  A    between atoms: C_8  and  N_9
REMARK                            x       y       z     vdW  Elec       q    Type
REMARK                         _______ _______ _______ _____ _____    ______ ____
ROOT
ATOM      1  C   UNL     1      18.344  10.014  36.844  0.00  0.00    +0.000 A 
ATOM      2  C   UNL     1      17.791  11.287  36.887  0.00  0.00    +0.000 A 
ATOM      3  C   UNL     1      17.079  11.763  35.817  0.00  0.00    +0.000 A 
ATOM      4  C   UNL     1      16.872  11.021  34.651  0.00  0.00    +0.000 A 
ATOM      5  C   UNL     1      17.434   9.765  34.638  0.00  0.00    +0.000 A 
ATOM      6  C   UNL     1      18.151   9.273  35.706  0.00  0.00    +0.000 A 
ENDROOT
BRANCH   1   8
ATOM      7  C   UNL     1      20.381   9.722  38.273  0.00  0.00    +0.000 C 
ATOM      8  C   UNL     1      19.103   9.505  37.996  0.00  0.00    +0.000 C 
ATOM      9  C   UNL     1      18.528   8.647  39.047  0.00  0.00    +0.000 C 
ATOM     10  N   UNL     1      19.590   8.402  39.980  0.00  0.00    +0.000 NA
ATOM     11  C   UNL     1      20.745   9.056  39.503  0.00  0.00    +0.000 C 
ATOM     12  O   UNL     1      21.900   9.067  40.045  0.00  0.00    +0.000 OA
BRANCH   7  14
ATOM     13  C   UNL     1      22.143   9.713  36.508  0.00  0.00    +0.000 C 
ATOM     14  C   UNL     1      21.243  10.568  37.375  0.00  0.00    +0.000 C 
ENDBRANCH   7  14
ENDBRANCH   1   8
BRANCH   4  15
ATOM     15  N   UNL     1      16.120  11.567  33.570  0.00  0.00    +0.000 N 
ATOM     16  C   UNL     1      16.281  11.459  32.248  0.00  0.00    +0.000 A 
ATOM     17  C   UNL     1      15.271  12.180  31.660  0.00  0.00    +0.000 A 
ATOM     18  N   UNL     1      14.496  12.726  32.612  0.00  0.00    +0.000 NA
ATOM     19  C   UNL     1      15.038  12.334  33.772  0.00  0.00    +0.000 A 
ATOM     20  C   UNL     1      14.458  12.729  35.085  0.00  0.00    +0.000 C 
ENDBRANCH   4  15
TORSDOF 3
ENDMDL
MODEL 3
REMARK VINA RESULT:      -6.1     28.443     31.431
REMARK  Name = 
REMARK  3 active torsions:
REMARK  status: ('A' for Active; 'I' for Inactive)
REMARK    1  A    between atoms: C_2  and  C_3
REMARK    2  A    between atoms: C_4  and  C_5
REMARK    3  A    between atoms: C_8  and  N_9
REMARK                            x       y       z     vdW  Elec       q    Type
REMARK                         _______ _______ _______ _____ _____    ______ ____
ROOT
ATOM      1  C   UNL     1      16.545  11.312  34.622  0.00  0.00    +0.000 A 
ATOM      2  C   UNL     1      16.857   9.969  34.776  0.00  0.00    +0.000 A 
ATOM      3  C   UNL     1      17.495   9.538  35.910  0.00  0.00    +0.000 A 
ATOM      4  C   UNL     1      17.861  10.396  36.950  0.00  0.00    +0.000 A 
ATOM      5  C   UNL     1      17.539  11.722  36.767  0.00  0.00    +0.000 A 
ATOM      6  C   UNL     1      16.898  12.170  35.633  0.00  0.00    +0.000 A 
ENDROOT
BRANCH   1   8
ATOM      7  C   UNL     1      14.759  12.509  33.337  0.00  0.00    +0.000 C 
ATOM      8  C   UNL     1      15.857  11.770  33.406  0.00  0.00    +0.000 C 
ATOM      9  C   UNL     1      16.306  11.459  32.038  0.00  0.00    +0.000 C 
ATOM     10  N   UNL     1      15.376  12.108  31.159  0.00  0.00    +0.000 NA
ATOM     11  C   UNL     1      14.408  12.754  31.956  0.00  0.00    +0.000 C 
ATOM     12  O   UNL     1      13.405  13.430  31.549  0.00  0.00    +0.000 OA
BRANCH   7  14
ATOM     13  C   UNL     1      13.527  14.394  34.410  0.00  0.00    +0.000 C 
ATOM     14  C   UNL     1      14.058  12.987  34.580  0.00  0.00    +0.000 C 
ENDBRANCH   7  14
ENDBRANCH   1   8
BRANCH   4  15
ATOM     15  N   UNL     1      18.520   9.891  38.109  0.00  0.00    +0.000 N 
ATOM     16  C   UNL     1      19.798   9.562  38.316  0.00  0.00    +0.000 A 
ATOM     17  C   UNL     1      19.896   9.133  39.617  0.00  0.00    +0.000 A 
ATOM     18  N   UNL     1      18.690   9.197  40.204  0.00  0.00    +0.000 NA
ATOM     19  C   UNL     1      17.865   9.666  39.258  0.00  0.00    +0.000 A 
ATOM     20  C   UNL     1      16.417   9.892  39.518  0.00  0.00    +0.000 C 
ENDBRANCH   4  15
TORSDOF 3
ENDMDL
MODEL 4
REMARK VINA RESULT:      -6.1     30.240     32.404
REMARK  Name = 
REMARK  3 active torsions:
REMARK  status: ('A' for Active; 'I' for Inactive)
REMARK    1  A    between atoms: C_2  and  C_3
REMARK    2  A    between atoms: C_4  and  C_5
REMARK    3  A    between atoms: C_8  and  N_9
REMARK                            x       y       z     vdW  Elec       q    Type
REMARK                         _______ _______ _______ _____ _____    ______ ____
ROOT
ATOM      1  C   UNL     1      17.875  10.833  37.533  0.00  0.00    +0.000 A 
ATOM      2  C   UNL     1      18.312   9.766  36.760  0.00  0.00    +0.000 A 
ATOM      3  C   UNL     1      19.653   9.518  36.628  0.00  0.00    +0.000 A 
ATOM      4  C   UNL     1      20.636  10.299  37.242  0.00  0.00    +0.000 A 
ATOM      5  C   UNL     1      20.171  11.350  37.999  0.00  0.00    +0.000 A 
ATOM      6  C   UNL     1      18.826  11.612  38.142  0.00  0.00    +0.000 A 
ENDROOT
BRANCH   1   8
ATOM      7  C   UNL     1      15.663  11.801  36.864  0.00  0.00    +0.000 C 
ATOM      8  C   UNL     1      16.435  11.093  37.677  0.00  0.00    +0.000 C 
ATOM      9  C   UNL     1      15.613  10.585  38.789  0.00  0.00    +0.000 C 
ATOM     10  N   UNL     1      14.278  11.045  38.536  0.00  0.00    +0.000 NA
ATOM     11  C   UNL     1      14.301  11.808  37.349  0.00  0.00    +0.000 C 
ATOM     12  O   UNL     1      13.315  12.399  36.797  0.00  0.00    +0.000 OA
BRANCH   7  14
ATOM     13  C   UNL     1      15.945  11.627  34.392  0.00  0.00    +0.000 C 
ATOM     14  C   UNL     1      16.221  12.455  35.629  0.00  0.00    +0.000 C 
ENDBRANCH   7  14
ENDBRANCH   1   8
BRANCH   4  15
ATOM     15  N   UNL     1      22.017   9.992  37.071  0.00  0.00    +0.000 N 
ATOM     16  C   UNL     1      22.842  10.208  36.043  0.00  0.00    +0.000 A 
ATOM     17  C   UNL     1      24.072   9.718  36.405  0.00  0.00    +0.000 A 
ATOM     18  N   UNL     1      24.005   9.206  37.645  0.00  0.00    +0.000 NA
ATOM     19  C   UNL     1      22.735   9.387  38.029  0.00  0.00    +0.000 A 
ATOM     20  C   UNL     1      22.248   8.956  39.369  0.00  0.00    +0.000 C 
ENDBRANCH   4  15
TORSDOF 3
ENDMDL
MODEL 5
REMARK VINA RESULT:      -5.9     13.640     16.170
REMARK  Name = 
REMARK  3 active torsions:
REMARK  status: ('A' for Active; 'I' for Inactive)
REMARK    1  A    between atoms: C_2  and  C_3
REMARK    2  A    between atoms: C_4  and  C_5
REMARK    3  A    between atoms: C_8  and  N_9
REMARK                            x       y       z     vdW  Elec       q    Type
REMARK                         _______ _______ _______ _____ _____    ______ ____
ROOT
ATOM      1  C   UNL     1      29.617  23.808  24.621  0.00  0.00    +0.000 A 
ATOM      2  C   UNL     1      30.570  22.799  24.586  0.00  0.00    +0.000 A 
ATOM      3  C   UNL     1      31.892  23.096  24.790  0.00  0.00    +0.000 A 
ATOM      4  C   UNL     1      32.351  24.393  25.037  0.00  0.00    +0.000 A 
ATOM      5  C   UNL     1      31.383  25.371  25.063  0.00  0.00    +0.000 A 
ATOM      6  C   UNL     1      30.050  25.088  24.861  0.00  0.00    +0.000 A 
ENDROOT
BRANCH   1   8
ATOM      7  C   UNL     1      27.547  23.461  23.253  0.00  0.00    +0.000 C 
ATOM      8  C   UNL     1      28.198  23.485  24.407  0.00  0.00    +0.000 C 
ATOM      9  C   UNL     1      27.263  23.127  25.488  0.00  0.00    +0.000 C 
ATOM     10  N   UNL     1      26.003  22.869  24.851  0.00  0.00    +0.000 NA
ATOM     11  C   UNL     1      26.168  23.083  23.466  0.00  0.00    +0.000 C 
ATOM     12  O   UNL     1      25.276  22.970  22.561  0.00  0.00    +0.000 OA
BRANCH   7  14
ATOM     13  C   UNL     1      27.955  25.207  21.520  0.00  0.00    +0.000 C 
ATOM     14  C   UNL     1      28.240  23.787  21.957  0.00  0.00    +0.000 C 
ENDBRANCH   7  14
ENDBRANCH   1   8
BRANCH   4  15
ATOM     15  N   UNL     1      33.739  24.643  25.244  0.00  0.00    +0.000 N 
ATOM     16  C   UNL     1      34.725  24.887  24.377  0.00  0.00    +0.000 A 
ATOM     17  C   UNL     1      35.872  25.062  25.111  0.00  0.00    +0.000 A 
ATOM     18  N   UNL     1      35.594  24.926  26.418  0.00  0.00    +0.000 NA
ATOM     19  C   UNL     1      34.281  24.670  26.471  0.00  0.00    +0.000 A 
ATOM     20  C   UNL     1      33.572  24.460  27.764  0.00  0.00    +0.000 C 
ENDBRANCH   4  15
TORSDOF 3
ENDMDL
MODEL 6
REMARK VINA RESULT:      -5.8     33.023     34.448
REMARK  Name = 
REMARK  3 active torsions:
REMARK  status: ('A' for Active; 'I' for Inactive)
REMARK    1  A    between atoms: C_2  and  C_3
REMARK    2  A    between atoms: C_4  and  C_5
REMARK    3  A    between atoms: C_8  and  N_9
REMARK                            x       y       z     vdW  Elec       q    Type
REMARK                         _______ _______ _______ _____ _____    ______ ____
ROOT
ATOM      1  C   UNL     1      21.189  -6.933  25.211  0.00  0.00    +0.000 A 
ATOM      2  C   UNL     1      21.906  -6.092  24.371  0.00  0.00    +0.000 A 
ATOM      3  C   UNL     1      23.060  -6.535  23.779  0.00  0.00    +0.000 A 
ATOM      4  C   UNL     1      23.574  -7.819  23.979  0.00  0.00    +0.000 A 
ATOM      5  C   UNL     1      22.842  -8.627  24.819  0.00  0.00    +0.000 A 
ATOM      6  C   UNL     1      21.679  -8.197  25.420  0.00  0.00    +0.000 A 
ENDROOT
BRANCH   1   8
ATOM      7  C   UNL     1      18.975  -7.195  26.355  0.00  0.00    +0.000 C 
ATOM      8  C   UNL     1      19.948  -6.456  25.840  0.00  0.00    +0.000 C 
ATOM      9  C   UNL     1      19.596  -5.033  25.994  0.00  0.00    +0.000 C 
ATOM     10  N   UNL     1      18.331  -5.011  26.670  0.00  0.00    +0.000 NA
ATOM     11  C   UNL     1      17.933  -6.346  26.888  0.00  0.00    +0.000 C 
ATOM     12  O   UNL     1      16.860  -6.746  27.450  0.00  0.00    +0.000 OA
BRANCH   7  14
ATOM     13  C   UNL     1      19.204  -9.253  27.744  0.00  0.00    +0.000 C 
ATOM     14  C   UNL     1      19.046  -8.698  26.345  0.00  0.00    +0.000 C 
ENDBRANCH   7  14
ENDBRANCH   1   8
BRANCH   4  15
ATOM     15  N   UNL     1      24.778  -8.226  23.335  0.00  0.00    +0.000 N 
ATOM     16  C   UNL     1      26.053  -8.134  23.721  0.00  0.00    +0.000 A 
ATOM     17  C   UNL     1      26.817  -8.686  22.723  0.00  0.00    +0.000 A 
ATOM     18  N   UNL     1      26.019  -9.114  21.731  0.00  0.00    +0.000 NA
ATOM     19  C   UNL     1      24.775  -8.820  22.132  0.00  0.00    +0.000 A 
ATOM     20  C   UNL     1      23.583  -9.147  21.302  0.00  0.00    +0.000 C 
ENDBRANCH   4  15
TORSDOF 3
ENDMDL
MODEL 7
REMARK VINA RESULT:      -5.7     13.623     17.421
REMARK  Name = 
REMARK  3 active torsions:
REMARK  status: ('A' for Active; 'I' for Inactive)
REMARK    1  A    between atoms: C_2  and  C_3
REMARK    2  A    between atoms: C_4  and  C_5
REMARK    3  A    between atoms: C_8  and  N_9
REMARK                            x       y       z     vdW  Elec       q    Type
REMARK                         _______ _______ _______ _____ _____    ______ ____
ROOT
ATOM      1  C   UNL     1      29.125  23.422  25.525  0.00  0.00    +0.000 A 
ATOM      2  C   UNL     1      28.970  24.471  26.420  0.00  0.00    +0.000 A 
ATOM      3  C   UNL     1      29.398  24.338  27.715  0.00  0.00    +0.000 A 
ATOM      4  C   UNL     1      29.997  23.174  28.203  0.00  0.00    +0.000 A 
ATOM      5  C   UNL     1      30.135  22.151  27.292  0.00  0.00    +0.000 A 
ATOM      6  C   UNL     1      29.711  22.270  25.987  0.00  0.00    +0.000 A 
ENDROOT
BRANCH   1   8
ATOM      7  C   UNL     1      27.437  23.411  23.674  0.00  0.00    +0.000 C 
ATOM      8  C   UNL     1      28.670  23.570  24.135  0.00  0.00    +0.000 C 
ATOM      9  C   UNL     1      29.554  23.930  23.012  0.00  0.00    +0.000 C 
ATOM     10  N   UNL     1      28.713  23.989  21.851  0.00  0.00    +0.000 NA
ATOM     11  C   UNL     1      27.401  23.659  22.250  0.00  0.00    +0.000 C 
ATOM     12  O   UNL     1      26.367  23.588  21.506  0.00  0.00    +0.000 OA
BRANCH   7  14
ATOM     13  C   UNL     1      25.489  24.248  24.987  0.00  0.00    +0.000 C 
ATOM     14  C   UNL     1      26.303  23.036  24.588  0.00  0.00    +0.000 C 
ENDBRANCH   7  14
ENDBRANCH   1   8
BRANCH   4  15
ATOM     15  N   UNL     1      30.425  23.093  29.560  0.00  0.00    +0.000 N 
ATOM     16  C   UNL     1      31.618  23.320  30.117  0.00  0.00    +0.000 A 
ATOM     17  C   UNL     1      31.480  23.101  31.465  0.00  0.00    +0.000 A 
ATOM     18  N   UNL     1      30.213  22.742  31.735  0.00  0.00    +0.000 NA
ATOM     19  C   UNL     1      29.590  22.746  30.550  0.00  0.00    +0.000 A 
ATOM     20  C   UNL     1      28.146  22.405  30.419  0.00  0.00    +0.000 C 
ENDBRANCH   4  15
TORSDOF 3
ENDMDL
MODEL 8
REMARK VINA RESULT:      -5.7     29.397     31.034
REMARK  Name = 
REMARK  3 active torsions:
REMARK  status: ('A' for Active; 'I' for Inactive)
REMARK    1  A    between atoms: C_2  and  C_3
REMARK    2  A    between atoms: C_4  and  C_5
REMARK    3  A    between atoms: C_8  and  N_9
REMARK                            x       y       z     vdW  Elec       q    Type
REMARK                         _______ _______ _______ _____ _____    ______ ____
ROOT
ATOM      1  C   UNL     1      34.647   5.186  35.155  0.00  0.00    +0.000 A 
ATOM      2  C   UNL     1      35.992   5.500  35.021  0.00  0.00    +0.000 A 
ATOM      3  C   UNL     1      36.427   6.777  35.264  0.00  0.00    +0.000 A 
ATOM      4  C   UNL     1      35.570   7.812  35.649  0.00  0.00    +0.000 A 
ATOM      5  C   UNL     1      34.242   7.469  35.772  0.00  0.00    +0.000 A 
ATOM      6  C   UNL     1      33.791   6.190  35.532  0.00  0.00    +0.000 A 
ENDROOT
BRANCH   1   8
ATOM      7  C   UNL     1      34.024   2.842  35.787  0.00  0.00    +0.000 C 
ATOM      8  C   UNL     1      34.185   3.813  34.899  0.00  0.00    +0.000 C 
ATOM      9  C   UNL     1      33.824   3.301  33.565  0.00  0.00    +0.000 C 
ATOM     10  N   UNL     1      33.412   1.941  33.762  0.00  0.00    +0.000 NA
ATOM     11  C   UNL     1      33.542   1.645  35.136  0.00  0.00    +0.000 C 
ATOM     12  O   UNL     1      33.287   0.534  35.709  0.00  0.00    +0.000 OA
BRANCH   7  14
ATOM     13  C   UNL     1      35.704   2.578  37.610  0.00  0.00    +0.000 C 
ATOM     14  C   UNL     1      34.317   3.061  37.247  0.00  0.00    +0.000 C 
ENDBRANCH   7  14
ENDBRANCH   1   8
BRANCH   4  15
ATOM     15  N   UNL     1      36.078   9.121  35.892  0.00  0.00    +0.000 N 
ATOM     16  C   UNL     1      36.151  10.193  35.099  0.00  0.00    +0.000 A 
ATOM     17  C   UNL     1      36.727  11.199  35.835  0.00  0.00    +0.000 A 
ATOM     18  N   UNL     1      37.006  10.749  37.070  0.00  0.00    +0.000 NA
ATOM     19  C   UNL     1      36.598   9.473  37.077  0.00  0.00    +0.000 A 
ATOM     20  C   UNL     1      36.727   8.613  38.285  0.00  0.00    +0.000 C 
ENDBRANCH   4  15
TORSDOF 3
ENDMDL
MODEL 9
REMARK VINA RESULT:      -5.6     29.271     30.902
REMARK  Name = 
REMARK  3 active torsions:
REMARK  status: ('A' for Active; 'I' for Inactive)
REMARK    1  A    between atoms: C_2  and  C_3
REMARK    2  A    between atoms: C_4  and  C_5
REMARK    3  A    between atoms: C_8  and  N_9
REMARK                            x       y       z     vdW  Elec       q    Type
REMARK                         _______ _______ _______ _____ _____    ______ ____
ROOT
ATOM      1  C   UNL     1      34.818   5.138  35.902  0.00  0.00    +0.000 A 
ATOM      2  C   UNL     1      36.056   5.489  35.381  0.00  0.00    +0.000 A 
ATOM      3  C   UNL     1      36.462   6.798  35.401  0.00  0.00    +0.000 A 
ATOM      4  C   UNL     1      35.680   7.830  35.928  0.00  0.00    +0.000 A 
ATOM      5  C   UNL     1      34.459   7.449  36.435  0.00  0.00    +0.000 A 
ATOM      6  C   UNL     1      34.037   6.138  36.423  0.00  0.00    +0.000 A 
ENDROOT
BRANCH   1   8
ATOM      7  C   UNL     1      33.898   3.056  34.854  0.00  0.00    +0.000 C 
ATOM      8  C   UNL     1      34.388   3.731  35.884  0.00  0.00    +0.000 C 
ATOM      9  C   UNL     1      34.442   2.838  37.054  0.00  0.00    +0.000 C 
ATOM     10  N   UNL     1      33.957   1.566  36.603  0.00  0.00    +0.000 NA
ATOM     11  C   UNL     1      33.608   1.694  35.242  0.00  0.00    +0.000 C 
ATOM     12  O   UNL     1      33.126   0.788  34.484  0.00  0.00    +0.000 OA
BRANCH   7  14
ATOM     13  C   UNL     1      32.540   4.653  33.503  0.00  0.00    +0.000 C 
ATOM     14  C   UNL     1      33.719   3.705  33.508  0.00  0.00    +0.000 C 
ENDBRANCH   7  14
ENDBRANCH   1   8
BRANCH   4  15
ATOM     15  N   UNL     1      36.156   9.173  35.924  0.00  0.00    +0.000 N 
ATOM     16  C   UNL     1      35.969  10.166  35.051  0.00  0.00    +0.000 A 
ATOM     17  C   UNL     1      36.648  11.258  35.532  0.00  0.00    +0.000 A 
ATOM     18  N   UNL     1      37.248  10.939  36.691  0.00  0.00    +0.000 NA
ATOM     19  C   UNL     1      36.930   9.656  36.908  0.00  0.00    +0.000 A 
ATOM     20  C   UNL     1      37.402   8.921  38.113  0.00  0.00    +0.000 C 
ENDBRANCH   4  15
TORSDOF 3
ENDMDL
MODEL 10
REMARK VINA RESULT:      -5.6     13.447     16.306
REMARK  Name = 
REMARK  3 active torsions:
REMARK  status: ('A' for Active; 'I' for Inactive)
REMARK    1  A    between atoms: C_2  and  C_3
REMARK    2  A    between atoms: C_4  and  C_5
REMARK    3  A    between atoms: C_8  and  N_9
REMARK                            x       y       z     vdW  Elec       q    Type
REMARK                         _______ _______ _______ _____ _____    ______ ____
ROOT
ATOM      1  C   UNL     1      29.906  24.102  23.975  0.00  0.00    +0.000 A 
ATOM      2  C   UNL     1      30.310  25.408  24.214  0.00  0.00    +0.000 A 
ATOM      3  C   UNL     1      31.569  25.660  24.694  0.00  0.00    +0.000 A 
ATOM      4  C   UNL     1      32.496  24.650  24.966  0.00  0.00    +0.000 A 
ATOM      5  C   UNL     1      32.065  23.366  24.720  0.00  0.00    +0.000 A 
ATOM      6  C   UNL     1      30.803  23.097  24.238  0.00  0.00    +0.000 A 
ENDROOT
BRANCH   1   8
ATOM      7  C   UNL     1      27.443  23.678  24.159  0.00  0.00    +0.000 C 
ATOM      8  C   UNL     1      28.556  23.836  23.456  0.00  0.00    +0.000 C 
ATOM      9  C   UNL     1      28.236  23.699  22.024  0.00  0.00    +0.000 C 
ATOM     10  N   UNL     1      26.821  23.470  21.955  0.00  0.00    +0.000 NA
ATOM     11  C   UNL     1      26.323  23.446  23.275  0.00  0.00    +0.000 C 
ATOM     12  O   UNL     1      25.114  23.255  23.636  0.00  0.00    +0.000 OA
BRANCH   7  14
ATOM     13  C   UNL     1      27.642  22.398  26.289  0.00  0.00    +0.000 C 
ATOM     14  C   UNL     1      27.449  23.761  25.662  0.00  0.00    +0.000 C 
ENDBRANCH   7  14
ENDBRANCH   1   8
BRANCH   4  15
ATOM     15  N   UNL     1      33.793  24.972  25.461  0.00  0.00    +0.000 N 
ATOM     16  C   UNL     1      34.898  25.375  24.827  0.00  0.00    +0.000 A 
ATOM     17  C   UNL     1      35.868  25.549  25.782  0.00  0.00    +0.000 A 
ATOM     18  N   UNL     1      35.365  25.256  26.992  0.00  0.00    +0.000 NA
ATOM     19  C   UNL     1      34.093  24.906  26.766  0.00  0.00    +0.000 A 
ATOM     20  C   UNL     1      33.177  24.511  27.872  0.00  0.00    +0.000 C 
ENDBRANCH   4  15
TORSDOF 3
ENDMDL
