MODEL 1
REMARK VINA RESULT:      -6.4      0.000      0.000
REMARK  Name = 
REMARK  6 active torsions:
REMARK  status: ('A' for Active; 'I' for Inactive)
REMARK    1  A    between atoms: C_2  and  C_3
REMARK    2  A    between atoms: C_2  and  N_7
REMARK    3  A    between atoms: C_3  and  C_4
REMARK    4  A    between atoms: C_4  and  C_5
REMARK    5  A    between atoms: N_7  and  N_8
REMARK    6  A    between atoms: C_9  and  C_11
REMARK                            x       y       z     vdW  Elec       q    Type
REMARK                         _______ _______ _______ _____ _____    ______ ____
ROOT
ATOM      1  N   UNL     1      15.526  11.390  34.389  0.00  0.00    +0.000 NA
ATOM      2  C   UNL     1      15.279  12.134  35.560  0.00  0.00    +0.000 C 
ATOM      3  O   UNL     1      15.889  13.232  35.692  0.00  0.00    +0.000 OA
ENDROOT
BRANCH   2   4
ATOM      4  C   UNL     1      14.363  11.685  36.598  0.00  0.00    +0.000 A 
ATOM      5  C   UNL     1      13.017  11.895  36.452  0.00  0.00    +0.000 A 
ATOM      6  C   UNL     1      12.100  11.497  37.408  0.00  0.00    +0.000 A 
ATOM      7  C   UNL     1      12.524  10.862  38.567  0.00  0.00    +0.000 A 
ATOM      8  C   UNL     1      13.874  10.646  38.723  0.00  0.00    +0.000 A 
ATOM      9  C   UNL     1      14.788  11.055  37.746  0.00  0.00    +0.000 A 
ATOM     10 BR   UNL     1      16.637  10.754  37.967  0.00  0.00    +0.000 Br
ENDBRANCH   2   4
BRANCH   1  11
ATOM     11  N   UNL     1      16.415  11.862  33.419  0.00  0.00    +0.000 NA
BRANCH  11  13
ATOM     12  C   UNL     1      15.828  10.409  31.694  0.00  0.00    +0.000 C 
ATOM     13  C   UNL     1      16.047  11.643  32.061  0.00  0.00    +0.000 C 
BRANCH  13  14
ATOM     14  C   UNL     1      15.940  12.775  31.188  0.00  0.00    +0.000 C 
BRANCH  14  15
ATOM     15  C   UNL     1      14.748  13.095  30.441  0.00  0.00    +0.000 C 
BRANCH  15  16
ATOM     16  C   UNL     1      13.536  13.607  31.085  0.00  0.00    +0.000 C 
ATOM     17  C   UNL     1      13.705  14.302  32.379  0.00  0.00    +0.000 C 
ENDBRANCH  15  16
ENDBRANCH  14  15
ENDBRANCH  13  14
ENDBRANCH  11  13
ENDBRANCH   1  11
TORSDOF 6
ENDMDL
MODEL 2
REMARK VINA RESULT:      -6.3      2.868      5.852
REMARK  Name = 
REMARK  6 active torsions:
REMARK  status: ('A' for Active; 'I' for Inactive)
REMARK    1  A    between atoms: C_2  and  C_3
REMARK    2  A    between atoms: C_2  and  N_7
REMARK    3  A    between atoms: C_3  and  C_4
REMARK    4  A    between atoms: C_4  and  C_5
REMARK    5  A    between atoms: N_7  and  N_8
REMARK    6  A    between atoms: C_9  and  C_11
REMARK                            x       y       z     vdW  Elec       q    Type
REMARK                         _______ _______ _______ _____ _____    ______ ____
ROOT
ATOM      1  N   UNL     1      15.998  12.954  35.659  0.00  0.00    +0.000 NA
ATOM      2  C   UNL     1      14.863  12.490  34.965  0.00  0.00    +0.000 C 
ATOM      3  O   UNL     1      14.035  11.784  35.607  0.00  0.00    +0.000 OA
ENDROOT
BRANCH   2   4
ATOM      4  C   UNL     1      14.620  12.794  33.562  0.00  0.00    +0.000 A 
ATOM      5  C   UNL     1      15.184  12.011  32.590  0.00  0.00    +0.000 A 
ATOM      6  C   UNL     1      14.995  12.255  31.243  0.00  0.00    +0.000 A 
ATOM      7  C   UNL     1      14.211  13.323  30.826  0.00  0.00    +0.000 A 
ATOM      8  C   UNL     1      13.638  14.115  31.794  0.00  0.00    +0.000 A 
ATOM      9  C   UNL     1      13.841  13.854  33.153  0.00  0.00    +0.000 A 
ATOM     10 BR   UNL     1      13.052  14.944  34.475  0.00  0.00    +0.000 Br
ENDBRANCH   2   4
BRANCH   1  11
ATOM     11  N   UNL     1      16.189  12.636  37.007  0.00  0.00    +0.000 NA
BRANCH  11  13
ATOM     12  C   UNL     1      18.410  12.332  37.643  0.00  0.00    +0.000 C 
ATOM     13  C   UNL     1      17.279  11.771  37.306  0.00  0.00    +0.000 C 
BRANCH  13  14
ATOM     14  C   UNL     1      17.077  10.355  37.220  0.00  0.00    +0.000 C 
BRANCH  14  15
ATOM     15  C   UNL     1      18.075   9.435  36.731  0.00  0.00    +0.000 C 
BRANCH  15  16
ATOM     16  C   UNL     1      18.159   9.052  35.320  0.00  0.00    +0.000 C 
ATOM     17  C   UNL     1      17.485   9.933  34.343  0.00  0.00    +0.000 C 
ENDBRANCH  15  16
ENDBRANCH  14  15
ENDBRANCH  13  14
ENDBRANCH  11  13
ENDBRANCH   1  11
TORSDOF 6
ENDMDL
MODEL 3
REMARK VINA RESULT:      -6.1      3.105      6.096
REMARK  Name = 
REMARK  6 active torsions:
REMARK  status: ('A' for Active; 'I' for Inactive)
REMARK    1  A    between atoms: C_2  and  C_3
REMARK    2  A    between atoms: C_2  and  N_7
REMARK    3  A    between atoms: C_3  and  C_4
REMARK    4  A    between atoms: C_4  and  C_5
REMARK    5  A    between atoms: N_7  and  N_8
REMARK    6  A    between atoms: C_9  and  C_11
REMARK                            x       y       z     vdW  Elec       q    Type
REMARK                         _______ _______ _______ _____ _____    ______ ____
ROOT
ATOM      1  N   UNL     1      16.662  11.771  35.083  0.00  0.00    +0.000 NA
ATOM      2  C   UNL     1      15.285  11.903  34.820  0.00  0.00    +0.000 C 
ATOM      3  O   UNL     1      14.481  11.369  35.635  0.00  0.00    +0.000 OA
ENDROOT
BRANCH   2   4
ATOM      4  C   UNL     1      14.770  12.622  33.663  0.00  0.00    +0.000 A 
ATOM      5  C   UNL     1      13.992  13.734  33.845  0.00  0.00    +0.000 A 
ATOM      6  C   UNL     1      13.471  14.452  32.785  0.00  0.00    +0.000 A 
ATOM      7  C   UNL     1      13.725  14.059  31.477  0.00  0.00    +0.000 A 
ATOM      8  C   UNL     1      14.506  12.943  31.284  0.00  0.00    +0.000 A 
ATOM      9  C   UNL     1      15.026  12.228  32.368  0.00  0.00    +0.000 A 
ATOM     10 BR   UNL     1      16.097  10.701  32.093  0.00  0.00    +0.000 Br
ENDBRANCH   2   4
BRANCH   1  11
ATOM     11  N   UNL     1      17.108  11.071  36.209  0.00  0.00    +0.000 NA
BRANCH  11  13
ATOM     12  C   UNL     1      17.448   8.999  35.198  0.00  0.00    +0.000 C 
ATOM     13  C   UNL     1      17.935   9.938  35.964  0.00  0.00    +0.000 C 
BRANCH  13  14
ATOM     14  C   UNL     1      19.236   9.895  36.565  0.00  0.00    +0.000 C 
BRANCH  14  15
ATOM     15  C   UNL     1      19.459   9.596  37.959  0.00  0.00    +0.000 C 
BRANCH  15  16
ATOM     16  C   UNL     1      18.494   8.839  38.760  0.00  0.00    +0.000 C 
ATOM     17  C   UNL     1      17.606   9.614  39.651  0.00  0.00    +0.000 C 
ENDBRANCH  15  16
ENDBRANCH  14  15
ENDBRANCH  13  14
ENDBRANCH  11  13
ENDBRANCH   1  11
TORSDOF 6
ENDMDL
MODEL 4
REMARK VINA RESULT:      -5.8      2.871      6.543
REMARK  Name = 
REMARK  6 active torsions:
REMARK  status: ('A' for Active; 'I' for Inactive)
REMARK    1  A    between atoms: C_2  and  C_3
REMARK    2  A    between atoms: C_2  and  N_7
REMARK    3  A    between atoms: C_3  and  C_4
REMARK    4  A    between atoms: C_4  and  C_5
REMARK    5  A    between atoms: N_7  and  N_8
REMARK    6  A    between atoms: C_9  and  C_11
REMARK                            x       y       z     vdW  Elec       q    Type
REMARK                         _______ _______ _______ _____ _____    ______ ____
ROOT
ATOM      1  N   UNL     1      16.794  11.722  34.554  0.00  0.00    +0.000 NA
ATOM      2  C   UNL     1      15.915  11.317  33.531  0.00  0.00    +0.000 C 
ATOM      3  O   UNL     1      15.728  10.076  33.381  0.00  0.00    +0.000 OA
ENDROOT
BRANCH   2   4
ATOM      4  C   UNL     1      15.231  12.263  32.661  0.00  0.00    +0.000 A 
ATOM      5  C   UNL     1      15.470  12.241  31.313  0.00  0.00    +0.000 A 
ATOM      6  C   UNL     1      14.855  13.119  30.439  0.00  0.00    +0.000 A 
ATOM      7  C   UNL     1      13.959  14.068  30.912  0.00  0.00    +0.000 A 
ATOM      8  C   UNL     1      13.710  14.097  32.265  0.00  0.00    +0.000 A 
ATOM      9  C   UNL     1      14.341  13.202  33.135  0.00  0.00    +0.000 A 
ATOM     10 BR   UNL     1      13.994  13.248  34.988  0.00  0.00    +0.000 Br
ENDBRANCH   2   4
BRANCH   1  11
ATOM     11  N   UNL     1      17.429  10.776  35.365  0.00  0.00    +0.000 NA
BRANCH  11  13
ATOM     12  C   UNL     1      17.574  12.347  37.080  0.00  0.00    +0.000 C 
ATOM     13  C   UNL     1      17.513  11.084  36.752  0.00  0.00    +0.000 C 
BRANCH  13  14
ATOM     14  C   UNL     1      17.526  10.005  37.696  0.00  0.00    +0.000 C 
BRANCH  14  15
ATOM     15  C   UNL     1      18.088  10.112  39.021  0.00  0.00    +0.000 C 
BRANCH  15  16
ATOM     16  C   UNL     1      17.580   9.328  40.149  0.00  0.00    +0.000 C 
ATOM     17  C   UNL     1      16.193   9.597  40.585  0.00  0.00    +0.000 C 
ENDBRANCH  15  16
ENDBRANCH  14  15
ENDBRANCH  13  14
ENDBRANCH  11  13
ENDBRANCH   1  11
TORSDOF 6
ENDMDL
MODEL 5
REMARK VINA RESULT:      -5.7      3.104      4.048
REMARK  Name = 
REMARK  6 active torsions:
REMARK  status: ('A' for Active; 'I' for Inactive)
REMARK    1  A    between atoms: C_2  and  C_3
REMARK    2  A    between atoms: C_2  and  N_7
REMARK    3  A    between atoms: C_3  and  C_4
REMARK    4  A    between atoms: C_4  and  C_5
REMARK    5  A    between atoms: N_7  and  N_8
REMARK    6  A    between atoms: C_9  and  C_11
REMARK                            x       y       z     vdW  Elec       q    Type
REMARK                         _______ _______ _______ _____ _____    ______ ____
ROOT
ATOM      1  N   UNL     1      17.413  10.817  33.927  0.00  0.00    +0.000 NA
ATOM      2  C   UNL     1      17.618   9.840  34.922  0.00  0.00    +0.000 C 
ATOM      3  O   UNL     1      17.222   8.666  34.677  0.00  0.00    +0.000 OA
ENDROOT
BRANCH   2   4
ATOM      4  C   UNL     1      18.260  10.136  36.195  0.00  0.00    +0.000 A 
ATOM      5  C   UNL     1      19.573   9.799  36.388  0.00  0.00    +0.000 A 
ATOM      6  C   UNL     1      20.233  10.049  37.577  0.00  0.00    +0.000 A 
ATOM      7  C   UNL     1      19.570  10.661  38.633  0.00  0.00    +0.000 A 
ATOM      8  C   UNL     1      18.250  11.004  38.449  0.00  0.00    +0.000 A 
ATOM      9  C   UNL     1      17.599  10.744  37.239  0.00  0.00    +0.000 A 
ATOM     10 BR   UNL     1      15.790  11.219  36.994  0.00  0.00    +0.000 Br
ENDBRANCH   2   4
BRANCH   1  11
ATOM     11  N   UNL     1      16.792  10.484  32.720  0.00  0.00    +0.000 NA
BRANCH  11  13
ATOM     12  C   UNL     1      14.552   9.966  32.343  0.00  0.00    +0.000 C 
ATOM     13  C   UNL     1      15.439  10.898  32.568  0.00  0.00    +0.000 C 
BRANCH  13  14
ATOM     14  C   UNL     1      15.132  12.295  32.669  0.00  0.00    +0.000 C 
BRANCH  14  15
ATOM     15  C   UNL     1      14.491  13.048  31.618  0.00  0.00    +0.000 C 
BRANCH  15  16
ATOM     16  C   UNL     1      15.243  13.916  30.710  0.00  0.00    +0.000 C 
ATOM     17  C   UNL     1      16.579  13.447  30.284  0.00  0.00    +0.000 C 
ENDBRANCH  15  16
ENDBRANCH  14  15
ENDBRANCH  13  14
ENDBRANCH  11  13
ENDBRANCH   1  11
TORSDOF 6
ENDMDL
MODEL 6
REMARK VINA RESULT:      -5.7      3.070      4.034
REMARK  Name = 
REMARK  6 active torsions:
REMARK  status: ('A' for Active; 'I' for Inactive)
REMARK    1  A    between atoms: C_2  and  C_3
REMARK    2  A    between atoms: C_2  and  N_7
REMARK    3  A    between atoms: C_3  and  C_4
REMARK    4  A    between atoms: C_4  and  C_5
REMARK    5  A    between atoms: N_7  and  N_8
REMARK    6  A    between atoms: C_9  and  C_11
REMARK                            x       y       z     vdW  Elec       q    Type
REMARK                         _______ _______ _______ _____ _____    ______ ____
ROOT
ATOM      1  N   UNL     1      16.667  12.019  35.170  0.00  0.00    +0.000 NA
ATOM      2  C   UNL     1      16.786  12.171  36.566  0.00  0.00    +0.000 C 
ATOM      3  O   UNL     1      15.722  12.327  37.229  0.00  0.00    +0.000 OA
ENDROOT
BRANCH   2   4
ATOM      4  C   UNL     1      18.070  12.151  37.252  0.00  0.00    +0.000 A 
ATOM      5  C   UNL     1      18.651  13.330  37.637  0.00  0.00    +0.000 A 
ATOM      6  C   UNL     1      19.872  13.374  38.285  0.00  0.00    +0.000 A 
ATOM      7  C   UNL     1      20.559  12.202  38.571  0.00  0.00    +0.000 A 
ATOM      8  C   UNL     1      19.983  11.012  38.189  0.00  0.00    +0.000 A 
ATOM      9  C   UNL     1      18.747  10.986  37.533  0.00  0.00    +0.000 A 
ATOM     10 BR   UNL     1      17.964   9.350  37.015  0.00  0.00    +0.000 Br
ENDBRANCH   2   4
BRANCH   1  11
ATOM     11  N   UNL     1      15.411  12.045  34.556  0.00  0.00    +0.000 NA
BRANCH  11  13
ATOM     12  C   UNL     1      16.205  10.930  32.670  0.00  0.00    +0.000 C 
ATOM     13  C   UNL     1      15.389  11.830  33.149  0.00  0.00    +0.000 C 
BRANCH  13  14
ATOM     14  C   UNL     1      14.485  12.605  32.350  0.00  0.00    +0.000 C 
BRANCH  14  15
ATOM     15  C   UNL     1      14.669  12.837  30.937  0.00  0.00    +0.000 C 
BRANCH  15  16
ATOM     16  C   UNL     1      15.490  13.937  30.427  0.00  0.00    +0.000 C 
ATOM     17  C   UNL     1      16.920  13.651  30.182  0.00  0.00    +0.000 C 
ENDBRANCH  15  16
ENDBRANCH  14  15
ENDBRANCH  13  14
ENDBRANCH  11  13
ENDBRANCH   1  11
TORSDOF 6
ENDMDL
MODEL 7
REMARK VINA RESULT:      -5.6      3.221      4.178
REMARK  Name = 
REMARK  6 active torsions:
REMARK  status: ('A' for Active; 'I' for Inactive)
REMARK    1  A    between atoms: C_2  and  C_3
REMARK    2  A    between atoms: C_2  and  N_7
REMARK    3  A    between atoms: C_3  and  C_4
REMARK    4  A    between atoms: C_4  and  C_5
REMARK    5  A    between atoms: N_7  and  N_8
REMARK    6  A    between atoms: C_9  and  C_11
REMARK                            x       y       z     vdW  Elec       q    Type
REMARK                         _______ _______ _______ _____ _____    ______ ____
ROOT
ATOM      1  N   UNL     1      17.298  11.311  35.832  0.00  0.00    +0.000 NA
ATOM      2  C   UNL     1      17.587  10.057  36.406  0.00  0.00    +0.000 C 
ATOM      3  O   UNL     1      17.429   9.034  35.683  0.00  0.00    +0.000 OA
ENDROOT
BRANCH   2   4
ATOM      4  C   UNL     1      18.054   9.909  37.778  0.00  0.00    +0.000 A 
ATOM      5  C   UNL     1      17.146   9.864  38.802  0.00  0.00    +0.000 A 
ATOM      6  C   UNL     1      17.531   9.732  40.124  0.00  0.00    +0.000 A 
ATOM      7  C   UNL     1      18.875   9.639  40.459  0.00  0.00    +0.000 A 
ATOM      8  C   UNL     1      19.795   9.682  39.436  0.00  0.00    +0.000 A 
ATOM      9  C   UNL     1      19.389   9.816  38.104  0.00  0.00    +0.000 A 
ATOM     10 BR   UNL     1      20.656   9.874  36.709  0.00  0.00    +0.000 Br
ENDBRANCH   2   4
BRANCH   1  11
ATOM     11  N   UNL     1      16.852  11.403  34.510  0.00  0.00    +0.000 NA
BRANCH  11  13
ATOM     12  C   UNL     1      14.785  12.015  35.396  0.00  0.00    +0.000 C 
ATOM     13  C   UNL     1      15.508  11.834  34.323  0.00  0.00    +0.000 C 
BRANCH  13  14
ATOM     14  C   UNL     1      15.033  12.040  32.986  0.00  0.00    +0.000 C 
BRANCH  14  15
ATOM     15  C   UNL     1      15.879  11.965  31.820  0.00  0.00    +0.000 C 
BRANCH  15  16
ATOM     16  C   UNL     1      15.657  12.804  30.640  0.00  0.00    +0.000 C 
ATOM     17  C   UNL     1      16.757  13.708  30.242  0.00  0.00    +0.000 C 
ENDBRANCH  15  16
ENDBRANCH  14  15
ENDBRANCH  13  14
ENDBRANCH  11  13
ENDBRANCH   1  11
TORSDOF 6
ENDMDL
MODEL 8
REMARK VINA RESULT:      -5.6      2.773      3.770
REMARK  Name = 
REMARK  6 active torsions:
REMARK  status: ('A' for Active; 'I' for Inactive)
REMARK    1  A    between atoms: C_2  and  C_3
REMARK    2  A    between atoms: C_2  and  N_7
REMARK    3  A    between atoms: C_3  and  C_4
REMARK    4  A    between atoms: C_4  and  C_5
REMARK    5  A    between atoms: N_7  and  N_8
REMARK    6  A    between atoms: C_9  and  C_11
REMARK                            x       y       z     vdW  Elec       q    Type
REMARK                         _______ _______ _______ _____ _____    ______ ____
ROOT
ATOM      1  N   UNL     1      17.250  11.359  35.543  0.00  0.00    +0.000 NA
ATOM      2  C   UNL     1      17.343  10.071  36.108  0.00  0.00    +0.000 C 
ATOM      3  O   UNL     1      17.210   9.084  35.332  0.00  0.00    +0.000 OA
ENDROOT
BRANCH   2   4
ATOM      4  C   UNL     1      17.583   9.850  37.527  0.00  0.00    +0.000 A 
ATOM      5  C   UNL     1      18.751   9.262  37.934  0.00  0.00    +0.000 A 
ATOM      6  C   UNL     1      19.030   9.020  39.266  0.00  0.00    +0.000 A 
ATOM      7  C   UNL     1      18.117   9.373  40.251  0.00  0.00    +0.000 A 
ATOM      8  C   UNL     1      16.941   9.966  39.852  0.00  0.00    +0.000 A 
ATOM      9  C   UNL     1      16.674  10.203  38.500  0.00  0.00    +0.000 A 
ATOM     10 BR   UNL     1      15.060  11.017  37.962  0.00  0.00    +0.000 Br
ENDBRANCH   2   4
BRANCH   1  11
ATOM     11  N   UNL     1      17.018  11.522  34.174  0.00  0.00    +0.000 NA
BRANCH  11  13
ATOM     12  C   UNL     1      14.869  12.366  34.488  0.00  0.00    +0.000 C 
ATOM     13  C   UNL     1      15.657  11.614  33.768  0.00  0.00    +0.000 C 
BRANCH  13  14
ATOM     14  C   UNL     1      15.235  10.884  32.608  0.00  0.00    +0.000 C 
BRANCH  14  15
ATOM     15  C   UNL     1      15.689  11.182  31.271  0.00  0.00    +0.000 C 
BRANCH  15  16
ATOM     16  C   UNL     1      15.968  12.550  30.828  0.00  0.00    +0.000 C 
ATOM     17  C   UNL     1      14.803  13.428  30.583  0.00  0.00    +0.000 C 
ENDBRANCH  15  16
ENDBRANCH  14  15
ENDBRANCH  13  14
ENDBRANCH  11  13
ENDBRANCH   1  11
TORSDOF 6
ENDMDL
MODEL 9
REMARK VINA RESULT:      -5.6     28.204     30.020
REMARK  Name = 
REMARK  6 active torsions:
REMARK  status: ('A' for Active; 'I' for Inactive)
REMARK    1  A    between atoms: C_2  and  C_3
REMARK    2  A    between atoms: C_2  and  N_7
REMARK    3  A    between atoms: C_3  and  C_4
REMARK    4  A    between atoms: C_4  and  C_5
REMARK    5  A    between atoms: N_7  and  N_8
REMARK    6  A    between atoms: C_9  and  C_11
REMARK                            x       y       z     vdW  Elec       q    Type
REMARK                         _______ _______ _______ _____ _____    ______ ____
ROOT
ATOM      1  N   UNL     1      30.807  22.810  11.413  0.00  0.00    +0.000 NA
ATOM      2  C   UNL     1      29.826  22.378  12.328  0.00  0.00    +0.000 C 
ATOM      3  O   UNL     1      30.207  21.658  13.294  0.00  0.00    +0.000 OA
ENDROOT
BRANCH   2   4
ATOM      4  C   UNL     1      28.419  22.729  12.198  0.00  0.00    +0.000 A 
ATOM      5  C   UNL     1      27.645  22.094  11.264  0.00  0.00    +0.000 A 
ATOM      6  C   UNL     1      26.306  22.390  11.090  0.00  0.00    +0.000 A 
ATOM      7  C   UNL     1      25.693  23.360  11.873  0.00  0.00    +0.000 A 
ATOM      8  C   UNL     1      26.463  24.003  12.815  0.00  0.00    +0.000 A 
ATOM      9  C   UNL     1      27.816  23.691  12.977  0.00  0.00    +0.000 A 
ATOM     10 BR   UNL     1      28.863  24.577  14.272  0.00  0.00    +0.000 Br
ENDBRANCH   2   4
BRANCH   1  11
ATOM     11  N   UNL     1      32.146  22.447  11.580  0.00  0.00    +0.000 NA
BRANCH  11  13
ATOM     12  C   UNL     1      33.370  20.520  11.115  0.00  0.00    +0.000 C 
ATOM     13  C   UNL     1      32.672  21.516  10.640  0.00  0.00    +0.000 C 
BRANCH  13  14
ATOM     14  C   UNL     1      32.410  21.724   9.246  0.00  0.00    +0.000 C 
BRANCH  14  15
ATOM     15  C   UNL     1      32.039  20.665   8.339  0.00  0.00    +0.000 C 
BRANCH  15  16
ATOM     16  C   UNL     1      30.659  20.469   7.890  0.00  0.00    +0.000 C 
ATOM     17  C   UNL     1      30.436  19.481   6.813  0.00  0.00    +0.000 C 
ENDBRANCH  15  16
ENDBRANCH  14  15
ENDBRANCH  13  14
ENDBRANCH  11  13
ENDBRANCH   1  11
TORSDOF 6
ENDMDL
MODEL 10
REMARK VINA RESULT:      -5.5     28.217     29.883
REMARK  Name = 
REMARK  6 active torsions:
REMARK  status: ('A' for Active; 'I' for Inactive)
REMARK    1  A    between atoms: C_2  and  C_3
REMARK    2  A    between atoms: C_2  and  N_7
REMARK    3  A    between atoms: C_3  and  C_4
REMARK    4  A    between atoms: C_4  and  C_5
REMARK    5  A    between atoms: N_7  and  N_8
REMARK    6  A    between atoms: C_9  and  C_11
REMARK                            x       y       z     vdW  Elec       q    Type
REMARK                         _______ _______ _______ _____ _____    ______ ____
ROOT
ATOM      1  N   UNL     1      30.890  22.847  11.453  0.00  0.00    +0.000 NA
ATOM      2  C   UNL     1      29.920  22.474  12.404  0.00  0.00    +0.000 C 
ATOM      3  O   UNL     1      30.318  21.858  13.433  0.00  0.00    +0.000 OA
ENDROOT
BRANCH   2   4
ATOM      4  C   UNL     1      28.504  22.771  12.241  0.00  0.00    +0.000 A 
ATOM      5  C   UNL     1      27.773  22.096  11.300  0.00  0.00    +0.000 A 
ATOM      6  C   UNL     1      26.427  22.340  11.095  0.00  0.00    +0.000 A 
ATOM      7  C   UNL     1      25.764  23.296  11.853  0.00  0.00    +0.000 A 
ATOM      8  C   UNL     1      26.489  23.979  12.802  0.00  0.00    +0.000 A 
ATOM      9  C   UNL     1      27.850  23.720  12.996  0.00  0.00    +0.000 A 
ATOM     10 BR   UNL     1      28.837  24.659  14.300  0.00  0.00    +0.000 Br
ENDBRANCH   2   4
BRANCH   1  11
ATOM     11  N   UNL     1      32.239  22.539  11.654  0.00  0.00    +0.000 NA
BRANCH  11  13
ATOM     12  C   UNL     1      32.046  21.114   9.820  0.00  0.00    +0.000 C 
ATOM     13  C   UNL     1      32.800  21.556  10.791  0.00  0.00    +0.000 C 
BRANCH  13  14
ATOM     14  C   UNL     1      34.142  21.113  11.034  0.00  0.00    +0.000 C 
BRANCH  14  15
ATOM     15  C   UNL     1      34.479  20.075  11.978  0.00  0.00    +0.000 C 
BRANCH  15  16
ATOM     16  C   UNL     1      35.824  19.939  12.542  0.00  0.00    +0.000 C 
ATOM     17  C   UNL     1      36.038  18.845  13.513  0.00  0.00    +0.000 C 
ENDBRANCH  15  16
ENDBRANCH  14  15
ENDBRANCH  13  14
ENDBRANCH  11  13
ENDBRANCH   1  11
TORSDOF 6
ENDMDL
