MODEL 1
REMARK VINA RESULT:      -6.4      0.000      0.000
REMARK  Name = 
REMARK  3 active torsions:
REMARK  status: ('A' for Active; 'I' for Inactive)
REMARK    1  A    between atoms: O_2  and  C_3
REMARK    2  A    between atoms: C_8  and  O_9
REMARK    3  A    between atoms: C_11  and  C_12
REMARK                            x       y       z     vdW  Elec       q    Type
REMARK                         _______ _______ _______ _____ _____    ______ ____
ROOT
ATOM      1  C   UNL     1      28.367  22.946  24.030  0.00  0.00    +0.000 A 
ATOM      2  C   UNL     1      29.619  22.686  24.529  0.00  0.00    +0.000 A 
ATOM      3  C   UNL     1      29.692  22.595  25.924  0.00  0.00    +0.000 A 
ATOM      4  C   UNL     1      28.635  22.745  26.729  0.00  0.00    +0.000 A 
ATOM      5  C   UNL     1      27.407  23.005  26.182  0.00  0.00    +0.000 A 
ATOM      6  C   UNL     1      27.258  23.109  24.830  0.00  0.00    +0.000 A 
ATOM      7  C   UNL     1      28.750  22.545  28.276  0.00  0.00    +0.000 C 
ATOM      8  C   UNL     1      30.139  23.332  28.550  0.00  0.00    +0.000 C 
ATOM      9  C   UNL     1      31.098  22.409  27.898  0.00  0.00    +0.000 C 
ATOM     10  O   UNL     1      31.874  21.727  28.541  0.00  0.00    +0.000 OA
ATOM     11  N   UNL     1      31.010  22.410  26.470  0.00  0.00    +0.000 NA
ENDROOT
BRANCH   7  12
ATOM     12  C   UNL     1      27.744  23.704  28.719  0.00  0.00    +0.000 A 
ATOM     13  C   UNL     1      27.866  24.961  28.295  0.00  0.00    +0.000 A 
ATOM     14  C   UNL     1      26.954  25.912  28.703  0.00  0.00    +0.000 A 
ATOM     15  C   UNL     1      25.924  25.571  29.540  0.00  0.00    +0.000 A 
ATOM     16  C   UNL     1      25.815  24.273  29.967  0.00  0.00    +0.000 A 
ATOM     17  C   UNL     1      26.720  23.302  29.569  0.00  0.00    +0.000 A 
ATOM     18  C   UNL     1      26.603  21.893  30.047  0.00  0.00    +0.000 C 
ENDBRANCH   7  12
BRANCH   1  20
ATOM     19  C   UNL     1      28.744  24.149  21.971  0.00  0.00    +0.000 C 
ATOM     20  O   UNL     1      28.172  23.057  22.663  0.00  0.00    +0.000 OA
ENDBRANCH   1  20
BRANCH   6  21
ATOM     21  O   UNL     1      26.007  23.376  24.225  0.00  0.00    +0.000 OA
ATOM     22  C   UNL     1      25.365  24.591  24.528  0.00  0.00    +0.000 C 
ENDBRANCH   6  21
TORSDOF 3
ENDMDL
MODEL 2
REMARK VINA RESULT:      -6.3      2.683      5.902
REMARK  Name = 
REMARK  3 active torsions:
REMARK  status: ('A' for Active; 'I' for Inactive)
REMARK    1  A    between atoms: O_2  and  C_3
REMARK    2  A    between atoms: C_8  and  O_9
REMARK    3  A    between atoms: C_11  and  C_12
REMARK                            x       y       z     vdW  Elec       q    Type
REMARK                         _______ _______ _______ _____ _____    ______ ____
ROOT
ATOM      1  C   UNL     1      26.237  23.967  27.928  0.00  0.00    +0.000 A 
ATOM      2  C   UNL     1      25.428  23.828  26.828  0.00  0.00    +0.000 A 
ATOM      3  C   UNL     1      26.105  23.644  25.616  0.00  0.00    +0.000 A 
ATOM      4  C   UNL     1      27.438  23.602  25.516  0.00  0.00    +0.000 A 
ATOM      5  C   UNL     1      28.201  23.747  26.643  0.00  0.00    +0.000 A 
ATOM      6  C   UNL     1      27.612  23.931  27.860  0.00  0.00    +0.000 A 
ATOM      7  C   UNL     1      28.146  23.304  24.153  0.00  0.00    +0.000 C 
ATOM      8  C   UNL     1      27.254  24.234  23.172  0.00  0.00    +0.000 C 
ATOM      9  C   UNL     1      25.974  23.488  23.194  0.00  0.00    +0.000 C 
ATOM     10  O   UNL     1      25.577  22.862  22.229  0.00  0.00    +0.000 OA
ATOM     11  N   UNL     1      25.278  23.584  24.441  0.00  0.00    +0.000 NA
ENDROOT
BRANCH   7  12
ATOM     12  C   UNL     1      29.387  24.293  24.334  0.00  0.00    +0.000 A 
ATOM     13  C   UNL     1      29.263  25.617  24.279  0.00  0.00    +0.000 A 
ATOM     14  C   UNL     1      30.373  26.417  24.458  0.00  0.00    +0.000 A 
ATOM     15  C   UNL     1      31.600  25.856  24.694  0.00  0.00    +0.000 A 
ATOM     16  C   UNL     1      31.709  24.491  24.748  0.00  0.00    +0.000 A 
ATOM     17  C   UNL     1      30.607  23.669  24.570  0.00  0.00    +0.000 A 
ATOM     18  C   UNL     1      30.734  22.183  24.617  0.00  0.00    +0.000 C 
ENDBRANCH   7  12
BRANCH   1  20
ATOM     19  C   UNL     1      25.207  25.437  29.543  0.00  0.00    +0.000 C 
ATOM     20  O   UNL     1      25.679  24.154  29.183  0.00  0.00    +0.000 OA
ENDBRANCH   1  20
BRANCH   6  21
ATOM     21  O   UNL     1      28.363  24.086  29.049  0.00  0.00    +0.000 OA
ATOM     22  C   UNL     1      29.022  22.959  29.573  0.00  0.00    +0.000 C 
ENDBRANCH   6  21
TORSDOF 3
ENDMDL
MODEL 3
REMARK VINA RESULT:      -6.2     21.051     22.766
REMARK  Name = 
REMARK  3 active torsions:
REMARK  status: ('A' for Active; 'I' for Inactive)
REMARK    1  A    between atoms: O_2  and  C_3
REMARK    2  A    between atoms: C_8  and  O_9
REMARK    3  A    between atoms: C_11  and  C_12
REMARK                            x       y       z     vdW  Elec       q    Type
REMARK                         _______ _______ _______ _____ _____    ______ ____
ROOT
ATOM      1  C   UNL     1      27.221   0.670  16.793  0.00  0.00    +0.000 A 
ATOM      2  C   UNL     1      25.941   0.586  17.280  0.00  0.00    +0.000 A 
ATOM      3  C   UNL     1      25.264   1.808  17.377  0.00  0.00    +0.000 A 
ATOM      4  C   UNL     1      25.805   2.979  17.025  0.00  0.00    +0.000 A 
ATOM      5  C   UNL     1      27.086   3.010  16.545  0.00  0.00    +0.000 A 
ATOM      6  C   UNL     1      27.809   1.859  16.423  0.00  0.00    +0.000 A 
ATOM      7  C   UNL     1      24.976   4.306  17.066  0.00  0.00    +0.000 C 
ATOM      8  C   UNL     1      24.225   4.115  18.488  0.00  0.00    +0.000 C 
ATOM      9  C   UNL     1      23.299   3.010  18.151  0.00  0.00    +0.000 C 
ATOM     10  O   UNL     1      22.099   3.185  18.045  0.00  0.00    +0.000 OA
ATOM     11  N   UNL     1      23.954   1.751  17.968  0.00  0.00    +0.000 NA
ENDROOT
BRANCH   7  12
ATOM     12  C   UNL     1      26.147   5.275  17.558  0.00  0.00    +0.000 A 
ATOM     13  C   UNL     1      26.678   5.198  18.777  0.00  0.00    +0.000 A 
ATOM     14  C   UNL     1      27.698   6.055  19.134  0.00  0.00    +0.000 A 
ATOM     15  C   UNL     1      28.168   6.984  18.243  0.00  0.00    +0.000 A 
ATOM     16  C   UNL     1      27.609   7.048  16.993  0.00  0.00    +0.000 A 
ATOM     17  C   UNL     1      26.584   6.197  16.613  0.00  0.00    +0.000 A 
ATOM     18  C   UNL     1      25.971   6.281  15.255  0.00  0.00    +0.000 C 
ENDBRANCH   7  12
BRANCH   1  20
ATOM     19  C   UNL     1      28.479  -1.123  17.808  0.00  0.00    +0.000 C 
ATOM     20  O   UNL     1      27.989  -0.475  16.651  0.00  0.00    +0.000 OA
ENDBRANCH   1  20
BRANCH   6  21
ATOM     21  O   UNL     1      29.135   1.848  15.932  0.00  0.00    +0.000 OA
ATOM     22  C   UNL     1      30.045   2.791  16.444  0.00  0.00    +0.000 C 
ENDBRANCH   6  21
TORSDOF 3
ENDMDL
MODEL 4
REMARK VINA RESULT:      -6.1     31.763     33.319
REMARK  Name = 
REMARK  3 active torsions:
REMARK  status: ('A' for Active; 'I' for Inactive)
REMARK    1  A    between atoms: O_2  and  C_3
REMARK    2  A    between atoms: C_8  and  O_9
REMARK    3  A    between atoms: C_11  and  C_12
REMARK                            x       y       z     vdW  Elec       q    Type
REMARK                         _______ _______ _______ _____ _____    ______ ____
ROOT
ATOM      1  C   UNL     1      22.068  -8.536  25.243  0.00  0.00    +0.000 A 
ATOM      2  C   UNL     1      21.558  -7.271  25.092  0.00  0.00    +0.000 A 
ATOM      3  C   UNL     1      20.393  -7.011  25.824  0.00  0.00    +0.000 A 
ATOM      4  C   UNL     1      19.806  -7.913  26.618  0.00  0.00    +0.000 A 
ATOM      5  C   UNL     1      20.354  -9.163  26.735  0.00  0.00    +0.000 A 
ATOM      6  C   UNL     1      21.489  -9.489  26.051  0.00  0.00    +0.000 A 
ATOM      7  C   UNL     1      18.557  -7.548  27.486  0.00  0.00    +0.000 C 
ATOM      8  C   UNL     1      17.707  -6.700  26.398  0.00  0.00    +0.000 C 
ATOM      9  C   UNL     1      18.555  -5.490  26.287  0.00  0.00    +0.000 C 
ATOM     10  O   UNL     1      18.205  -4.415  26.738  0.00  0.00    +0.000 OA
ATOM     11  N   UNL     1      19.794  -5.721  25.610  0.00  0.00    +0.000 NA
ENDROOT
BRANCH   7  12
ATOM     12  C   UNL     1      17.782  -8.937  27.343  0.00  0.00    +0.000 A 
ATOM     13  C   UNL     1      17.241  -9.343  26.196  0.00  0.00    +0.000 A 
ATOM     14  C   UNL     1      16.598 -10.562  26.136  0.00  0.00    +0.000 A 
ATOM     15  C   UNL     1      16.513 -11.356  27.249  0.00  0.00    +0.000 A 
ATOM     16  C   UNL     1      17.075 -10.922  28.421  0.00  0.00    +0.000 A 
ATOM     17  C   UNL     1      17.725  -9.701  28.504  0.00  0.00    +0.000 A 
ATOM     18  C   UNL     1      18.324  -9.228  29.786  0.00  0.00    +0.000 C 
ENDBRANCH   7  12
BRANCH   1  20
ATOM     19  C   UNL     1      24.028  -7.907  23.982  0.00  0.00    +0.000 C 
ATOM     20  O   UNL     1      23.220  -8.907  24.568  0.00  0.00    +0.000 OA
ENDBRANCH   1  20
BRANCH   6  21
ATOM     21  O   UNL     1      22.086 -10.767  26.143  0.00  0.00    +0.000 OA
ATOM     22  C   UNL     1      22.798 -11.089  27.314  0.00  0.00    +0.000 C 
ENDBRANCH   6  21
TORSDOF 3
ENDMDL
MODEL 5
REMARK VINA RESULT:      -6.1      2.639      4.582
REMARK  Name = 
REMARK  3 active torsions:
REMARK  status: ('A' for Active; 'I' for Inactive)
REMARK    1  A    between atoms: O_2  and  C_3
REMARK    2  A    between atoms: C_8  and  O_9
REMARK    3  A    between atoms: C_11  and  C_12
REMARK                            x       y       z     vdW  Elec       q    Type
REMARK                         _______ _______ _______ _____ _____    ______ ____
ROOT
ATOM      1  C   UNL     1      30.262  24.881  24.587  0.00  0.00    +0.000 A 
ATOM      2  C   UNL     1      29.620  24.109  23.651  0.00  0.00    +0.000 A 
ATOM      3  C   UNL     1      28.229  24.042  23.794  0.00  0.00    +0.000 A 
ATOM      4  C   UNL     1      27.556  24.676  24.761  0.00  0.00    +0.000 A 
ATOM      5  C   UNL     1      28.243  25.433  25.671  0.00  0.00    +0.000 A 
ATOM      6  C   UNL     1      29.601  25.545  25.596  0.00  0.00    +0.000 A 
ATOM      7  C   UNL     1      25.993  24.643  24.825  0.00  0.00    +0.000 C 
ATOM      8  C   UNL     1      25.739  23.075  24.507  0.00  0.00    +0.000 C 
ATOM      9  C   UNL     1      26.138  23.028  23.081  0.00  0.00    +0.000 C 
ATOM     10  O   UNL     1      25.323  22.883  22.189  0.00  0.00    +0.000 OA
ATOM     11  N   UNL     1      27.547  23.168  22.877  0.00  0.00    +0.000 NA
ENDROOT
BRANCH   7  12
ATOM     12  C   UNL     1      25.845  24.577  26.414  0.00  0.00    +0.000 A 
ATOM     13  C   UNL     1      26.370  23.595  27.144  0.00  0.00    +0.000 A 
ATOM     14  C   UNL     1      26.218  23.605  28.515  0.00  0.00    +0.000 A 
ATOM     15  C   UNL     1      25.532  24.619  29.130  0.00  0.00    +0.000 A 
ATOM     16  C   UNL     1      24.998  25.622  28.362  0.00  0.00    +0.000 A 
ATOM     17  C   UNL     1      25.139  25.631  26.984  0.00  0.00    +0.000 A 
ATOM     18  C   UNL     1      24.544  26.719  26.153  0.00  0.00    +0.000 C 
ENDBRANCH   7  12
BRANCH   1  20
ATOM     19  C   UNL     1      32.455  23.880  24.708  0.00  0.00    +0.000 C 
ATOM     20  O   UNL     1      31.640  25.023  24.545  0.00  0.00    +0.000 OA
ENDBRANCH   1  20
BRANCH   6  21
ATOM     21  O   UNL     1      30.348  26.316  26.516  0.00  0.00    +0.000 OA
ATOM     22  C   UNL     1      30.525  25.816  27.819  0.00  0.00    +0.000 C 
ENDBRANCH   6  21
TORSDOF 3
ENDMDL
MODEL 6
REMARK VINA RESULT:      -6.0      2.661      6.309
REMARK  Name = 
REMARK  3 active torsions:
REMARK  status: ('A' for Active; 'I' for Inactive)
REMARK    1  A    between atoms: O_2  and  C_3
REMARK    2  A    between atoms: C_8  and  O_9
REMARK    3  A    between atoms: C_11  and  C_12
REMARK                            x       y       z     vdW  Elec       q    Type
REMARK                         _______ _______ _______ _____ _____    ______ ____
ROOT
ATOM      1  C   UNL     1      27.009  23.023  28.222  0.00  0.00    +0.000 A 
ATOM      2  C   UNL     1      25.950  23.894  28.275  0.00  0.00    +0.000 A 
ATOM      3  C   UNL     1      25.573  24.444  27.044  0.00  0.00    +0.000 A 
ATOM      4  C   UNL     1      26.185  24.154  25.890  0.00  0.00    +0.000 A 
ATOM      5  C   UNL     1      27.238  23.279  25.890  0.00  0.00    +0.000 A 
ATOM      6  C   UNL     1      27.662  22.704  27.052  0.00  0.00    +0.000 A 
ATOM      7  C   UNL     1      25.669  24.724  24.527  0.00  0.00    +0.000 C 
ATOM      8  C   UNL     1      25.373  26.255  24.965  0.00  0.00    +0.000 C 
ATOM      9  C   UNL     1      24.201  26.054  25.848  0.00  0.00    +0.000 C 
ATOM     10  O   UNL     1      23.081  26.400  25.520  0.00  0.00    +0.000 OA
ATOM     11  N   UNL     1      24.523  25.426  27.092  0.00  0.00    +0.000 NA
ENDROOT
BRANCH   7  12
ATOM     12  C   UNL     1      27.092  24.957  23.841  0.00  0.00    +0.000 A 
ATOM     13  C   UNL     1      28.031  25.732  24.380  0.00  0.00    +0.000 A 
ATOM     14  C   UNL     1      29.246  25.880  23.743  0.00  0.00    +0.000 A 
ATOM     15  C   UNL     1      29.492  25.235  22.560  0.00  0.00    +0.000 A 
ATOM     16  C   UNL     1      28.512  24.442  22.018  0.00  0.00    +0.000 A 
ATOM     17  C   UNL     1      27.286  24.280  22.642  0.00  0.00    +0.000 A 
ATOM     18  C   UNL     1      26.220  23.425  22.041  0.00  0.00    +0.000 C 
ENDBRANCH   7  12
BRANCH   1  20
ATOM     19  C   UNL     1      26.547  21.775  30.236  0.00  0.00    +0.000 C 
ATOM     20  O   UNL     1      27.470  22.416  29.379  0.00  0.00    +0.000 OA
ENDBRANCH   1  20
BRANCH   6  21
ATOM     21  O   UNL     1      28.746  21.796  27.095  0.00  0.00    +0.000 OA
ATOM     22  C   UNL     1      30.018  22.257  26.710  0.00  0.00    +0.000 C 
ENDBRANCH   6  21
TORSDOF 3
ENDMDL
MODEL 7
REMARK VINA RESULT:      -5.6     29.287     31.058
REMARK  Name = 
REMARK  3 active torsions:
REMARK  status: ('A' for Active; 'I' for Inactive)
REMARK    1  A    between atoms: O_2  and  C_3
REMARK    2  A    between atoms: C_8  and  O_9
REMARK    3  A    between atoms: C_11  and  C_12
REMARK                            x       y       z     vdW  Elec       q    Type
REMARK                         _______ _______ _______ _____ _____    ______ ____
ROOT
ATOM      1  C   UNL     1      30.364  -8.226  31.735  0.00  0.00    +0.000 A 
ATOM      2  C   UNL     1      30.814  -8.081  30.446  0.00  0.00    +0.000 A 
ATOM      3  C   UNL     1      32.093  -7.525  30.325  0.00  0.00    +0.000 A 
ATOM      4  C   UNL     1      32.837  -7.156  31.373  0.00  0.00    +0.000 A 
ATOM      5  C   UNL     1      32.343  -7.319  32.639  0.00  0.00    +0.000 A 
ATOM      6  C   UNL     1      31.104  -7.855  32.835  0.00  0.00    +0.000 A 
ATOM      7  C   UNL     1      34.297  -6.622  31.190  0.00  0.00    +0.000 C 
ATOM      8  C   UNL     1      34.071  -5.636  29.925  0.00  0.00    +0.000 C 
ATOM      9  C   UNL     1      33.812  -6.631  28.858  0.00  0.00    +0.000 C 
ATOM     10  O   UNL     1      34.620  -6.853  27.974  0.00  0.00    +0.000 OA
ATOM     11  N   UNL     1      32.545  -7.284  28.981  0.00  0.00    +0.000 NA
ENDROOT
BRANCH   7  12
ATOM     12  C   UNL     1      34.268  -5.518  32.344  0.00  0.00    +0.000 A 
ATOM     13  C   UNL     1      33.503  -4.431  32.278  0.00  0.00    +0.000 A 
ATOM     14  C   UNL     1      33.513  -3.523  33.316  0.00  0.00    +0.000 A 
ATOM     15  C   UNL     1      34.305  -3.733  34.414  0.00  0.00    +0.000 A 
ATOM     16  C   UNL     1      35.087  -4.858  34.464  0.00  0.00    +0.000 A 
ATOM     17  C   UNL     1      35.091  -5.783  33.433  0.00  0.00    +0.000 A 
ATOM     18  C   UNL     1      35.955  -6.999  33.488  0.00  0.00    +0.000 C 
ENDBRANCH   7  12
BRANCH   1  20
ATOM     19  C   UNL     1      28.010  -8.326  31.212  0.00  0.00    +0.000 C 
ATOM     20  O   UNL     1      29.112  -8.767  31.979  0.00  0.00    +0.000 OA
ENDBRANCH   1  20
BRANCH   6  21
ATOM     21  O   UNL     1      30.556  -8.040  34.126  0.00  0.00    +0.000 OA
ATOM     22  C   UNL     1      30.510  -6.936  34.997  0.00  0.00    +0.000 C 
ENDBRANCH   6  21
TORSDOF 3
ENDMDL
MODEL 8
REMARK VINA RESULT:      -5.5     32.276     33.783
REMARK  Name = 
REMARK  3 active torsions:
REMARK  status: ('A' for Active; 'I' for Inactive)
REMARK    1  A    between atoms: O_2  and  C_3
REMARK    2  A    between atoms: C_8  and  O_9
REMARK    3  A    between atoms: C_11  and  C_12
REMARK                            x       y       z     vdW  Elec       q    Type
REMARK                         _______ _______ _______ _____ _____    ______ ____
ROOT
ATOM      1  C   UNL     1      19.260  -6.759  26.038  0.00  0.00    +0.000 A 
ATOM      2  C   UNL     1      20.540  -7.032  25.625  0.00  0.00    +0.000 A 
ATOM      3  C   UNL     1      21.001  -8.317  25.935  0.00  0.00    +0.000 A 
ATOM      4  C   UNL     1      20.265  -9.227  26.582  0.00  0.00    +0.000 A 
ATOM      5  C   UNL     1      18.994  -8.906  26.975  0.00  0.00    +0.000 A 
ATOM      6  C   UNL     1      18.476  -7.671  26.709  0.00  0.00    +0.000 A 
ATOM      7  C   UNL     1      20.791 -10.680  26.826  0.00  0.00    +0.000 C 
ATOM      8  C   UNL     1      22.312 -10.348  27.274  0.00  0.00    +0.000 C 
ATOM      9  C   UNL     1      22.868  -9.872  25.986  0.00  0.00    +0.000 C 
ATOM     10  O   UNL     1      23.671 -10.528  25.349  0.00  0.00    +0.000 OA
ATOM     11  N   UNL     1      22.369  -8.592  25.588  0.00  0.00    +0.000 NA
ENDROOT
BRANCH   7  12
ATOM     12  C   UNL     1      20.169 -10.893  28.282  0.00  0.00    +0.000 A 
ATOM     13  C   UNL     1      20.444 -10.087  29.305  0.00  0.00    +0.000 A 
ATOM     14  C   UNL     1      19.861 -10.317  30.534  0.00  0.00    +0.000 A 
ATOM     15  C   UNL     1      19.001 -11.368  30.707  0.00  0.00    +0.000 A 
ATOM     16  C   UNL     1      18.730 -12.188  29.642  0.00  0.00    +0.000 A 
ATOM     17  C   UNL     1      19.304 -11.975  28.399  0.00  0.00    +0.000 A 
ATOM     18  C   UNL     1      19.014 -12.879  27.248  0.00  0.00    +0.000 C 
ENDBRANCH   7  12
BRANCH   1  20
ATOM     19  C   UNL     1      18.895  -4.471  26.713  0.00  0.00    +0.000 C 
ATOM     20  O   UNL     1      18.696  -5.519  25.786  0.00  0.00    +0.000 OA
ENDBRANCH   1  20
BRANCH   6  21
ATOM     21  O   UNL     1      17.168  -7.300  27.097  0.00  0.00    +0.000 OA
ATOM     22  C   UNL     1      16.082  -7.825  26.373  0.00  0.00    +0.000 C 
ENDBRANCH   6  21
TORSDOF 3
ENDMDL
MODEL 9
REMARK VINA RESULT:      -5.5      3.369      5.548
REMARK  Name = 
REMARK  3 active torsions:
REMARK  status: ('A' for Active; 'I' for Inactive)
REMARK    1  A    between atoms: O_2  and  C_3
REMARK    2  A    between atoms: C_8  and  O_9
REMARK    3  A    between atoms: C_11  and  C_12
REMARK                            x       y       z     vdW  Elec       q    Type
REMARK                         _______ _______ _______ _____ _____    ______ ____
ROOT
ATOM      1  C   UNL     1      29.217  27.773  23.580  0.00  0.00    +0.000 A 
ATOM      2  C   UNL     1      28.572  27.207  22.510  0.00  0.00    +0.000 A 
ATOM      3  C   UNL     1      28.030  25.938  22.748  0.00  0.00    +0.000 A 
ATOM      4  C   UNL     1      28.121  25.308  23.924  0.00  0.00    +0.000 A 
ATOM      5  C   UNL     1      28.777  25.914  24.962  0.00  0.00    +0.000 A 
ATOM      6  C   UNL     1      29.332  27.151  24.804  0.00  0.00    +0.000 A 
ATOM      7  C   UNL     1      27.421  23.930  24.169  0.00  0.00    +0.000 C 
ATOM      8  C   UNL     1      27.791  23.185  22.780  0.00  0.00    +0.000 C 
ATOM      9  C   UNL     1      26.955  23.960  21.834  0.00  0.00    +0.000 C 
ATOM     10  O   UNL     1      25.965  23.483  21.310  0.00  0.00    +0.000 OA
ATOM     11  N   UNL     1      27.426  25.292  21.614  0.00  0.00    +0.000 NA
ENDROOT
BRANCH   7  12
ATOM     12  C   UNL     1      28.553  23.274  25.085  0.00  0.00    +0.000 A 
ATOM     13  C   UNL     1      29.771  22.991  24.628  0.00  0.00    +0.000 A 
ATOM     14  C   UNL     1      30.709  22.438  25.476  0.00  0.00    +0.000 A 
ATOM     15  C   UNL     1      30.394  22.179  26.784  0.00  0.00    +0.000 A 
ATOM     16  C   UNL     1      29.135  22.477  27.236  0.00  0.00    +0.000 A 
ATOM     17  C   UNL     1      28.178  23.033  26.402  0.00  0.00    +0.000 A 
ATOM     18  C   UNL     1      26.805  23.343  26.898  0.00  0.00    +0.000 C 
ENDBRANCH   7  12
BRANCH   1  20
ATOM     19  C   UNL     1      28.982  30.126  23.099  0.00  0.00    +0.000 C 
ATOM     20  O   UNL     1      29.793  29.028  23.463  0.00  0.00    +0.000 OA
ENDBRANCH   1  20
BRANCH   6  21
ATOM     21  O   UNL     1      30.017  27.811  25.850  0.00  0.00    +0.000 OA
ATOM     22  C   UNL     1      29.794  27.381  27.171  0.00  0.00    +0.000 C 
ENDBRANCH   6  21
TORSDOF 3
ENDMDL
MODEL 10
REMARK VINA RESULT:      -5.5     33.027     34.587
REMARK  Name = 
REMARK  3 active torsions:
REMARK  status: ('A' for Active; 'I' for Inactive)
REMARK    1  A    between atoms: O_2  and  C_3
REMARK    2  A    between atoms: C_8  and  O_9
REMARK    3  A    between atoms: C_11  and  C_12
REMARK                            x       y       z     vdW  Elec       q    Type
REMARK                         _______ _______ _______ _____ _____    ______ ____
ROOT
ATOM      1  C   UNL     1      15.410 -10.750  25.760  0.00  0.00    +0.000 A 
ATOM      2  C   UNL     1      15.549 -11.085  27.084  0.00  0.00    +0.000 A 
ATOM      3  C   UNL     1      16.438 -10.280  27.807  0.00  0.00    +0.000 A 
ATOM      4  C   UNL     1      17.108  -9.256  27.269  0.00  0.00    +0.000 A 
ATOM      5  C   UNL     1      16.936  -8.963  25.943  0.00  0.00    +0.000 A 
ATOM      6  C   UNL     1      16.087  -9.704  25.174  0.00  0.00    +0.000 A 
ATOM      7  C   UNL     1      18.021  -8.330  28.139  0.00  0.00    +0.000 C 
ATOM      8  C   UNL     1      18.768  -9.450  29.040  0.00  0.00    +0.000 C 
ATOM      9  C   UNL     1      17.640  -9.903  29.886  0.00  0.00    +0.000 C 
ATOM     10  O   UNL     1      17.575  -9.634  31.071  0.00  0.00    +0.000 OA
ATOM     11  N   UNL     1      16.664 -10.669  29.173  0.00  0.00    +0.000 NA
ENDROOT
BRANCH   7  12
ATOM     12  C   UNL     1      19.179  -8.097  27.064  0.00  0.00    +0.000 A 
ATOM     13  C   UNL     1      20.027  -9.057  26.703  0.00  0.00    +0.000 A 
ATOM     14  C   UNL     1      20.996  -8.794  25.756  0.00  0.00    +0.000 A 
ATOM     15  C   UNL     1      21.090  -7.553  25.186  0.00  0.00    +0.000 A 
ATOM     16  C   UNL     1      20.208  -6.576  25.570  0.00  0.00    +0.000 A 
ATOM     17  C   UNL     1      19.227  -6.818  26.519  0.00  0.00    +0.000 A 
ATOM     18  C   UNL     1      18.279  -5.747  26.942  0.00  0.00    +0.000 C 
ENDBRANCH   7  12
BRANCH   1  20
ATOM     19  C   UNL     1      13.438 -12.121  25.519  0.00  0.00    +0.000 C 
ATOM     20  O   UNL     1      14.556 -11.475  24.945  0.00  0.00    +0.000 OA
ENDBRANCH   1  20
BRANCH   6  21
ATOM     21  O   UNL     1      15.880  -9.434  23.801  0.00  0.00    +0.000 OA
ATOM     22  C   UNL     1      16.774  -9.993  22.869  0.00  0.00    +0.000 C 
ENDBRANCH   6  21
TORSDOF 3
ENDMDL
