MODEL 1
REMARK VINA RESULT:      -7.7      0.000      0.000
REMARK  Name = 
REMARK  3 active torsions:
REMARK  status: ('A' for Active; 'I' for Inactive)
REMARK    1  A    between atoms: C_5  and  C_6
REMARK    2  A    between atoms: N_8  and  C_9
REMARK    3  A    between atoms: C_18  and  N_19
REMARK                            x       y       z     vdW  Elec       q    Type
REMARK                         _______ _______ _______ _____ _____    ______ ____
ROOT
ATOM      1  C   UNL     1      15.877  12.061  35.684  0.00  0.00    +0.000 C 
ATOM      2  O   UNL     1      16.794  12.873  35.356  0.00  0.00    +0.000 OA
ATOM      3  N   UNL     1      14.829  11.834  34.780  0.00  0.00    +0.000 NA
ENDROOT
BRANCH   3   4
ATOM      4  C   UNL     1      14.713  12.449  33.508  0.00  0.00    +0.000 A 
ATOM      5  C   UNL     1      14.019  13.624  33.323  0.00  0.00    +0.000 A 
ATOM      6  C   UNL     1      13.387  14.240  34.521  0.00  0.00    +0.000 C 
ATOM      7  C   UNL     1      13.913  14.218  32.065  0.00  0.00    +0.000 A 
ATOM      8  C   UNL     1      14.502  13.640  30.962  0.00  0.00    +0.000 A 
ATOM      9  C   UNL     1      15.196  12.465  31.143  0.00  0.00    +0.000 A 
ATOM     10  C   UNL     1      15.297  11.882  32.398  0.00  0.00    +0.000 A 
ATOM     11  C   UNL     1      16.062  10.619  32.501  0.00  0.00    +0.000 C 
ENDBRANCH   3   4
BRANCH   1  16
ATOM     12  C   UNL     1      15.989   9.431  40.751  0.00  0.00    +0.000 C 
ATOM     13  C   UNL     1      15.944  10.127  39.417  0.00  0.00    +0.000 A 
ATOM     14  C   UNL     1      14.758  10.677  38.965  0.00  0.00    +0.000 A 
ATOM     15  C   UNL     1      14.776  11.301  37.737  0.00  0.00    +0.000 A 
ATOM     16  C   UNL     1      15.922  11.387  36.974  0.00  0.00    +0.000 A 
ATOM     17  C   UNL     1      17.085  10.828  37.457  0.00  0.00    +0.000 A 
ATOM     18  C   UNL     1      17.109  10.188  38.693  0.00  0.00    +0.000 A 
BRANCH  18  19
ATOM     19  N   UNL     1      18.301   9.613  39.191  0.00  0.00    +0.000 N 
ATOM     20  O   UNL     1      18.599   8.441  38.888  0.00  0.00    +0.000 OA
ATOM     21  O   UNL     1      19.151  10.317  40.010  0.00  0.00    +0.000 OA
ENDBRANCH  18  19
ENDBRANCH   1  16
TORSDOF 3
ENDMDL
MODEL 2
REMARK VINA RESULT:      -7.0      2.202      7.137
REMARK  Name = 
REMARK  3 active torsions:
REMARK  status: ('A' for Active; 'I' for Inactive)
REMARK    1  A    between atoms: C_5  and  C_6
REMARK    2  A    between atoms: N_8  and  C_9
REMARK    3  A    between atoms: C_18  and  N_19
REMARK                            x       y       z     vdW  Elec       q    Type
REMARK                         _______ _______ _______ _____ _____    ______ ____
ROOT
ATOM      1  C   UNL     1      15.791  11.100  35.924  0.00  0.00    +0.000 C 
ATOM      2  O   UNL     1      16.194   9.922  35.687  0.00  0.00    +0.000 OA
ATOM      3  N   UNL     1      15.880  11.587  37.236  0.00  0.00    +0.000 NA
ENDROOT
BRANCH   3   4
ATOM      4  C   UNL     1      16.394  10.854  38.335  0.00  0.00    +0.000 A 
ATOM      5  C   UNL     1      15.575  10.298  39.293  0.00  0.00    +0.000 A 
ATOM      6  C   UNL     1      14.108  10.492  39.133  0.00  0.00    +0.000 C 
ATOM      7  C   UNL     1      16.095   9.580  40.370  0.00  0.00    +0.000 A 
ATOM      8  C   UNL     1      17.454   9.406  40.509  0.00  0.00    +0.000 A 
ATOM      9  C   UNL     1      18.276   9.960  39.554  0.00  0.00    +0.000 A 
ATOM     10  C   UNL     1      17.750  10.672  38.486  0.00  0.00    +0.000 A 
ATOM     11  C   UNL     1      18.707  11.235  37.506  0.00  0.00    +0.000 C 
ENDBRANCH   3   4
BRANCH   1  16
ATOM     12  C   UNL     1      13.634  14.352  31.755  0.00  0.00    +0.000 C 
ATOM     13  C   UNL     1      14.196  13.504  32.865  0.00  0.00    +0.000 A 
ATOM     14  C   UNL     1      13.890  13.800  34.181  0.00  0.00    +0.000 A 
ATOM     15  C   UNL     1      14.433  12.990  35.154  0.00  0.00    +0.000 A 
ATOM     16  C   UNL     1      15.249  11.920  34.849  0.00  0.00    +0.000 A 
ATOM     17  C   UNL     1      15.530  11.656  33.526  0.00  0.00    +0.000 A 
ATOM     18  C   UNL     1      15.003  12.450  32.512  0.00  0.00    +0.000 A 
BRANCH  18  19
ATOM     19  N   UNL     1      15.290  12.182  31.154  0.00  0.00    +0.000 N 
ATOM     20  O   UNL     1      14.596  11.361  30.523  0.00  0.00    +0.000 OA
ATOM     21  O   UNL     1      16.325  12.807  30.501  0.00  0.00    +0.000 OA
ENDBRANCH  18  19
ENDBRANCH   1  16
TORSDOF 3
ENDMDL
MODEL 3
REMARK VINA RESULT:      -6.8      2.372      7.323
REMARK  Name = 
REMARK  3 active torsions:
REMARK  status: ('A' for Active; 'I' for Inactive)
REMARK    1  A    between atoms: C_5  and  C_6
REMARK    2  A    between atoms: N_8  and  C_9
REMARK    3  A    between atoms: C_18  and  N_19
REMARK                            x       y       z     vdW  Elec       q    Type
REMARK                         _______ _______ _______ _____ _____    ______ ____
ROOT
ATOM      1  C   UNL     1      16.724  10.512  36.299  0.00  0.00    +0.000 C 
ATOM      2  O   UNL     1      17.052   9.325  35.997  0.00  0.00    +0.000 OA
ATOM      3  N   UNL     1      17.087  11.005  37.561  0.00  0.00    +0.000 NA
ENDROOT
BRANCH   3   4
ATOM      4  C   UNL     1      17.803  10.271  38.539  0.00  0.00    +0.000 A 
ATOM      5  C   UNL     1      19.166  10.084  38.464  0.00  0.00    +0.000 A 
ATOM      6  C   UNL     1      19.875  10.692  37.305  0.00  0.00    +0.000 C 
ATOM      7  C   UNL     1      19.857   9.359  39.433  0.00  0.00    +0.000 A 
ATOM      8  C   UNL     1      19.192   8.801  40.502  0.00  0.00    +0.000 A 
ATOM      9  C   UNL     1      17.830   8.983  40.582  0.00  0.00    +0.000 A 
ATOM     10  C   UNL     1      17.150   9.707  39.612  0.00  0.00    +0.000 A 
ATOM     11  C   UNL     1      15.686   9.855  39.776  0.00  0.00    +0.000 C 
ENDBRANCH   3   4
BRANCH   1  16
ATOM     12  C   UNL     1      13.805  13.769  32.627  0.00  0.00    +0.000 C 
ATOM     13  C   UNL     1      14.569  12.918  33.607  0.00  0.00    +0.000 A 
ATOM     14  C   UNL     1      14.429  13.137  34.966  0.00  0.00    +0.000 A 
ATOM     15  C   UNL     1      15.152  12.328  35.816  0.00  0.00    +0.000 A 
ATOM     16  C   UNL     1      15.987  11.334  35.350  0.00  0.00    +0.000 A 
ATOM     17  C   UNL     1      16.100  11.145  33.989  0.00  0.00    +0.000 A 
ATOM     18  C   UNL     1      15.387  11.941  33.097  0.00  0.00    +0.000 A 
BRANCH  18  19
ATOM     19  N   UNL     1      15.502  11.750  31.701  0.00  0.00    +0.000 N 
ATOM     20  O   UNL     1      14.827  10.866  31.137  0.00  0.00    +0.000 OA
ATOM     21  O   UNL     1      16.346  12.519  30.937  0.00  0.00    +0.000 OA
ENDBRANCH  18  19
ENDBRANCH   1  16
TORSDOF 3
ENDMDL
MODEL 4
REMARK VINA RESULT:      -6.8      1.819      2.903
REMARK  Name = 
REMARK  3 active torsions:
REMARK  status: ('A' for Active; 'I' for Inactive)
REMARK    1  A    between atoms: C_5  and  C_6
REMARK    2  A    between atoms: N_8  and  C_9
REMARK    3  A    between atoms: C_18  and  N_19
REMARK                            x       y       z     vdW  Elec       q    Type
REMARK                         _______ _______ _______ _____ _____    ______ ____
ROOT
ATOM      1  C   UNL     1      16.683  11.501  36.460  0.00  0.00    +0.000 C 
ATOM      2  O   UNL     1      17.260  12.613  36.266  0.00  0.00    +0.000 OA
ATOM      3  N   UNL     1      15.600  11.157  35.637  0.00  0.00    +0.000 NA
ENDROOT
BRANCH   3   4
ATOM      4  C   UNL     1      15.094  11.967  34.590  0.00  0.00    +0.000 A 
ATOM      5  C   UNL     1      15.492  11.807  33.281  0.00  0.00    +0.000 A 
ATOM      6  C   UNL     1      16.487  10.736  32.996  0.00  0.00    +0.000 C 
ATOM      7  C   UNL     1      14.986  12.611  32.261  0.00  0.00    +0.000 A 
ATOM      8  C   UNL     1      14.065  13.599  32.535  0.00  0.00    +0.000 A 
ATOM      9  C   UNL     1      13.664  13.763  33.841  0.00  0.00    +0.000 A 
ATOM     10  C   UNL     1      14.174  12.957  34.850  0.00  0.00    +0.000 A 
ATOM     11  C   UNL     1      13.688  13.203  36.227  0.00  0.00    +0.000 C 
ENDBRANCH   3   4
BRANCH   1  16
ATOM     12  C   UNL     1      18.537   7.988  40.562  0.00  0.00    +0.000 C 
ATOM     13  C   UNL     1      18.061   8.911  39.472  0.00  0.00    +0.000 A 
ATOM     14  C   UNL     1      18.792   9.033  38.304  0.00  0.00    +0.000 A 
ATOM     15  C   UNL     1      18.308   9.892  37.341  0.00  0.00    +0.000 A 
ATOM     16  C   UNL     1      17.143  10.609  37.516  0.00  0.00    +0.000 A 
ATOM     17  C   UNL     1      16.441  10.461  38.693  0.00  0.00    +0.000 A 
ATOM     18  C   UNL     1      16.895   9.604  39.690  0.00  0.00    +0.000 A 
BRANCH  18  19
ATOM     19  N   UNL     1      16.178   9.450  40.899  0.00  0.00    +0.000 N 
ATOM     20  O   UNL     1      15.129   8.777  40.917  0.00  0.00    +0.000 OA
ATOM     21  O   UNL     1      16.609  10.027  42.069  0.00  0.00    +0.000 OA
ENDBRANCH  18  19
ENDBRANCH   1  16
TORSDOF 3
ENDMDL
MODEL 5
REMARK VINA RESULT:      -6.6      2.040      2.662
REMARK  Name = 
REMARK  3 active torsions:
REMARK  status: ('A' for Active; 'I' for Inactive)
REMARK    1  A    between atoms: C_5  and  C_6
REMARK    2  A    between atoms: N_8  and  C_9
REMARK    3  A    between atoms: C_18  and  N_19
REMARK                            x       y       z     vdW  Elec       q    Type
REMARK                         _______ _______ _______ _____ _____    ______ ____
ROOT
ATOM      1  C   UNL     1      16.972  11.162  36.938  0.00  0.00    +0.000 C 
ATOM      2  O   UNL     1      17.542  12.278  36.744  0.00  0.00    +0.000 OA
ATOM      3  N   UNL     1      15.940  10.778  36.070  0.00  0.00    +0.000 NA
ENDROOT
BRANCH   3   4
ATOM      4  C   UNL     1      15.476  11.550  34.976  0.00  0.00    +0.000 A 
ATOM      5  C   UNL     1      14.491  12.503  35.116  0.00  0.00    +0.000 A 
ATOM      6  C   UNL     1      13.921  12.700  36.477  0.00  0.00    +0.000 C 
ATOM      7  C   UNL     1      14.045  13.255  34.030  0.00  0.00    +0.000 A 
ATOM      8  C   UNL     1      14.579  13.065  32.775  0.00  0.00    +0.000 A 
ATOM      9  C   UNL     1      15.563  12.114  32.630  0.00  0.00    +0.000 A 
ATOM     10  C   UNL     1      16.002  11.370  33.716  0.00  0.00    +0.000 A 
ATOM     11  C   UNL     1      17.064  10.368  33.470  0.00  0.00    +0.000 C 
ENDBRANCH   3   4
BRANCH   1  16
ATOM     12  C   UNL     1      18.665   7.795  41.229  0.00  0.00    +0.000 C 
ATOM     13  C   UNL     1      18.232   8.680  40.090  0.00  0.00    +0.000 A 
ATOM     14  C   UNL     1      19.053   8.837  38.988  0.00  0.00    +0.000 A 
ATOM     15  C   UNL     1      18.605   9.659  37.977  0.00  0.00    +0.000 A 
ATOM     16  C   UNL     1      17.390  10.307  38.041  0.00  0.00    +0.000 A 
ATOM     17  C   UNL     1      16.599  10.126  39.155  0.00  0.00    +0.000 A 
ATOM     18  C   UNL     1      17.014   9.305  40.199  0.00  0.00    +0.000 A 
BRANCH  18  19
ATOM     19  N   UNL     1      16.205   9.117  41.343  0.00  0.00    +0.000 N 
ATOM     20  O   UNL     1      15.339   8.221  41.351  0.00  0.00    +0.000 OA
ATOM     21  O   UNL     1      16.347   9.904  42.460  0.00  0.00    +0.000 OA
ENDBRANCH  18  19
ENDBRANCH   1  16
TORSDOF 3
ENDMDL
MODEL 6
REMARK VINA RESULT:      -6.4      4.479      7.007
REMARK  Name = 
REMARK  3 active torsions:
REMARK  status: ('A' for Active; 'I' for Inactive)
REMARK    1  A    between atoms: C_5  and  C_6
REMARK    2  A    between atoms: N_8  and  C_9
REMARK    3  A    between atoms: C_18  and  N_19
REMARK                            x       y       z     vdW  Elec       q    Type
REMARK                         _______ _______ _______ _____ _____    ______ ____
ROOT
ATOM      1  C   UNL     1      19.848  11.163  38.054  0.00  0.00    +0.000 C 
ATOM      2  O   UNL     1      19.550  12.206  38.710  0.00  0.00    +0.000 OA
ATOM      3  N   UNL     1      18.831  10.241  37.765  0.00  0.00    +0.000 NA
ENDROOT
BRANCH   3   4
ATOM      4  C   UNL     1      17.476  10.388  38.152  0.00  0.00    +0.000 A 
ATOM      5  C   UNL     1      16.990   9.867  39.331  0.00  0.00    +0.000 A 
ATOM      6  C   UNL     1      17.951   9.136  40.202  0.00  0.00    +0.000 C 
ATOM      7  C   UNL     1      15.654  10.018  39.699  0.00  0.00    +0.000 A 
ATOM      8  C   UNL     1      14.772  10.697  38.887  0.00  0.00    +0.000 A 
ATOM      9  C   UNL     1      15.253  11.218  37.707  0.00  0.00    +0.000 A 
ATOM     10  C   UNL     1      16.584  11.064  37.349  0.00  0.00    +0.000 A 
ATOM     11  C   UNL     1      17.016  11.656  36.063  0.00  0.00    +0.000 C 
ENDBRANCH   3   4
BRANCH   1  16
ATOM     12  C   UNL     1      25.204  10.223  36.310  0.00  0.00    +0.000 C 
ATOM     13  C   UNL     1      23.787  10.459  36.762  0.00  0.00    +0.000 A 
ATOM     14  C   UNL     1      22.781   9.602  36.351  0.00  0.00    +0.000 A 
ATOM     15  C   UNL     1      21.504   9.867  36.795  0.00  0.00    +0.000 A 
ATOM     16  C   UNL     1      21.220  10.937  37.618  0.00  0.00    +0.000 A 
ATOM     17  C   UNL     1      22.248  11.768  38.007  0.00  0.00    +0.000 A 
ATOM     18  C   UNL     1      23.552  11.536  37.580  0.00  0.00    +0.000 A 
BRANCH  18  19
ATOM     19  N   UNL     1      24.609  12.387  37.977  0.00  0.00    +0.000 N 
ATOM     20  O   UNL     1      24.883  13.395  37.298  0.00  0.00    +0.000 OA
ATOM     21  O   UNL     1      25.353  12.131  39.104  0.00  0.00    +0.000 OA
ENDBRANCH  18  19
ENDBRANCH   1  16
TORSDOF 3
ENDMDL
MODEL 7
REMARK VINA RESULT:      -6.1      3.321      7.522
REMARK  Name = 
REMARK  3 active torsions:
REMARK  status: ('A' for Active; 'I' for Inactive)
REMARK    1  A    between atoms: C_5  and  C_6
REMARK    2  A    between atoms: N_8  and  C_9
REMARK    3  A    between atoms: C_18  and  N_19
REMARK                            x       y       z     vdW  Elec       q    Type
REMARK                         _______ _______ _______ _____ _____    ______ ____
ROOT
ATOM      1  C   UNL     1      18.516  10.085  37.227  0.00  0.00    +0.000 C 
ATOM      2  O   UNL     1      18.460   8.819  37.262  0.00  0.00    +0.000 OA
ATOM      3  N   UNL     1      19.615  10.722  37.821  0.00  0.00    +0.000 NA
ENDROOT
BRANCH   3   4
ATOM      4  C   UNL     1      20.684  10.051  38.467  0.00  0.00    +0.000 A 
ATOM      5  C   UNL     1      20.631   9.697  39.797  0.00  0.00    +0.000 A 
ATOM      6  C   UNL     1      19.393  10.043  40.547  0.00  0.00    +0.000 C 
ATOM      7  C   UNL     1      21.691   9.038  40.419  0.00  0.00    +0.000 A 
ATOM      8  C   UNL     1      22.833   8.721  39.716  0.00  0.00    +0.000 A 
ATOM      9  C   UNL     1      22.891   9.074  38.387  0.00  0.00    +0.000 A 
ATOM     10  C   UNL     1      21.831   9.729  37.776  0.00  0.00    +0.000 A 
ATOM     11  C   UNL     1      21.978  10.071  36.344  0.00  0.00    +0.000 C 
ENDBRANCH   3   4
BRANCH   1  16
ATOM     12  C   UNL     1      14.353  13.113  34.755  0.00  0.00    +0.000 C 
ATOM     13  C   UNL     1      15.449  12.322  35.420  0.00  0.00    +0.000 A 
ATOM     14  C   UNL     1      15.740  12.536  36.755  0.00  0.00    +0.000 A 
ATOM     15  C   UNL     1      16.753  11.784  37.311  0.00  0.00    +0.000 A 
ATOM     16  C   UNL     1      17.458  10.849  36.582  0.00  0.00    +0.000 A 
ATOM     17  C   UNL     1      17.138  10.663  35.254  0.00  0.00    +0.000 A 
ATOM     18  C   UNL     1      16.123  11.403  34.655  0.00  0.00    +0.000 A 
BRANCH  18  19
ATOM     19  N   UNL     1      15.794  11.215  33.292  0.00  0.00    +0.000 N 
ATOM     20  O   UNL     1      16.378  11.879  32.415  0.00  0.00    +0.000 OA
ATOM     21  O   UNL     1      14.835  10.310  32.903  0.00  0.00    +0.000 OA
ENDBRANCH  18  19
ENDBRANCH   1  16
TORSDOF 3
ENDMDL
MODEL 8
REMARK VINA RESULT:      -6.1     18.091     19.850
REMARK  Name = 
REMARK  3 active torsions:
REMARK  status: ('A' for Active; 'I' for Inactive)
REMARK    1  A    between atoms: C_5  and  C_6
REMARK    2  A    between atoms: N_8  and  C_9
REMARK    3  A    between atoms: C_18  and  N_19
REMARK                            x       y       z     vdW  Elec       q    Type
REMARK                         _______ _______ _______ _____ _____    ______ ____
ROOT
ATOM      1  C   UNL     1      28.934  23.149  26.146  0.00  0.00    +0.000 C 
ATOM      2  O   UNL     1      29.494  22.288  25.402  0.00  0.00    +0.000 OA
ATOM      3  N   UNL     1      28.317  24.254  25.541  0.00  0.00    +0.000 NA
ENDROOT
BRANCH   3   4
ATOM      4  C   UNL     1      28.268  24.487  24.144  0.00  0.00    +0.000 A 
ATOM      5  C   UNL     1      27.237  24.022  23.358  0.00  0.00    +0.000 A 
ATOM      6  C   UNL     1      26.155  23.256  24.036  0.00  0.00    +0.000 C 
ATOM      7  C   UNL     1      27.203  24.258  21.985  0.00  0.00    +0.000 A 
ATOM      8  C   UNL     1      28.209  24.968  21.367  0.00  0.00    +0.000 A 
ATOM      9  C   UNL     1      29.242  25.435  22.148  0.00  0.00    +0.000 A 
ATOM     10  C   UNL     1      29.268  25.195  23.515  0.00  0.00    +0.000 A 
ATOM     11  C   UNL     1      30.416  25.733  24.278  0.00  0.00    +0.000 C 
ENDBRANCH   3   4
BRANCH   1  16
ATOM     12  C   UNL     1      29.018  22.496  31.818  0.00  0.00    +0.000 C 
ATOM     13  C   UNL     1      29.011  22.668  30.322  0.00  0.00    +0.000 A 
ATOM     14  C   UNL     1      30.206  22.700  29.626  0.00  0.00    +0.000 A 
ATOM     15  C   UNL     1      30.139  22.860  28.259  0.00  0.00    +0.000 A 
ATOM     16  C   UNL     1      28.938  22.984  27.593  0.00  0.00    +0.000 A 
ATOM     17  C   UNL     1      27.768  22.946  28.319  0.00  0.00    +0.000 A 
ATOM     18  C   UNL     1      27.792  22.787  29.702  0.00  0.00    +0.000 A 
BRANCH  18  19
ATOM     19  N   UNL     1      26.593  22.748  30.450  0.00  0.00    +0.000 N 
ATOM     20  O   UNL     1      26.044  21.655  30.688  0.00  0.00    +0.000 OA
ATOM     21  O   UNL     1      26.007  23.896  30.929  0.00  0.00    +0.000 OA
ENDBRANCH  18  19
ENDBRANCH   1  16
TORSDOF 3
ENDMDL
MODEL 9
REMARK VINA RESULT:      -6.1      2.533      7.404
REMARK  Name = 
REMARK  3 active torsions:
REMARK  status: ('A' for Active; 'I' for Inactive)
REMARK    1  A    between atoms: C_5  and  C_6
REMARK    2  A    between atoms: N_8  and  C_9
REMARK    3  A    between atoms: C_18  and  N_19
REMARK                            x       y       z     vdW  Elec       q    Type
REMARK                         _______ _______ _______ _____ _____    ______ ____
ROOT
ATOM      1  C   UNL     1      18.055  10.448  36.766  0.00  0.00    +0.000 C 
ATOM      2  O   UNL     1      18.796   9.434  36.593  0.00  0.00    +0.000 OA
ATOM      3  N   UNL     1      18.109  11.114  37.999  0.00  0.00    +0.000 NA
ENDROOT
BRANCH   3   4
ATOM      4  C   UNL     1      18.941  10.737  39.084  0.00  0.00    +0.000 A 
ATOM      5  C   UNL     1      18.519   9.863  40.061  0.00  0.00    +0.000 A 
ATOM      6  C   UNL     1      17.140   9.316  39.940  0.00  0.00    +0.000 C 
ATOM      7  C   UNL     1      19.348   9.502  41.123  0.00  0.00    +0.000 A 
ATOM      8  C   UNL     1      20.623  10.013  41.227  0.00  0.00    +0.000 A 
ATOM      9  C   UNL     1      21.048  10.887  40.252  0.00  0.00    +0.000 A 
ATOM     10  C   UNL     1      20.217  11.241  39.199  0.00  0.00    +0.000 A 
ATOM     11  C   UNL     1      20.755  12.187  38.196  0.00  0.00    +0.000 C 
ENDBRANCH   3   4
BRANCH   1  16
ATOM     12  C   UNL     1      14.629  12.195  32.545  0.00  0.00    +0.000 C 
ATOM     13  C   UNL     1      15.540  11.726  33.648  0.00  0.00    +0.000 A 
ATOM     14  C   UNL     1      16.618  10.911  33.352  0.00  0.00    +0.000 A 
ATOM     15  C   UNL     1      17.418  10.513  34.401  0.00  0.00    +0.000 A 
ATOM     16  C   UNL     1      17.171  10.902  35.701  0.00  0.00    +0.000 A 
ATOM     17  C   UNL     1      16.088  11.715  35.957  0.00  0.00    +0.000 A 
ATOM     18  C   UNL     1      15.256  12.139  34.926  0.00  0.00    +0.000 A 
BRANCH  18  19
ATOM     19  N   UNL     1      14.143  12.973  35.186  0.00  0.00    +0.000 N 
ATOM     20  O   UNL     1      13.968  14.004  34.506  0.00  0.00    +0.000 OA
ATOM     21  O   UNL     1      13.239  12.677  36.177  0.00  0.00    +0.000 OA
ENDBRANCH  18  19
ENDBRANCH   1  16
TORSDOF 3
ENDMDL
MODEL 10
REMARK VINA RESULT:      -6.0     21.945     24.201
REMARK  Name = 
REMARK  3 active torsions:
REMARK  status: ('A' for Active; 'I' for Inactive)
REMARK    1  A    between atoms: C_5  and  C_6
REMARK    2  A    between atoms: N_8  and  C_9
REMARK    3  A    between atoms: C_18  and  N_19
REMARK                            x       y       z     vdW  Elec       q    Type
REMARK                         _______ _______ _______ _____ _____    ______ ____
ROOT
ATOM      1  C   UNL     1      21.598  -8.067  24.586  0.00  0.00    +0.000 C 
ATOM      2  O   UNL     1      20.670  -8.488  23.833  0.00  0.00    +0.000 OA
ATOM      3  N   UNL     1      21.280  -7.711  25.905  0.00  0.00    +0.000 NA
ENDROOT
BRANCH   3   4
ATOM      4  C   UNL     1      19.983  -7.786  26.470  0.00  0.00    +0.000 A 
ATOM      5  C   UNL     1      19.130  -6.705  26.495  0.00  0.00    +0.000 A 
ATOM      6  C   UNL     1      19.621  -5.433  25.896  0.00  0.00    +0.000 C 
ATOM      7  C   UNL     1      17.856  -6.793  27.055  0.00  0.00    +0.000 A 
ATOM      8  C   UNL     1      17.410  -7.974  27.607  0.00  0.00    +0.000 A 
ATOM      9  C   UNL     1      18.259  -9.057  27.585  0.00  0.00    +0.000 A 
ATOM     10  C   UNL     1      19.525  -8.960  27.025  0.00  0.00    +0.000 A 
ATOM     11  C   UNL     1      20.372 -10.174  27.044  0.00  0.00    +0.000 C 
ENDBRANCH   3   4
BRANCH   1  16
ATOM     12  C   UNL     1      26.941  -7.584  22.629  0.00  0.00    +0.000 C 
ATOM     13  C   UNL     1      25.533  -7.697  23.151  0.00  0.00    +0.000 A 
ATOM     14  C   UNL     1      24.938  -6.612  23.770  0.00  0.00    +0.000 A 
ATOM     15  C   UNL     1      23.648  -6.773  24.227  0.00  0.00    +0.000 A 
ATOM     16  C   UNL     1      22.961  -7.960  24.082  0.00  0.00    +0.000 A 
ATOM     17  C   UNL     1      23.586  -9.019  23.459  0.00  0.00    +0.000 A 
ATOM     18  C   UNL     1      24.888  -8.897  22.983  0.00  0.00    +0.000 A 
BRANCH  18  19
ATOM     19  N   UNL     1      25.533  -9.982  22.344  0.00  0.00    +0.000 N 
ATOM     20  O   UNL     1      25.405 -10.143  21.115  0.00  0.00    +0.000 OA
ATOM     21  O   UNL     1      26.305 -10.874  23.048  0.00  0.00    +0.000 OA
ENDBRANCH  18  19
ENDBRANCH   1  16
TORSDOF 3
ENDMDL
