MODEL 1
REMARK VINA RESULT:      -7.4      0.000      0.000
REMARK  Name = 
REMARK  7 active torsions:
REMARK  status: ('A' for Active; 'I' for Inactive)
REMARK    1  A    between atoms: C_1  and  C_8
REMARK    2  A    between atoms: N_2  and  C_3
REMARK    3  A    between atoms: N_10  and  C_11
REMARK    4  A    between atoms: C_11  and  C_12
REMARK    5  A    between atoms: C_12  and  O_13
REMARK    6  A    between atoms: O_13  and  C_14
REMARK    7  A    between atoms: C_17  and  C_18
REMARK                            x       y       z     vdW  Elec       q    Type
REMARK                         _______ _______ _______ _____ _____    ______ ____
ROOT
ATOM      1  C   UNL     1      38.363   4.114  16.166  0.00  0.00    +0.000 A 
ATOM      2  C   UNL     1      38.963   4.178  14.927  0.00  0.00    +0.000 A 
ATOM      3  N   UNL     1      38.318   3.352  14.069  0.00  0.00    +0.000 N 
ATOM      4  C   UNL     1      37.288   2.731  14.716  0.00  0.00    +0.000 A 
ATOM      5  C   UNL     1      36.350   1.816  14.293  0.00  0.00    +0.000 A 
ATOM      6  C   UNL     1      35.405   1.344  15.168  0.00  0.00    +0.000 A 
ATOM      7  C   UNL     1      35.421   1.804  16.462  0.00  0.00    +0.000 A 
ATOM      8  C   UNL     1      36.371   2.723  16.867  0.00  0.00    +0.000 A 
ATOM      9  C   UNL     1      37.332   3.213  16.007  0.00  0.00    +0.000 A 
ENDROOT
BRANCH   1  10
ATOM     10  C   UNL     1      38.768   4.855  17.352  0.00  0.00    +0.000 C 
ATOM     11  N   UNL     1      38.294   5.978  17.695  0.00  0.00    +0.000 NA
BRANCH  11  12
ATOM     12  C   UNL     1      38.676   6.715  18.849  0.00  0.00    +0.000 A 
ATOM     13  N   UNL     1      38.087   7.885  19.186  0.00  0.00    +0.000 NA
ATOM     14  C   UNL     1      38.643   8.361  20.317  0.00  0.00    +0.000 A 
ATOM     15  N   UNL     1      39.580   7.456  20.657  0.00  0.00    +0.000 NA
ATOM     16  N   UNL     1      39.596   6.469  19.772  0.00  0.00    +0.000 NA
ENDBRANCH  11  12
ENDBRANCH   1  10
BRANCH   3  17
ATOM     17  C   UNL     1      38.686   3.173  12.678  0.00  0.00    +0.000 C 
BRANCH  17  18
ATOM     18  C   UNL     1      39.920   2.313  12.558  0.00  0.00    +0.000 C 
BRANCH  18  19
ATOM     19  O   UNL     1      39.514   1.027  12.183  0.00  0.00    +0.000 OA
BRANCH  19  20
ATOM     20  C   UNL     1      39.256   0.013  13.102  0.00  0.00    +0.000 A 
ATOM     21  C   UNL     1      38.353  -1.000  12.864  0.00  0.00    +0.000 A 
ATOM     22  C   UNL     1      38.094  -2.010  13.777  0.00  0.00    +0.000 A 
ATOM     23  C   UNL     1      38.774  -2.005  14.986  0.00  0.00    +0.000 A 
ATOM     24  C   UNL     1      39.674  -0.990  15.216  0.00  0.00    +0.000 A 
ATOM     25  C   UNL     1      39.931   0.019  14.303  0.00  0.00    +0.000 A 
BRANCH  23  26
ATOM     26  C   UNL     1      38.505  -3.089  15.982  0.00  0.00    +0.000 C 
ATOM     27  C   UNL     1      38.279  -2.415  17.326  0.00  0.00    +0.000 C 
ATOM     28  C   UNL     1      37.238  -1.334  17.136  0.00  0.00    +0.000 C 
ATOM     29  C   UNL     1      35.942  -2.016  16.731  0.00  0.00    +0.000 C 
ATOM     30  C   UNL     1      36.143  -3.519  16.550  0.00  0.00    +0.000 C 
ATOM     31  C   UNL     1      37.244  -3.800  15.551  0.00  0.00    +0.000 C 
ENDBRANCH  23  26
ENDBRANCH  19  20
ENDBRANCH  18  19
ENDBRANCH  17  18
ENDBRANCH   3  17
TORSDOF 7
ENDMDL
MODEL 2
REMARK VINA RESULT:      -7.3      1.851      3.645
REMARK  Name = 
REMARK  7 active torsions:
REMARK  status: ('A' for Active; 'I' for Inactive)
REMARK    1  A    between atoms: C_1  and  C_8
REMARK    2  A    between atoms: N_2  and  C_3
REMARK    3  A    between atoms: N_10  and  C_11
REMARK    4  A    between atoms: C_11  and  C_12
REMARK    5  A    between atoms: C_12  and  O_13
REMARK    6  A    between atoms: O_13  and  C_14
REMARK    7  A    between atoms: C_17  and  C_18
REMARK                            x       y       z     vdW  Elec       q    Type
REMARK                         _______ _______ _______ _____ _____    ______ ____
ROOT
ATOM      1  C   UNL     1      37.764   3.697  16.342  0.00  0.00    +0.000 A 
ATOM      2  C   UNL     1      36.710   3.109  17.008  0.00  0.00    +0.000 A 
ATOM      3  N   UNL     1      36.056   2.272  16.168  0.00  0.00    +0.000 N 
ATOM      4  C   UNL     1      36.657   2.288  14.942  0.00  0.00    +0.000 A 
ATOM      5  C   UNL     1      36.379   1.624  13.769  0.00  0.00    +0.000 A 
ATOM      6  C   UNL     1      37.161   1.827  12.660  0.00  0.00    +0.000 A 
ATOM      7  C   UNL     1      38.216   2.702  12.753  0.00  0.00    +0.000 A 
ATOM      8  C   UNL     1      38.479   3.359  13.940  0.00  0.00    +0.000 A 
ATOM      9  C   UNL     1      37.708   3.172  15.069  0.00  0.00    +0.000 A 
ENDROOT
BRANCH   1  10
ATOM     10  C   UNL     1      38.704   4.657  16.905  0.00  0.00    +0.000 C 
ATOM     11  N   UNL     1      38.817   4.914  18.140  0.00  0.00    +0.000 NA
BRANCH  11  12
ATOM     12  C   UNL     1      39.727   5.847  18.706  0.00  0.00    +0.000 A 
ATOM     13  N   UNL     1      39.426   6.572  19.807  0.00  0.00    +0.000 NA
ATOM     14  C   UNL     1      40.465   7.370  20.121  0.00  0.00    +0.000 A 
ATOM     15  N   UNL     1      41.401   7.112  19.188  0.00  0.00    +0.000 NA
ATOM     16  N   UNL     1      40.953   6.196  18.340  0.00  0.00    +0.000 NA
ENDBRANCH  11  12
ENDBRANCH   1  10
BRANCH   3  17
ATOM     17  C   UNL     1      34.894   1.488  16.540  0.00  0.00    +0.000 C 
BRANCH  17  18
ATOM     18  C   UNL     1      35.290   0.337  17.431  0.00  0.00    +0.000 C 
BRANCH  18  19
ATOM     19  O   UNL     1      35.311  -0.825  16.650  0.00  0.00    +0.000 OA
BRANCH  19  20
ATOM     20  C   UNL     1      36.452  -1.279  15.992  0.00  0.00    +0.000 A 
ATOM     21  C   UNL     1      36.419  -1.828  14.729  0.00  0.00    +0.000 A 
ATOM     22  C   UNL     1      37.552  -2.280  14.073  0.00  0.00    +0.000 A 
ATOM     23  C   UNL     1      38.779  -2.177  14.714  0.00  0.00    +0.000 A 
ATOM     24  C   UNL     1      38.803  -1.629  15.976  0.00  0.00    +0.000 A 
ATOM     25  C   UNL     1      37.669  -1.178  16.630  0.00  0.00    +0.000 A 
BRANCH  23  26
ATOM     26  C   UNL     1      40.012  -2.661  14.019  0.00  0.00    +0.000 C 
ATOM     27  C   UNL     1      40.141  -1.863  12.731  0.00  0.00    +0.000 C 
ATOM     28  C   UNL     1      40.037  -0.395  13.079  0.00  0.00    +0.000 C 
ATOM     29  C   UNL     1      41.225  -0.052  13.961  0.00  0.00    +0.000 C 
ATOM     30  C   UNL     1      42.049  -1.295  14.284  0.00  0.00    +0.000 C 
ATOM     31  C   UNL     1      41.188  -2.365  14.919  0.00  0.00    +0.000 C 
ENDBRANCH  23  26
ENDBRANCH  19  20
ENDBRANCH  18  19
ENDBRANCH  17  18
ENDBRANCH   3  17
TORSDOF 7
ENDMDL
MODEL 3
REMARK VINA RESULT:      -6.9      3.330      8.165
REMARK  Name = 
REMARK  7 active torsions:
REMARK  status: ('A' for Active; 'I' for Inactive)
REMARK    1  A    between atoms: C_1  and  C_8
REMARK    2  A    between atoms: N_2  and  C_3
REMARK    3  A    between atoms: N_10  and  C_11
REMARK    4  A    between atoms: C_11  and  C_12
REMARK    5  A    between atoms: C_12  and  O_13
REMARK    6  A    between atoms: O_13  and  C_14
REMARK    7  A    between atoms: C_17  and  C_18
REMARK                            x       y       z     vdW  Elec       q    Type
REMARK                         _______ _______ _______ _____ _____    ______ ____
ROOT
ATOM      1  C   UNL     1      37.497   0.645  14.493  0.00  0.00    +0.000 A 
ATOM      2  C   UNL     1      36.886   1.860  14.715  0.00  0.00    +0.000 A 
ATOM      3  N   UNL     1      36.992   2.629  13.605  0.00  0.00    +0.000 N 
ATOM      4  C   UNL     1      37.669   1.945  12.636  0.00  0.00    +0.000 A 
ATOM      5  C   UNL     1      38.031   2.282  11.351  0.00  0.00    +0.000 A 
ATOM      6  C   UNL     1      38.723   1.388  10.573  0.00  0.00    +0.000 A 
ATOM      7  C   UNL     1      39.041   0.163  11.108  0.00  0.00    +0.000 A 
ATOM      8  C   UNL     1      38.668  -0.156  12.400  0.00  0.00    +0.000 A 
ATOM      9  C   UNL     1      37.972   0.725  13.202  0.00  0.00    +0.000 A 
ENDROOT
BRANCH   1  10
ATOM     10  C   UNL     1      37.594  -0.451  15.447  0.00  0.00    +0.000 C 
ATOM     11  N   UNL     1      38.681  -0.958  15.853  0.00  0.00    +0.000 NA
BRANCH  11  12
ATOM     12  C   UNL     1      38.794  -2.027  16.783  0.00  0.00    +0.000 A 
ATOM     13  N   UNL     1      38.330  -1.934  18.050  0.00  0.00    +0.000 NA
ATOM     14  C   UNL     1      38.570  -3.086  18.705  0.00  0.00    +0.000 A 
ATOM     15  N   UNL     1      39.188  -3.878  17.808  0.00  0.00    +0.000 NA
ATOM     16  N   UNL     1      39.320  -3.237  16.655  0.00  0.00    +0.000 NA
ENDBRANCH  11  12
ENDBRANCH   1  10
BRANCH   3  17
ATOM     17  C   UNL     1      36.458   3.972  13.490  0.00  0.00    +0.000 C 
BRANCH  17  18
ATOM     18  C   UNL     1      36.449   4.660  14.832  0.00  0.00    +0.000 C 
BRANCH  18  19
ATOM     19  O   UNL     1      37.695   5.276  15.010  0.00  0.00    +0.000 OA
BRANCH  19  20
ATOM     20  C   UNL     1      38.178   5.667  16.256  0.00  0.00    +0.000 A 
ATOM     21  C   UNL     1      38.567   4.767  17.224  0.00  0.00    +0.000 A 
ATOM     22  C   UNL     1      39.048   5.153  18.464  0.00  0.00    +0.000 A 
ATOM     23  C   UNL     1      39.146   6.508  18.748  0.00  0.00    +0.000 A 
ATOM     24  C   UNL     1      38.755   7.401  17.777  0.00  0.00    +0.000 A 
ATOM     25  C   UNL     1      38.273   7.012  16.537  0.00  0.00    +0.000 A 
BRANCH  23  26
ATOM     26  C   UNL     1      39.664   6.941  20.083  0.00  0.00    +0.000 C 
ATOM     27  C   UNL     1      41.027   6.293  20.265  0.00  0.00    +0.000 C 
ATOM     28  C   UNL     1      41.855   6.596  19.036  0.00  0.00    +0.000 C 
ATOM     29  C   UNL     1      42.057   8.101  18.983  0.00  0.00    +0.000 C 
ATOM     30  C   UNL     1      41.286   8.800  20.100  0.00  0.00    +0.000 C 
ATOM     31  C   UNL     1      39.817   8.443  20.047  0.00  0.00    +0.000 C 
ENDBRANCH  23  26
ENDBRANCH  19  20
ENDBRANCH  18  19
ENDBRANCH  17  18
ENDBRANCH   3  17
TORSDOF 7
ENDMDL
MODEL 4
REMARK VINA RESULT:      -6.8      2.815      5.127
REMARK  Name = 
REMARK  7 active torsions:
REMARK  status: ('A' for Active; 'I' for Inactive)
REMARK    1  A    between atoms: C_1  and  C_8
REMARK    2  A    between atoms: N_2  and  C_3
REMARK    3  A    between atoms: N_10  and  C_11
REMARK    4  A    between atoms: C_11  and  C_12
REMARK    5  A    between atoms: C_12  and  O_13
REMARK    6  A    between atoms: O_13  and  C_14
REMARK    7  A    between atoms: C_17  and  C_18
REMARK                            x       y       z     vdW  Elec       q    Type
REMARK                         _______ _______ _______ _____ _____    ______ ____
ROOT
ATOM      1  C   UNL     1      40.273   6.382  19.383  0.00  0.00    +0.000 A 
ATOM      2  C   UNL     1      40.043   5.878  18.121  0.00  0.00    +0.000 A 
ATOM      3  N   UNL     1      38.934   6.454  17.599  0.00  0.00    +0.000 N 
ATOM      4  C   UNL     1      38.411   7.341  18.496  0.00  0.00    +0.000 A 
ATOM      5  C   UNL     1      37.309   8.164  18.445  0.00  0.00    +0.000 A 
ATOM      6  C   UNL     1      37.004   8.974  19.510  0.00  0.00    +0.000 A 
ATOM      7  C   UNL     1      37.819   8.940  20.614  0.00  0.00    +0.000 A 
ATOM      8  C   UNL     1      38.921   8.106  20.646  0.00  0.00    +0.000 A 
ATOM      9  C   UNL     1      39.250   7.283  19.589  0.00  0.00    +0.000 A 
ENDROOT
BRANCH   1  10
ATOM     10  C   UNL     1      41.369   6.011  20.267  0.00  0.00    +0.000 C 
ATOM     11  N   UNL     1      42.259   6.809  20.683  0.00  0.00    +0.000 NA
BRANCH  11  12
ATOM     12  C   UNL     1      43.335   6.465  21.546  0.00  0.00    +0.000 A 
ATOM     13  N   UNL     1      43.925   7.370  22.360  0.00  0.00    +0.000 NA
ATOM     14  C   UNL     1      44.909   6.773  23.060  0.00  0.00    +0.000 A 
ATOM     15  N   UNL     1      44.903   5.490  22.652  0.00  0.00    +0.000 NA
ATOM     16  N   UNL     1      43.956   5.310  21.742  0.00  0.00    +0.000 NA
ENDBRANCH  11  12
ENDBRANCH   1  10
BRANCH   3  17
ATOM     17  C   UNL     1      38.403   6.154  16.284  0.00  0.00    +0.000 C 
BRANCH  17  18
ATOM     18  C   UNL     1      38.502   4.678  15.991  0.00  0.00    +0.000 C 
BRANCH  18  19
ATOM     19  O   UNL     1      37.302   4.077  16.392  0.00  0.00    +0.000 OA
BRANCH  19  20
ATOM     20  C   UNL     1      36.991   2.747  16.123  0.00  0.00    +0.000 A 
ATOM     21  C   UNL     1      35.976   2.071  16.763  0.00  0.00    +0.000 A 
ATOM     22  C   UNL     1      35.664   0.748  16.497  0.00  0.00    +0.000 A 
ATOM     23  C   UNL     1      36.406   0.068  15.541  0.00  0.00    +0.000 A 
ATOM     24  C   UNL     1      37.419   0.749  14.906  0.00  0.00    +0.000 A 
ATOM     25  C   UNL     1      37.729   2.073  15.174  0.00  0.00    +0.000 A 
BRANCH  23  26
ATOM     26  C   UNL     1      36.082  -1.362  15.243  0.00  0.00    +0.000 C 
ATOM     27  C   UNL     1      37.390  -2.135  15.284  0.00  0.00    +0.000 C 
ATOM     28  C   UNL     1      38.084  -1.808  16.588  0.00  0.00    +0.000 C 
ATOM     29  C   UNL     1      37.202  -2.322  17.714  0.00  0.00    +0.000 C 
ATOM     30  C   UNL     1      35.891  -2.887  17.173  0.00  0.00    +0.000 C 
ATOM     31  C   UNL     1      35.164  -1.858  16.336  0.00  0.00    +0.000 C 
ENDBRANCH  23  26
ENDBRANCH  19  20
ENDBRANCH  18  19
ENDBRANCH  17  18
ENDBRANCH   3  17
TORSDOF 7
ENDMDL
MODEL 5
REMARK VINA RESULT:      -6.8      3.245      8.541
REMARK  Name = 
REMARK  7 active torsions:
REMARK  status: ('A' for Active; 'I' for Inactive)
REMARK    1  A    between atoms: C_1  and  C_8
REMARK    2  A    between atoms: N_2  and  C_3
REMARK    3  A    between atoms: N_10  and  C_11
REMARK    4  A    between atoms: C_11  and  C_12
REMARK    5  A    between atoms: C_12  and  O_13
REMARK    6  A    between atoms: O_13  and  C_14
REMARK    7  A    between atoms: C_17  and  C_18
REMARK                            x       y       z     vdW  Elec       q    Type
REMARK                         _______ _______ _______ _____ _____    ______ ____
ROOT
ATOM      1  C   UNL     1      38.436  -0.460  14.876  0.00  0.00    +0.000 A 
ATOM      2  C   UNL     1      38.296   0.899  14.700  0.00  0.00    +0.000 A 
ATOM      3  N   UNL     1      37.135   1.311  15.263  0.00  0.00    +0.000 N 
ATOM      4  C   UNL     1      36.489   0.244  15.817  0.00  0.00    +0.000 A 
ATOM      5  C   UNL     1      35.295   0.137  16.495  0.00  0.00    +0.000 A 
ATOM      6  C   UNL     1      34.871  -1.084  16.956  0.00  0.00    +0.000 A 
ATOM      7  C   UNL     1      35.662  -2.183  16.724  0.00  0.00    +0.000 A 
ATOM      8  C   UNL     1      36.857  -2.055  16.042  0.00  0.00    +0.000 A 
ATOM      9  C   UNL     1      37.306  -0.839  15.569  0.00  0.00    +0.000 A 
ENDROOT
BRANCH   1  10
ATOM     10  C   UNL     1      39.551  -1.273  14.412  0.00  0.00    +0.000 C 
ATOM     11  N   UNL     1      40.747  -0.868  14.318  0.00  0.00    +0.000 NA
BRANCH  11  12
ATOM     12  C   UNL     1      41.848  -1.647  13.869  0.00  0.00    +0.000 A 
ATOM     13  N   UNL     1      41.713  -2.616  12.936  0.00  0.00    +0.000 NA
ATOM     14  C   UNL     1      42.910  -3.189  12.703  0.00  0.00    +0.000 A 
ATOM     15  N   UNL     1      43.771  -2.546  13.514  0.00  0.00    +0.000 NA
ATOM     16  N   UNL     1      43.128  -1.620  14.212  0.00  0.00    +0.000 NA
ENDBRANCH  11  12
ENDBRANCH   1  10
BRANCH   3  17
ATOM     17  C   UNL     1      36.672   2.685  15.263  0.00  0.00    +0.000 C 
BRANCH  17  18
ATOM     18  C   UNL     1      37.805   3.631  14.952  0.00  0.00    +0.000 C 
BRANCH  18  19
ATOM     19  O   UNL     1      37.462   4.894  15.450  0.00  0.00    +0.000 OA
BRANCH  19  20
ATOM     20  C   UNL     1      38.041   5.445  16.590  0.00  0.00    +0.000 A 
ATOM     21  C   UNL     1      38.162   6.804  16.786  0.00  0.00    +0.000 A 
ATOM     22  C   UNL     1      38.738   7.354  17.919  0.00  0.00    +0.000 A 
ATOM     23  C   UNL     1      39.215   6.502  18.905  0.00  0.00    +0.000 A 
ATOM     24  C   UNL     1      39.091   5.147  18.702  0.00  0.00    +0.000 A 
ATOM     25  C   UNL     1      38.516   4.598  17.568  0.00  0.00    +0.000 A 
BRANCH  23  26
ATOM     26  C   UNL     1      39.840   7.083  20.135  0.00  0.00    +0.000 C 
ATOM     27  C   UNL     1      41.210   6.440  20.285  0.00  0.00    +0.000 C 
ATOM     28  C   UNL     1      41.939   6.582  18.968  0.00  0.00    +0.000 C 
ATOM     29  C   UNL     1      42.146   8.066  18.720  0.00  0.00    +0.000 C 
ATOM     30  C   UNL     1      41.470   8.905  19.802  0.00  0.00    +0.000 C 
ATOM     31  C   UNL     1      39.999   8.567  19.907  0.00  0.00    +0.000 C 
ENDBRANCH  23  26
ENDBRANCH  19  20
ENDBRANCH  18  19
ENDBRANCH  17  18
ENDBRANCH   3  17
TORSDOF 7
ENDMDL
MODEL 6
REMARK VINA RESULT:      -6.7      4.211      7.503
REMARK  Name = 
REMARK  7 active torsions:
REMARK  status: ('A' for Active; 'I' for Inactive)
REMARK    1  A    between atoms: C_1  and  C_8
REMARK    2  A    between atoms: N_2  and  C_3
REMARK    3  A    between atoms: N_10  and  C_11
REMARK    4  A    between atoms: C_11  and  C_12
REMARK    5  A    between atoms: C_12  and  O_13
REMARK    6  A    between atoms: O_13  and  C_14
REMARK    7  A    between atoms: C_17  and  C_18
REMARK                            x       y       z     vdW  Elec       q    Type
REMARK                         _______ _______ _______ _____ _____    ______ ____
ROOT
ATOM      1  C   UNL     1      38.378  -2.407  16.286  0.00  0.00    +0.000 A 
ATOM      2  C   UNL     1      38.138  -1.773  17.486  0.00  0.00    +0.000 A 
ATOM      3  N   UNL     1      36.818  -1.844  17.778  0.00  0.00    +0.000 N 
ATOM      4  C   UNL     1      36.163  -2.520  16.789  0.00  0.00    +0.000 A 
ATOM      5  C   UNL     1      34.838  -2.853  16.619  0.00  0.00    +0.000 A 
ATOM      6  C   UNL     1      34.441  -3.552  15.506  0.00  0.00    +0.000 A 
ATOM      7  C   UNL     1      35.391  -3.905  14.579  0.00  0.00    +0.000 A 
ATOM      8  C   UNL     1      36.716  -3.560  14.769  0.00  0.00    +0.000 A 
ATOM      9  C   UNL     1      37.142  -2.859  15.877  0.00  0.00    +0.000 A 
ENDROOT
BRANCH   1  10
ATOM     10  C   UNL     1      39.673  -2.543  15.633  0.00  0.00    +0.000 C 
ATOM     11  N   UNL     1      40.273  -1.609  15.023  0.00  0.00    +0.000 NA
BRANCH  11  12
ATOM     12  C   UNL     1      41.536  -1.724  14.382  0.00  0.00    +0.000 A 
ATOM     13  N   UNL     1      41.834  -2.749  13.552  0.00  0.00    +0.000 NA
ATOM     14  C   UNL     1      43.091  -2.605  13.090  0.00  0.00    +0.000 A 
ATOM     15  N   UNL     1      43.547  -1.472  13.656  0.00  0.00    +0.000 NA
ATOM     16  N   UNL     1      42.609  -0.946  14.431  0.00  0.00    +0.000 NA
ENDBRANCH  11  12
ENDBRANCH   1  10
BRANCH   3  17
ATOM     17  C   UNL     1      36.216  -1.280  18.971  0.00  0.00    +0.000 C 
BRANCH  17  18
ATOM     18  C   UNL     1      36.231   0.227  18.914  0.00  0.00    +0.000 C 
BRANCH  18  19
ATOM     19  O   UNL     1      35.394   0.628  17.865  0.00  0.00    +0.000 OA
BRANCH  19  20
ATOM     20  C   UNL     1      35.861   1.285  16.729  0.00  0.00    +0.000 A 
ATOM     21  C   UNL     1      35.828   0.722  15.472  0.00  0.00    +0.000 A 
ATOM     22  C   UNL     1      36.292   1.373  14.341  0.00  0.00    +0.000 A 
ATOM     23  C   UNL     1      36.814   2.652  14.476  0.00  0.00    +0.000 A 
ATOM     24  C   UNL     1      36.844   3.208  15.734  0.00  0.00    +0.000 A 
ATOM     25  C   UNL     1      36.380   2.554  16.864  0.00  0.00    +0.000 A 
BRANCH  23  26
ATOM     26  C   UNL     1      37.319   3.369  13.263  0.00  0.00    +0.000 C 
ATOM     27  C   UNL     1      38.678   3.949  13.621  0.00  0.00    +0.000 C 
ATOM     28  C   UNL     1      39.520   2.838  14.207  0.00  0.00    +0.000 C 
ATOM     29  C   UNL     1      39.728   1.801  13.116  0.00  0.00    +0.000 C 
ATOM     30  C   UNL     1      38.947   2.164  11.855  0.00  0.00    +0.000 C 
ATOM     31  C   UNL     1      37.478   2.345  12.164  0.00  0.00    +0.000 C 
ENDBRANCH  23  26
ENDBRANCH  19  20
ENDBRANCH  18  19
ENDBRANCH  17  18
ENDBRANCH   3  17
TORSDOF 7
ENDMDL
MODEL 7
REMARK VINA RESULT:      -6.7     24.295     27.666
REMARK  Name = 
REMARK  7 active torsions:
REMARK  status: ('A' for Active; 'I' for Inactive)
REMARK    1  A    between atoms: C_1  and  C_8
REMARK    2  A    between atoms: N_2  and  C_3
REMARK    3  A    between atoms: N_10  and  C_11
REMARK    4  A    between atoms: C_11  and  C_12
REMARK    5  A    between atoms: C_12  and  O_13
REMARK    6  A    between atoms: O_13  and  C_14
REMARK    7  A    between atoms: C_17  and  C_18
REMARK                            x       y       z     vdW  Elec       q    Type
REMARK                         _______ _______ _______ _____ _____    ______ ____
ROOT
ATOM      1  C   UNL     1      30.364  11.797  40.009  0.00  0.00    +0.000 A 
ATOM      2  C   UNL     1      29.476  12.840  40.155  0.00  0.00    +0.000 A 
ATOM      3  N   UNL     1      28.377  12.408  40.819  0.00  0.00    +0.000 N 
ATOM      4  C   UNL     1      28.514  11.084  41.122  0.00  0.00    +0.000 A 
ATOM      5  C   UNL     1      27.690  10.197  41.778  0.00  0.00    +0.000 A 
ATOM      6  C   UNL     1      28.081   8.893  41.951  0.00  0.00    +0.000 A 
ATOM      7  C   UNL     1      29.302   8.503  41.457  0.00  0.00    +0.000 A 
ATOM      8  C   UNL     1      30.114   9.410  40.802  0.00  0.00    +0.000 A 
ATOM      9  C   UNL     1      29.745  10.725  40.615  0.00  0.00    +0.000 A 
ENDROOT
BRANCH   1  10
ATOM     10  C   UNL     1      31.661  11.864  39.350  0.00  0.00    +0.000 C 
ATOM     11  N   UNL     1      31.828  11.997  38.102  0.00  0.00    +0.000 NA
BRANCH  11  12
ATOM     12  C   UNL     1      33.085  12.064  37.442  0.00  0.00    +0.000 A 
ATOM     13  N   UNL     1      33.755  13.228  37.281  0.00  0.00    +0.000 NA
ATOM     14  C   UNL     1      34.909  12.998  36.625  0.00  0.00    +0.000 A 
ATOM     15  N   UNL     1      34.924  11.672  36.394  0.00  0.00    +0.000 NA
ATOM     16  N   UNL     1      33.827  11.115  36.887  0.00  0.00    +0.000 NA
ENDBRANCH  11  12
ENDBRANCH   1  10
BRANCH   3  17
ATOM     17  C   UNL     1      27.240  13.247  41.145  0.00  0.00    +0.000 C 
BRANCH  17  18
ATOM     18  C   UNL     1      26.203  13.191  40.051  0.00  0.00    +0.000 C 
BRANCH  18  19
ATOM     19  O   UNL     1      25.771  14.499  39.798  0.00  0.00    +0.000 OA
BRANCH  19  20
ATOM     20  C   UNL     1      25.906  15.117  38.558  0.00  0.00    +0.000 A 
ATOM     21  C   UNL     1      24.849  15.700  37.893  0.00  0.00    +0.000 A 
ATOM     22  C   UNL     1      24.980  16.316  36.660  0.00  0.00    +0.000 A 
ATOM     23  C   UNL     1      26.232  16.351  36.063  0.00  0.00    +0.000 A 
ATOM     24  C   UNL     1      27.283  15.766  36.732  0.00  0.00    +0.000 A 
ATOM     25  C   UNL     1      27.149  15.150  37.965  0.00  0.00    +0.000 A 
BRANCH  23  26
ATOM     26  C   UNL     1      26.390  17.013  34.730  0.00  0.00    +0.000 C 
ATOM     27  C   UNL     1      27.212  16.075  33.860  0.00  0.00    +0.000 C 
ATOM     28  C   UNL     1      26.572  14.706  33.916  0.00  0.00    +0.000 C 
ATOM     29  C   UNL     1      25.190  14.824  33.296  0.00  0.00    +0.000 C 
ATOM     30  C   UNL     1      24.872  16.271  32.931  0.00  0.00    +0.000 C 
ATOM     31  C   UNL     1      25.010  17.175  34.136  0.00  0.00    +0.000 C 
ENDBRANCH  23  26
ENDBRANCH  19  20
ENDBRANCH  18  19
ENDBRANCH  17  18
ENDBRANCH   3  17
TORSDOF 7
ENDMDL
MODEL 8
REMARK VINA RESULT:      -6.6     24.341     26.697
REMARK  Name = 
REMARK  7 active torsions:
REMARK  status: ('A' for Active; 'I' for Inactive)
REMARK    1  A    between atoms: C_1  and  C_8
REMARK    2  A    between atoms: N_2  and  C_3
REMARK    3  A    between atoms: N_10  and  C_11
REMARK    4  A    between atoms: C_11  and  C_12
REMARK    5  A    between atoms: C_12  and  O_13
REMARK    6  A    between atoms: O_13  and  C_14
REMARK    7  A    between atoms: C_17  and  C_18
REMARK                            x       y       z     vdW  Elec       q    Type
REMARK                         _______ _______ _______ _____ _____    ______ ____
ROOT
ATOM      1  C   UNL     1      11.278  -0.802  25.828  0.00  0.00    +0.000 A 
ATOM      2  C   UNL     1      12.455  -1.184  26.433  0.00  0.00    +0.000 A 
ATOM      3  N   UNL     1      13.015  -0.116  27.049  0.00  0.00    +0.000 N 
ATOM      4  C   UNL     1      12.228   0.984  26.866  0.00  0.00    +0.000 A 
ATOM      5  C   UNL     1      12.355   2.290  27.285  0.00  0.00    +0.000 A 
ATOM      6  C   UNL     1      11.397   3.215  26.955  0.00  0.00    +0.000 A 
ATOM      7  C   UNL     1      10.322   2.807  26.204  0.00  0.00    +0.000 A 
ATOM      8  C   UNL     1      10.213   1.492  25.793  0.00  0.00    +0.000 A 
ATOM      9  C   UNL     1      11.162   0.542  26.112  0.00  0.00    +0.000 A 
ENDROOT
BRANCH   1  10
ATOM     10  C   UNL     1      10.386  -1.665  25.067  0.00  0.00    +0.000 C 
ATOM     11  N   UNL     1       9.151  -1.447  24.888  0.00  0.00    +0.000 NA
BRANCH  11  12
ATOM     12  C   UNL     1       8.267  -2.278  24.149  0.00  0.00    +0.000 A 
ATOM     13  N   UNL     1       7.007  -1.895  23.839  0.00  0.00    +0.000 NA
ATOM     14  C   UNL     1       6.398  -2.871  23.138  0.00  0.00    +0.000 A 
ATOM     15  N   UNL     1       7.315  -3.852  23.031  0.00  0.00    +0.000 NA
ATOM     16  N   UNL     1       8.436  -3.490  23.639  0.00  0.00    +0.000 NA
ENDBRANCH  11  12
ENDBRANCH   1  10
BRANCH   3  17
ATOM     17  C   UNL     1      14.264  -0.162  27.785  0.00  0.00    +0.000 C 
BRANCH  17  18
ATOM     18  C   UNL     1      15.355   0.555  27.030  0.00  0.00    +0.000 C 
BRANCH  18  19
ATOM     19  O   UNL     1      15.691  -0.221  25.914  0.00  0.00    +0.000 OA
BRANCH  19  20
ATOM     20  C   UNL     1      16.989  -0.322  25.421  0.00  0.00    +0.000 A 
ATOM     21  C   UNL     1      17.614  -1.530  25.200  0.00  0.00    +0.000 A 
ATOM     22  C   UNL     1      18.905  -1.633  24.709  0.00  0.00    +0.000 A 
ATOM     23  C   UNL     1      19.605  -0.469  24.425  0.00  0.00    +0.000 A 
ATOM     24  C   UNL     1      18.974   0.734  24.648  0.00  0.00    +0.000 A 
ATOM     25  C   UNL     1      17.683   0.835  25.140  0.00  0.00    +0.000 A 
BRANCH  23  26
ATOM     26  C   UNL     1      21.001  -0.564  23.894  0.00  0.00    +0.000 C 
ATOM     27  C   UNL     1      20.948  -1.443  22.654  0.00  0.00    +0.000 C 
ATOM     28  C   UNL     1      19.865  -0.904  21.746  0.00  0.00    +0.000 C 
ATOM     29  C   UNL     1      20.287   0.490  21.313  0.00  0.00    +0.000 C 
ATOM     30  C   UNL     1      21.578   0.916  22.006  0.00  0.00    +0.000 C 
ATOM     31  C   UNL     1      21.438   0.830  23.510  0.00  0.00    +0.000 C 
ENDBRANCH  23  26
ENDBRANCH  19  20
ENDBRANCH  18  19
ENDBRANCH  17  18
ENDBRANCH   3  17
TORSDOF 7
ENDMDL
MODEL 9
REMARK VINA RESULT:      -6.6      3.523      8.462
REMARK  Name = 
REMARK  7 active torsions:
REMARK  status: ('A' for Active; 'I' for Inactive)
REMARK    1  A    between atoms: C_1  and  C_8
REMARK    2  A    between atoms: N_2  and  C_3
REMARK    3  A    between atoms: N_10  and  C_11
REMARK    4  A    between atoms: C_11  and  C_12
REMARK    5  A    between atoms: C_12  and  O_13
REMARK    6  A    between atoms: O_13  and  C_14
REMARK    7  A    between atoms: C_17  and  C_18
REMARK                            x       y       z     vdW  Elec       q    Type
REMARK                         _______ _______ _______ _____ _____    ______ ____
ROOT
ATOM      1  C   UNL     1      40.365  -1.089  14.582  0.00  0.00    +0.000 A 
ATOM      2  C   UNL     1      39.624   0.056  14.382  0.00  0.00    +0.000 A 
ATOM      3  N   UNL     1      38.463  -0.030  15.073  0.00  0.00    +0.000 N 
ATOM      4  C   UNL     1      38.411  -1.222  15.738  0.00  0.00    +0.000 A 
ATOM      5  C   UNL     1      37.459  -1.777  16.563  0.00  0.00    +0.000 A 
ATOM      6  C   UNL     1      37.663  -3.018  17.113  0.00  0.00    +0.000 A 
ATOM      7  C   UNL     1      38.830  -3.681  16.819  0.00  0.00    +0.000 A 
ATOM      8  C   UNL     1      39.773  -3.106  15.989  0.00  0.00    +0.000 A 
ATOM      9  C   UNL     1      39.592  -1.860  15.424  0.00  0.00    +0.000 A 
ENDROOT
BRANCH   1  10
ATOM     10  C   UNL     1      41.672  -1.374  14.009  0.00  0.00    +0.000 C 
ATOM     11  N   UNL     1      42.772  -0.959  14.480  0.00  0.00    +0.000 NA
BRANCH  11  12
ATOM     12  C   UNL     1      44.056  -1.228  13.934  0.00  0.00    +0.000 A 
ATOM     13  N   UNL     1      44.866  -2.188  14.435  0.00  0.00    +0.000 NA
ATOM     14  C   UNL     1      46.013  -2.223  13.730  0.00  0.00    +0.000 A 
ATOM     15  N   UNL     1      45.880  -1.266  12.792  0.00  0.00    +0.000 NA
ATOM     16  N   UNL     1      44.702  -0.671  12.920  0.00  0.00    +0.000 NA
ENDBRANCH  11  12
ENDBRANCH   1  10
BRANCH   3  17
ATOM     17  C   UNL     1      37.445   1.002  15.087  0.00  0.00    +0.000 C 
BRANCH  17  18
ATOM     18  C   UNL     1      37.951   2.260  14.426  0.00  0.00    +0.000 C 
BRANCH  18  19
ATOM     19  O   UNL     1      37.446   3.355  15.139  0.00  0.00    +0.000 OA
BRANCH  19  20
ATOM     20  C   UNL     1      38.230   4.140  15.981  0.00  0.00    +0.000 A 
ATOM     21  C   UNL     1      38.073   4.157  17.349  0.00  0.00    +0.000 A 
ATOM     22  C   UNL     1      38.851   4.937  18.189  0.00  0.00    +0.000 A 
ATOM     23  C   UNL     1      39.836   5.739  17.629  0.00  0.00    +0.000 A 
ATOM     24  C   UNL     1      39.986   5.718  16.262  0.00  0.00    +0.000 A 
ATOM     25  C   UNL     1      39.207   4.937  15.424  0.00  0.00    +0.000 A 
BRANCH  23  26
ATOM     26  C   UNL     1      40.685   6.588  18.523  0.00  0.00    +0.000 C 
ATOM     27  C   UNL     1      40.478   8.032  18.096  0.00  0.00    +0.000 C 
ATOM     28  C   UNL     1      38.989   8.296  18.049  0.00  0.00    +0.000 C 
ATOM     29  C   UNL     1      38.456   8.147  19.464  0.00  0.00    +0.000 C 
ATOM     30  C   UNL     1      39.552   7.686  20.421  0.00  0.00    +0.000 C 
ATOM     31  C   UNL     1      40.185   6.400  19.937  0.00  0.00    +0.000 C 
ENDBRANCH  23  26
ENDBRANCH  19  20
ENDBRANCH  18  19
ENDBRANCH  17  18
ENDBRANCH   3  17
TORSDOF 7
ENDMDL
MODEL 10
REMARK VINA RESULT:      -6.6      3.419      8.782
REMARK  Name = 
REMARK  7 active torsions:
REMARK  status: ('A' for Active; 'I' for Inactive)
REMARK    1  A    between atoms: C_1  and  C_8
REMARK    2  A    between atoms: N_2  and  C_3
REMARK    3  A    between atoms: N_10  and  C_11
REMARK    4  A    between atoms: C_11  and  C_12
REMARK    5  A    between atoms: C_12  and  O_13
REMARK    6  A    between atoms: O_13  and  C_14
REMARK    7  A    between atoms: C_17  and  C_18
REMARK                            x       y       z     vdW  Elec       q    Type
REMARK                         _______ _______ _______ _____ _____    ______ ____
ROOT
ATOM      1  C   UNL     1      38.067  -0.807  15.239  0.00  0.00    +0.000 A 
ATOM      2  C   UNL     1      37.282   0.285  14.936  0.00  0.00    +0.000 A 
ATOM      3  N   UNL     1      36.583   0.658  16.034  0.00  0.00    +0.000 N 
ATOM      4  C   UNL     1      36.887  -0.171  17.076  0.00  0.00    +0.000 A 
ATOM      5  C   UNL     1      36.450  -0.211  18.381  0.00  0.00    +0.000 A 
ATOM      6  C   UNL     1      36.928  -1.170  19.238  0.00  0.00    +0.000 A 
ATOM      7  C   UNL     1      37.842  -2.078  18.762  0.00  0.00    +0.000 A 
ATOM      8  C   UNL     1      38.267  -2.021  17.448  0.00  0.00    +0.000 A 
ATOM      9  C   UNL     1      37.803  -1.067  16.567  0.00  0.00    +0.000 A 
ENDROOT
BRANCH   1  10
ATOM     10  C   UNL     1      38.962  -1.498  14.323  0.00  0.00    +0.000 C 
ATOM     11  N   UNL     1      40.184  -1.210  14.154  0.00  0.00    +0.000 NA
BRANCH  11  12
ATOM     12  C   UNL     1      41.072  -1.874  13.265  0.00  0.00    +0.000 A 
ATOM     13  N   UNL     1      42.127  -2.596  13.705  0.00  0.00    +0.000 NA
ATOM     14  C   UNL     1      42.793  -3.110  12.653  0.00  0.00    +0.000 A 
ATOM     15  N   UNL     1      42.119  -2.684  11.568  0.00  0.00    +0.000 NA
ATOM     16  N   UNL     1      41.086  -1.942  11.941  0.00  0.00    +0.000 NA
ENDBRANCH  11  12
ENDBRANCH   1  10
BRANCH   3  17
ATOM     17  C   UNL     1      35.657   1.773  16.070  0.00  0.00    +0.000 C 
BRANCH  17  18
ATOM     18  C   UNL     1      36.377   3.074  15.815  0.00  0.00    +0.000 C 
BRANCH  18  19
ATOM     19  O   UNL     1      37.433   3.169  16.730  0.00  0.00    +0.000 OA
BRANCH  19  20
ATOM     20  C   UNL     1      37.978   4.383  17.139  0.00  0.00    +0.000 A 
ATOM     21  C   UNL     1      37.999   5.502  16.335  0.00  0.00    +0.000 A 
ATOM     22  C   UNL     1      38.540   6.711  16.739  0.00  0.00    +0.000 A 
ATOM     23  C   UNL     1      39.085   6.805  18.012  0.00  0.00    +0.000 A 
ATOM     24  C   UNL     1      39.061   5.684  18.809  0.00  0.00    +0.000 A 
ATOM     25  C   UNL     1      38.520   4.475  18.402  0.00  0.00    +0.000 A 
BRANCH  23  26
ATOM     26  C   UNL     1      39.674   8.105  18.463  0.00  0.00    +0.000 C 
ATOM     27  C   UNL     1      38.650   9.188  18.159  0.00  0.00    +0.000 C 
ATOM     28  C   UNL     1      37.324   8.753  18.743  0.00  0.00    +0.000 C 
ATOM     29  C   UNL     1      37.493   8.681  20.251  0.00  0.00    +0.000 C 
ATOM     30  C   UNL     1      38.938   8.959  20.658  0.00  0.00    +0.000 C 
ATOM     31  C   UNL     1      39.888   8.014  19.955  0.00  0.00    +0.000 C 
ENDBRANCH  23  26
ENDBRANCH  19  20
ENDBRANCH  18  19
ENDBRANCH  17  18
ENDBRANCH   3  17
TORSDOF 7
ENDMDL
