REMARK  Name = 
REMARK  11 active torsions:
REMARK  status: ('A' for Active; 'I' for Inactive)
REMARK    1  A    between atoms: C_2  and  O_3
REMARK    2  A    between atoms: O_3  and  C_4
REMARK    3  A    between atoms: C_4  and  C_5
REMARK    4  A    between atoms: C_5  and  N_6
REMARK    5  A    between atoms: N_6  and  C_7
REMARK    6  A    between atoms: N_6  and  C_12
REMARK    7  A    between atoms: C_7  and  C_8
REMARK    8  A    between atoms: C_8  and  O_9
REMARK    9  A    between atoms: O_9  and  C_10
REMARK   10  A    between atoms: C_14  and  C_15
REMARK   11  A    between atoms: C_22  and  C_23
REMARK                            x       y       z     vdW  Elec       q    Type
REMARK                         _______ _______ _______ _____ _____    ______ ____
ROOT
ATOM      1  C   UNL     1       0.806  -0.143   0.305  0.00  0.00    +0.000 A 
ATOM      2  C   UNL     1       0.165  -1.197  -0.297  0.00  0.00    +0.000 A 
ATOM      3  C   UNL     1      -1.131  -1.110  -0.758  0.00  0.00    +0.000 A 
ATOM      4  C   UNL     1      -1.763   0.102  -0.584  0.00  0.00    +0.000 A 
ATOM      5  C   UNL     1      -1.084   1.156   0.033  0.00  0.00    +0.000 A 
ATOM      6  N   UNL     1       0.175   1.023   0.464  0.00  0.00    +0.000 NA
ENDROOT
BRANCH   5   7
ATOM      7  C   UNL     1      -1.732   2.435   0.236  0.00  0.00    +0.000 A 
ATOM      8  C   UNL     1      -1.090   3.474   0.859  0.00  0.00    +0.000 A 
ATOM      9  C   UNL     1      -1.734   4.680   1.044  0.00  0.00    +0.000 A 
ATOM     10  C   UNL     1      -3.010   4.856   0.612  0.00  0.00    +0.000 A 
ATOM     11  O   UNL     1      -3.656   6.064   0.794  0.00  0.00    +0.000 OA
ATOM     12  C   UNL     1      -3.679   3.815  -0.023  0.00  0.00    +0.000 A 
ATOM     13  C   UNL     1      -3.021   2.612  -0.201  0.00  0.00    +0.000 A 
ATOM     14  C   UNL     1      -3.756   1.505  -0.884  0.00  0.00    +0.000 C 
ENDBRANCH   5   7
BRANCH   3  15
ATOM     15  C   UNL     1      -1.816  -2.227  -1.401  0.00  0.00    +0.000 A 
ATOM     16  C   UNL     1      -1.108  -3.160  -2.156  0.00  0.00    +0.000 A 
ATOM     17  C   UNL     1      -1.835  -4.202  -2.746  0.00  0.00    +0.000 A 
ATOM     18  C   UNL     1      -3.191  -4.340  -2.611  0.00  0.00    +0.000 A 
ATOM     19  C   UNL     1      -3.867  -3.393  -1.853  0.00  0.00    +0.000 A 
ATOM     20  C   UNL     1      -3.174  -2.380  -1.278  0.00  0.00    +0.000 A 
ENDBRANCH   3  15
BRANCH   1  21
ATOM     21  N   UNL     1       2.141  -0.246   0.773  0.00  0.00    +0.000 N 
BRANCH  21  22
ATOM     22  C   UNL     1       2.429  -0.556   2.153  0.00  0.00    +0.000 C 
BRANCH  22  23
ATOM     23  C   UNL     1       3.053  -1.935   2.189  0.00  0.00    +0.000 C 
BRANCH  23  24
ATOM     24  O   UNL     1       3.369  -2.335   3.462  0.00  0.00    +0.000 OA
BRANCH  24  26
ATOM     25  C   UNL     1       4.546  -2.047   5.498  0.00  0.00    +0.000 C 
ATOM     26  C   UNL     1       4.282  -1.496   4.108  0.00  0.00    +0.000 C 
ENDBRANCH  24  26
ENDBRANCH  23  24
ENDBRANCH  22  23
ENDBRANCH  21  22
BRANCH  21  27
ATOM     27  C   UNL     1       3.244  -0.032  -0.153  0.00  0.00    +0.000 C 
BRANCH  27  28
ATOM     28  C   UNL     1       2.700   0.190  -1.533  0.00  0.00    +0.000 C 
BRANCH  28  29
ATOM     29  O   UNL     1       3.733   0.394  -2.412  0.00  0.00    +0.000 OA
BRANCH  29  30
ATOM     30  C   UNL     1       4.662  -0.623  -2.487  0.00  0.00    +0.000 C 
ATOM     31  C   UNL     1       5.341  -0.884  -1.155  0.00  0.00    +0.000 C 
ENDBRANCH  29  30
ENDBRANCH  28  29
ENDBRANCH  27  28
ENDBRANCH  21  27
ENDBRANCH   1  21
TORSDOF 11
