REMARK  Name = 
REMARK  5 active torsions:
REMARK  status: ('A' for Active; 'I' for Inactive)
REMARK    1  A    between atoms: C_8  and  C_9
REMARK    2  A    between atoms: C_11  and  C_12
REMARK    3  A    between atoms: N_20  and  C_22
REMARK    4  A    between atoms: C_22  and  C_23
REMARK    5  A    between atoms: C_23  and  C_24
REMARK                            x       y       z     vdW  Elec       q    Type
REMARK                         _______ _______ _______ _____ _____    ______ ____
ROOT
ATOM      1  C   UNL     1      -1.600  -0.933  -0.028  0.00  0.00    +0.000 A 
ATOM      2  C   UNL     1      -2.001   0.384  -0.010  0.00  0.00    +0.000 A 
ATOM      3  C   UNL     1      -1.068   1.390  -0.073  0.00  0.00    +0.000 A 
ATOM      4  C   UNL     1       0.271   1.005  -0.153  0.00  0.00    +0.000 A 
ATOM      5  C   UNL     1       0.661  -0.313  -0.170  0.00  0.00    +0.000 A 
ATOM      6  N   UNL     1       2.056  -0.681  -0.247  0.00  0.00    +0.000 N 
ATOM      7  C   UNL     1       2.849  -0.875   0.929  0.00  0.00    +0.000 C 
ATOM      8  N   UNL     1      -0.292  -1.257  -0.106  0.00  0.00    +0.000 NA
ENDROOT
BRANCH   1  16
ATOM      9  C   UNL     1      -4.353  -0.334   0.277  0.00  0.00    +0.000 C 
ATOM     10  C   UNL     1      -3.923  -1.747   0.163  0.00  0.00    +0.000 A 
ATOM     11  C   UNL     1      -4.848  -2.786   0.209  0.00  0.00    +0.000 A 
ATOM     12  C   UNL     1      -4.461  -4.096   0.110  0.00  0.00    +0.000 A 
ATOM     13  O   UNL     1      -5.317  -5.183   0.145  0.00  0.00    +0.000 OA
ATOM     14  C   UNL     1      -3.120  -4.353  -0.037  0.00  0.00    +0.000 A 
ATOM     15  C   UNL     1      -2.192  -3.327  -0.085  0.00  0.00    +0.000 A 
ATOM     16  C   UNL     1      -2.597  -2.012   0.016  0.00  0.00    +0.000 A 
ENDBRANCH   1  16
BRANCH   3  17
ATOM     17  C   UNL     1      -1.448   2.781  -0.064  0.00  0.00    +0.000 A 
ATOM     18  C   UNL     1      -0.664   3.762   0.475  0.00  0.00    +0.000 A 
ATOM     19  C   UNL     1      -1.106   5.093   0.439  0.00  0.00    +0.000 A 
ATOM     20  C   UNL     1      -2.330   5.414  -0.139  0.00  0.00    +0.000 A 
ATOM     21  C   UNL     1      -3.116   4.422  -0.679  0.00  0.00    +0.000 A 
ATOM     22  C   UNL     1      -2.665   3.129  -0.633  0.00  0.00    +0.000 A 
ENDBRANCH   3  17
BRANCH   6  23
ATOM     23  C   UNL     1       2.581  -0.843  -1.577  0.00  0.00    +0.000 C 
BRANCH  23  24
ATOM     24  C   UNL     1       3.584   0.197  -1.982  0.00  0.00    +0.000 C 
BRANCH  24  25
ATOM     25  C   UNL     1       4.753   0.191  -1.090  0.00  0.00    +0.000 A 
ATOM     26  C   UNL     1       4.790   1.010   0.011  0.00  0.00    +0.000 A 
ATOM     27  C   UNL     1       5.872   1.031   0.879  0.00  0.00    +0.000 A 
ATOM     28  C   UNL     1       6.921   0.198   0.605  0.00  0.00    +0.000 A 
ATOM     29  C   UNL     1       6.928  -0.631  -0.476  0.00  0.00    +0.000 A 
ATOM     30  C   UNL     1       5.835  -0.633  -1.327  0.00  0.00    +0.000 A 
ENDBRANCH  24  25
ENDBRANCH  23  24
ENDBRANCH   6  23
TORSDOF 5
