REMARK  Name = 
REMARK  7 active torsions:
REMARK  status: ('A' for Active; 'I' for Inactive)
REMARK    1  A    between atoms: C_8  and  C_9
REMARK    2  A    between atoms: C_11  and  C_12
REMARK    3  A    between atoms: N_20  and  C_21
REMARK    4  A    between atoms: N_20  and  C_29
REMARK    5  A    between atoms: C_21  and  C_22
REMARK    6  A    between atoms: C_22  and  C_23
REMARK    7  A    between atoms: C_29  and  C_30
REMARK                            x       y       z     vdW  Elec       q    Type
REMARK                         _______ _______ _______ _____ _____    ______ ____
ROOT
ATOM      1  C   UNL     1       2.406  -0.324   0.610  0.00  0.00    +0.000 A 
ATOM      2  C   UNL     1       2.923  -0.477  -0.656  0.00  0.00    +0.000 A 
ATOM      3  C   UNL     1       2.206  -0.129  -1.786  0.00  0.00    +0.000 A 
ATOM      4  C   UNL     1       0.943   0.381  -1.583  0.00  0.00    +0.000 A 
ATOM      5  C   UNL     1       0.414   0.538  -0.311  0.00  0.00    +0.000 A 
ATOM      6  N   UNL     1      -0.913   1.079  -0.136  0.00  0.00    +0.000 N 
ATOM      7  N   UNL     1       1.152   0.185   0.734  0.00  0.00    +0.000 NA
ENDROOT
BRANCH   1  15
ATOM      8  C   UNL     1       1.160  -0.014   3.184  0.00  0.00    +0.000 C 
ATOM      9  C   UNL     1       2.559  -0.529   3.077  0.00  0.00    +0.000 A 
ATOM     10  C   UNL     1       3.247  -0.855   4.229  0.00  0.00    +0.000 A 
ATOM     11  C   UNL     1       4.544  -1.340   4.141  0.00  0.00    +0.000 A 
ATOM     12  O   UNL     1       5.248  -1.672   5.309  0.00  0.00    +0.000 OA
ATOM     13  C   UNL     1       5.112  -1.484   2.909  0.00  0.00    +0.000 A 
ATOM     14  C   UNL     1       4.413  -1.155   1.776  0.00  0.00    +0.000 A 
ATOM     15  C   UNL     1       3.114  -0.667   1.839  0.00  0.00    +0.000 A 
ENDBRANCH   1  15
BRANCH   3  16
ATOM     16  C   UNL     1       2.686  -0.280  -3.147  0.00  0.00    +0.000 A 
ATOM     17  C   UNL     1       1.838  -0.532  -4.209  0.00  0.00    +0.000 A 
ATOM     18  C   UNL     1       2.346  -0.671  -5.469  0.00  0.00    +0.000 A 
ATOM     19  C   UNL     1       3.695  -0.569  -5.736  0.00  0.00    +0.000 A 
ATOM     20  C   UNL     1       4.549  -0.318  -4.688  0.00  0.00    +0.000 A 
ATOM     21  C   UNL     1       4.033  -0.179  -3.424  0.00  0.00    +0.000 A 
ENDBRANCH   3  16
BRANCH   6  22
ATOM     22  C   UNL     1      -1.987   0.148  -0.332  0.00  0.00    +0.000 C 
BRANCH  22  23
ATOM     23  C   UNL     1      -2.712  -0.244   0.935  0.00  0.00    +0.000 C 
BRANCH  23  24
ATOM     24  C   UNL     1      -3.792  -1.216   0.535  0.00  0.00    +0.000 A 
ATOM     25  C   UNL     1      -5.057  -0.833   0.215  0.00  0.00    +0.000 A 
ATOM     26  C   UNL     1      -6.057  -1.722  -0.166  0.00  0.00    +0.000 A 
ATOM     27  C   UNL     1      -5.748  -3.079  -0.223  0.00  0.00    +0.000 A 
ATOM     28  C   UNL     1      -4.471  -3.462   0.099  0.00  0.00    +0.000 A 
ATOM     29  C   UNL     1      -3.479  -2.579   0.477  0.00  0.00    +0.000 A 
ENDBRANCH  23  24
ENDBRANCH  22  23
ENDBRANCH   6  22
BRANCH   6  30
ATOM     30  C   UNL     1      -1.125   2.443   0.239  0.00  0.00    +0.000 C 
BRANCH  30  31
ATOM     31  C   UNL     1      -2.538   2.848   0.243  0.00  0.00    +0.000 A 
ATOM     32  C   UNL     1      -3.528   2.130  -0.399  0.00  0.00    +0.000 A 
ATOM     33  C   UNL     1      -4.855   2.516  -0.398  0.00  0.00    +0.000 A 
ATOM     34  C   UNL     1      -5.191   3.665   0.275  0.00  0.00    +0.000 A 
ATOM     35  C   UNL     1      -4.224   4.400   0.925  0.00  0.00    +0.000 A 
ATOM     36  C   UNL     1      -2.911   3.997   0.910  0.00  0.00    +0.000 A 
ENDBRANCH  30  31
ENDBRANCH   6  30
TORSDOF 7
