REMARK  Name = 
REMARK  7 active torsions:
REMARK  status: ('A' for Active; 'I' for Inactive)
REMARK    1  A    between atoms: O_2  and  C_3
REMARK    2  A    between atoms: C_13  and  C_14
REMARK    3  A    between atoms: C_20  and  C_21
REMARK    4  A    between atoms: C_24  and  O_25
REMARK    5  A    between atoms: O_25  and  C_26
REMARK    6  A    between atoms: C_26  and  C_27
REMARK    7  A    between atoms: C_27  and  N_28
REMARK                            x       y       z     vdW  Elec       q    Type
REMARK                         _______ _______ _______ _____ _____    ______ ____
ROOT
ATOM      1  C   UNL     1      -3.192   3.870   1.738  0.00  0.00    +0.000 A 
ATOM      2  C   UNL     1      -2.971   3.074   2.841  0.00  0.00    +0.000 A 
ATOM      3  C   UNL     1      -2.517   1.772   2.733  0.00  0.00    +0.000 A 
ATOM      4  C   UNL     1      -2.286   1.280   1.472  0.00  0.00    +0.000 A 
ATOM      5  C   UNL     1      -2.486   2.021   0.337  0.00  0.00    +0.000 A 
ATOM      6  C   UNL     1      -2.939   3.312   0.503  0.00  0.00    +0.000 A 
ATOM      7  O   UNL     1      -2.226   1.440  -0.904  0.00  0.00    +0.000 OA
ATOM      8  C   UNL     1      -2.507   0.114  -1.155  0.00  0.00    +0.000 C 
ATOM      9  C   UNL     1      -1.838  -0.570  -2.229  0.00  0.00    +0.000 C 
ATOM     10  C   UNL     1      -4.005   0.181  -1.641  0.00  0.00    +0.000 C 
ATOM     11  C   UNL     1      -2.779  -0.672   0.163  0.00  0.00    +0.000 C 
ATOM     12  C   UNL     1      -1.770  -0.190   1.340  0.00  0.00    +0.000 C 
ENDROOT
BRANCH  11  13
ATOM     13  C   UNL     1      -2.287  -2.099  -0.107  0.00  0.00    +0.000 A 
ATOM     14  C   UNL     1      -1.880  -2.689  -1.213  0.00  0.00    +0.000 A 
ATOM     15  C   UNL     1      -1.475  -3.995  -1.237  0.00  0.00    +0.000 A 
ATOM     16  C   UNL     1      -1.494  -4.710  -0.070  0.00  0.00    +0.000 A 
ATOM     17  C   UNL     1      -1.910  -4.155   1.129  0.00  0.00    +0.000 A 
ATOM     18  C   UNL     1      -2.300  -2.822   1.038  0.00  0.00    +0.000 A 
ENDBRANCH  11  13
BRANCH  12  19
ATOM     19  C   UNL     1      -0.370  -0.007   0.808  0.00  0.00    +0.000 A 
ATOM     20  C   UNL     1       0.121   0.228  -0.400  0.00  0.00    +0.000 A 
ATOM     21  C   UNL     1       1.437   0.363  -0.745  0.00  0.00    +0.000 A 
ATOM     22  C   UNL     1       2.366   0.245   0.255  0.00  0.00    +0.000 A 
ATOM     23  C   UNL     1       1.942  -0.000   1.544  0.00  0.00    +0.000 A 
ATOM     24  C   UNL     1       0.590  -0.127   1.831  0.00  0.00    +0.000 A 
BRANCH  22  25
ATOM     25  O   UNL     1       3.751   0.370  -0.005  0.00  0.00    +0.000 OA
BRANCH  25  26
ATOM     26  C   UNL     1       4.143   0.620  -1.316  0.00  0.00    +0.000 C 
BRANCH  26  27
ATOM     27  C   UNL     1       5.652   0.708  -1.345  0.00  0.00    +0.000 C 
BRANCH  27  28
ATOM     28  N   UNL     1       6.275  -0.517  -0.899  0.00  0.00    +0.000 NA
ATOM     29  C   UNL     1       6.064  -1.605  -1.825  0.00  0.00    +0.000 C 
ATOM     30  C   UNL     1       6.426  -2.840  -1.066  0.00  0.00    +0.000 C 
ATOM     31  C   UNL     1       6.276  -2.423   0.393  0.00  0.00    +0.000 C 
ATOM     32  C   UNL     1       5.721  -1.016   0.327  0.00  0.00    +0.000 C 
ENDBRANCH  27  28
ENDBRANCH  26  27
ENDBRANCH  25  26
ENDBRANCH  22  25
ENDBRANCH  12  19
BRANCH   1  34
ATOM     33  C   UNL     1      -3.884   5.669   3.211  0.00  0.00    +0.000 C 
ATOM     34  O   UNL     1      -3.648   5.169   1.914  0.00  0.00    +0.000 OA
ENDBRANCH   1  34
TORSDOF 7
