REMARK  Name = 
REMARK  5 active torsions:
REMARK  status: ('A' for Active; 'I' for Inactive)
REMARK    1  A    between atoms: C_18  and  C_19
REMARK    2  A    between atoms: C_22  and  O_23
REMARK    3  A    between atoms: O_23  and  C_24
REMARK    4  A    between atoms: C_24  and  C_25
REMARK    5  A    between atoms: C_25  and  N_26
REMARK                            x       y       z     vdW  Elec       q    Type
REMARK                         _______ _______ _______ _____ _____    ______ ____
ROOT
ATOM      1  O   UNL     1      -3.762   2.555   5.424  0.00  0.00    +0.000 OA
ATOM      2  C   UNL     1      -3.125   2.414   4.199  0.00  0.00    +0.000 A 
ATOM      3  C   UNL     1      -1.973   3.160   4.023  0.00  0.00    +0.000 A 
ATOM      4  C   UNL     1      -1.254   3.116   2.880  0.00  0.00    +0.000 A 
ATOM      5  C   UNL     1      -1.714   2.280   1.855  0.00  0.00    +0.000 A 
ATOM      6  C   UNL     1      -2.874   1.533   2.039  0.00  0.00    +0.000 A 
ATOM      7  C   UNL     1      -3.586   1.586   3.192  0.00  0.00    +0.000 A 
ATOM      8  C   UNL     1      -3.302   0.710   0.916  0.00  0.00    +0.000 A 
ATOM      9  S   UNL     1      -4.662  -0.357   0.808  0.00  0.00    +0.000 S 
ATOM     10  C   UNL     1      -4.389  -0.918  -0.812  0.00  0.00    +0.000 A 
ATOM     11  C   UNL     1      -5.072  -1.809  -1.624  0.00  0.00    +0.000 A 
ATOM     12  C   UNL     1      -4.624  -2.076  -2.903  0.00  0.00    +0.000 A 
ATOM     13  O   UNL     1      -5.272  -2.958  -3.748  0.00  0.00    +0.000 OA
ATOM     14  C   UNL     1      -3.484  -1.411  -3.298  0.00  0.00    +0.000 A 
ATOM     15  C   UNL     1      -2.820  -0.530  -2.480  0.00  0.00    +0.000 A 
ATOM     16  C   UNL     1      -3.273  -0.257  -1.179  0.00  0.00    +0.000 A 
ATOM     17  C   UNL     1      -2.693   0.598  -0.287  0.00  0.00    +0.000 A 
ATOM     18  C   UNL     1      -1.398   1.481  -0.541  0.00  0.00    +0.000 C 
ATOM     19  O   UNL     1      -1.118   2.135   0.696  0.00  0.00    +0.000 OA
ENDROOT
BRANCH  18  20
ATOM     20  C   UNL     1      -0.286   0.346  -0.624  0.00  0.00    +0.000 A 
ATOM     21  C   UNL     1       0.966   0.824  -0.304  0.00  0.00    +0.000 A 
ATOM     22  C   UNL     1       2.071  -0.057  -0.327  0.00  0.00    +0.000 A 
ATOM     23  C   UNL     1       1.879  -1.376  -0.668  0.00  0.00    +0.000 A 
ATOM     24  C   UNL     1       0.619  -1.813  -0.980  0.00  0.00    +0.000 A 
ATOM     25  C   UNL     1      -0.423  -0.913  -0.942  0.00  0.00    +0.000 A 
BRANCH  23  26
ATOM     26  O   UNL     1       2.983  -2.242  -0.689  0.00  0.00    +0.000 OA
BRANCH  26  27
ATOM     27  C   UNL     1       4.270  -1.825  -0.378  0.00  0.00    +0.000 C 
BRANCH  27  28
ATOM     28  C   UNL     1       4.787  -0.734  -1.285  0.00  0.00    +0.000 C 
BRANCH  28  29
ATOM     29  N   UNL     1       6.111  -0.318  -0.955  0.00  0.00    +0.000 NA
ATOM     30  C   UNL     1       7.127  -1.313  -1.207  0.00  0.00    +0.000 C 
ATOM     31  C   UNL     1       7.770  -1.834   0.060  0.00  0.00    +0.000 C 
ATOM     32  C   UNL     1       8.523  -0.734   0.777  0.00  0.00    +0.000 C 
ATOM     33  C   UNL     1       7.721   0.527   0.630  0.00  0.00    +0.000 C 
ATOM     34  C   UNL     1       6.277   0.209   0.364  0.00  0.00    +0.000 C 
ENDBRANCH  28  29
ENDBRANCH  27  28
ENDBRANCH  26  27
ENDBRANCH  23  26
ENDBRANCH  18  20
TORSDOF 5
