REMARK  Name = 
REMARK  7 active torsions:
REMARK  status: ('A' for Active; 'I' for Inactive)
REMARK    1  A    between atoms: C_2  and  C_3
REMARK    2  A    between atoms: C_3  and  N_4
REMARK    3  A    between atoms: N_4  and  C_5
REMARK    4  A    between atoms: N_4  and  C_12
REMARK    5  A    between atoms: C_5  and  C_6
REMARK    6  A    between atoms: C_14  and  C_15
REMARK    7  A    between atoms: C_22  and  C_23
REMARK                            x       y       z     vdW  Elec       q    Type
REMARK                         _______ _______ _______ _____ _____    ______ ____
ROOT
ATOM      1  C   UNL     1       0.630  -0.486  -0.224  0.00  0.00    +0.000 A 
ATOM      2  C   UNL     1       0.229   0.845  -0.313  0.00  0.00    +0.000 A 
ATOM      3  C   UNL     1      -1.049   1.215  -0.002  0.00  0.00    +0.000 A 
ATOM      4  C   UNL     1      -1.915   0.223   0.400  0.00  0.00    +0.000 A 
ATOM      5  C   UNL     1      -1.510  -1.089   0.485  0.00  0.00    +0.000 A 
ATOM      6  N   UNL     1      -0.251  -1.398   0.170  0.00  0.00    +0.000 NA
ENDROOT
BRANCH   5   7
ATOM      7  C   UNL     1      -2.447  -2.149   0.916  0.00  0.00    +0.000 A 
ATOM      8  C   UNL     1      -2.037  -3.461   0.994  0.00  0.00    +0.000 A 
ATOM      9  C   UNL     1      -2.881  -4.479   1.392  0.00  0.00    +0.000 A 
ATOM     10  C   UNL     1      -4.195  -4.205   1.732  0.00  0.00    +0.000 A 
ATOM     11  O   UNL     1      -5.047  -5.234   2.134  0.00  0.00    +0.000 OA
ATOM     12  C   UNL     1      -4.609  -2.893   1.656  0.00  0.00    +0.000 A 
ATOM     13  C   UNL     1      -3.751  -1.868   1.253  0.00  0.00    +0.000 A 
ENDBRANCH   5   7
BRANCH   3  14
ATOM     14  C   UNL     1      -1.475   2.609  -0.095  0.00  0.00    +0.000 A 
ATOM     15  C   UNL     1      -2.436   3.112   0.743  0.00  0.00    +0.000 A 
ATOM     16  C   UNL     1      -2.838   4.407   0.663  0.00  0.00    +0.000 A 
ATOM     17  C   UNL     1      -2.299   5.248  -0.253  0.00  0.00    +0.000 A 
ATOM     18  C   UNL     1      -1.331   4.785  -1.114  0.00  0.00    +0.000 A 
ATOM     19  C   UNL     1      -0.938   3.475  -1.018  0.00  0.00    +0.000 A 
ENDBRANCH   3  14
BRANCH   1  20
ATOM     20  N   UNL     1       1.975  -0.791  -0.566  0.00  0.00    +0.000 N 
BRANCH  20  21
ATOM     21  C   UNL     1       2.336  -1.139  -1.912  0.00  0.00    +0.000 C 
BRANCH  21  23
ATOM     22  C   UNL     1       1.480  -1.475  -4.203  0.00  0.00    +0.000 C 
ATOM     23  C   UNL     1       1.101  -1.108  -2.779  0.00  0.00    +0.000 C 
ENDBRANCH  21  23
ENDBRANCH  20  21
BRANCH  20  24
ATOM     24  C   UNL     1       2.978  -0.747   0.457  0.00  0.00    +0.000 C 
BRANCH  24  25
ATOM     25  C   UNL     1       4.052   0.218   0.177  0.00  0.00    +0.000 A 
ATOM     26  C   UNL     1       5.163  -0.181  -0.506  0.00  0.00    +0.000 A 
ATOM     27  C   UNL     1       6.172   0.713  -0.774  0.00  0.00    +0.000 A 
ATOM     28  C   UNL     1       6.061   2.025  -0.348  0.00  0.00    +0.000 A 
ATOM     29  C   UNL     1       4.902   2.355   0.340  0.00  0.00    +0.000 A 
ATOM     30  N   UNL     1       3.930   1.475   0.592  0.00  0.00    +0.000 NA
ENDBRANCH  24  25
ENDBRANCH  20  24
ENDBRANCH   1  20
TORSDOF 7
