REMARK  Name = 
REMARK  8 active torsions:
REMARK  status: ('A' for Active; 'I' for Inactive)
REMARK    1  A    between atoms: C_2  and  C_3
REMARK    2  A    between atoms: C_3  and  C_24
REMARK    3  A    between atoms: C_4  and  C_5
REMARK    4  A    between atoms: C_4  and  C_12
REMARK    5  A    between atoms: C_15  and  O_16
REMARK    6  A    between atoms: O_16  and  C_17
REMARK    7  A    between atoms: C_17  and  C_18
REMARK    8  A    between atoms: C_18  and  N_19
REMARK                            x       y       z     vdW  Elec       q    Type
REMARK                         _______ _______ _______ _____ _____    ______ ____
ROOT
ATOM      1  C   UNL     1      -1.428  -1.580   0.554  0.00  0.00    +0.000 C 
ATOM      2  C   UNL     1      -0.855  -0.440   0.268  0.00  0.00    +0.000 C 
ENDROOT
BRANCH   2   3
ATOM      3  C   UNL     1      -1.608   0.717  -0.155  0.00  0.00    +0.000 A 
ATOM      4  C   UNL     1      -2.680   0.816  -0.966  0.00  0.00    +0.000 A 
ATOM      5  C   UNL     1      -3.307   1.992  -1.294  0.00  0.00    +0.000 A 
ATOM      6  C   UNL     1      -2.834   3.170  -0.776  0.00  0.00    +0.000 A 
ATOM      7  O   UNL     1      -3.466   4.363  -1.107  0.00  0.00    +0.000 OA
ATOM      8  C   UNL     1      -1.743   3.129   0.057  0.00  0.00    +0.000 A 
ATOM      9  C   UNL     1      -1.129   1.938   0.374  0.00  0.00    +0.000 A 
ENDBRANCH   2   3
BRANCH   2  10
ATOM     10  C   UNL     1       0.632  -0.337   0.362  0.00  0.00    +0.000 A 
ATOM     11  C   UNL     1       1.411  -1.387  -0.068  0.00  0.00    +0.000 A 
ATOM     12  C   UNL     1       2.783  -1.376  -0.029  0.00  0.00    +0.000 A 
ATOM     13  C   UNL     1       3.420  -0.232   0.477  0.00  0.00    +0.000 A 
ATOM     14  C   UNL     1       2.644   0.819   0.909  0.00  0.00    +0.000 A 
ATOM     15  C   UNL     1       1.259   0.779   0.857  0.00  0.00    +0.000 A 
BRANCH  13  16
ATOM     16  O   UNL     1       4.797  -0.251   0.503  0.00  0.00    +0.000 OA
BRANCH  16  17
ATOM     17  C   UNL     1       5.622   0.779   0.964  0.00  0.00    +0.000 C 
BRANCH  17  18
ATOM     18  C   UNL     1       5.394   2.034   0.168  0.00  0.00    +0.000 C 
BRANCH  18  19
ATOM     19  N   UNL     1       5.683   1.790  -1.210  0.00  0.00    +0.000 NA
ATOM     20  C   UNL     1       7.066   1.540  -1.433  0.00  0.00    +0.000 C 
ATOM     21  C   UNL     1       4.836   0.873  -1.888  0.00  0.00    +0.000 C 
ENDBRANCH  18  19
ENDBRANCH  17  18
ENDBRANCH  16  17
ENDBRANCH  13  16
ENDBRANCH   2  10
BRANCH   1  22
ATOM     22  C   UNL     1      -2.846  -1.879   0.440  0.00  0.00    +0.000 A 
ATOM     23  C   UNL     1      -3.549  -2.376   1.535  0.00  0.00    +0.000 A 
ATOM     24  C   UNL     1      -4.872  -2.708   1.374  0.00  0.00    +0.000 A 
ATOM     25  C   UNL     1      -5.522  -2.567   0.176  0.00  0.00    +0.000 A 
ATOM     26  C   UNL     1      -4.804  -2.069  -0.900  0.00  0.00    +0.000 A 
ATOM     27  C   UNL     1      -3.493  -1.740  -0.742  0.00  0.00    +0.000 A 
ENDBRANCH   1  22
BRANCH   1  29
ATOM     28  C   UNL     1      -0.926  -3.095   2.382  0.00  0.00    +0.000 C 
ATOM     29  C   UNL     1      -0.484  -2.701   0.992  0.00  0.00    +0.000 C 
ENDBRANCH   1  29
TORSDOF 8
