REMARK  Name = 
REMARK  8 active torsions:
REMARK  status: ('A' for Active; 'I' for Inactive)
REMARK    1  A    between atoms: C_3  and  C_4
REMARK    2  A    between atoms: N_11  and  C_12
REMARK    3  A    between atoms: C_12  and  C_13
REMARK    4  A    between atoms: C_13  and  C_14
REMARK    5  A    between atoms: C_14  and  C_15
REMARK    6  A    between atoms: C_15  and  C_16
REMARK    7  A    between atoms: C_16  and  C_17
REMARK    8  A    between atoms: C_17  and  N_18
REMARK                            x       y       z     vdW  Elec       q    Type
REMARK                         _______ _______ _______ _____ _____    ______ ____
ROOT
ATOM      1  C   UNL     1      -3.739   0.321  -1.600  0.00  0.00    +0.000 C 
ATOM      2  C   UNL     1      -2.916  -0.473  -0.659  0.00  0.00    +0.000 A 
ATOM      3  C   UNL     1      -1.909   0.083   0.126  0.00  0.00    +0.000 A 
ATOM      4  N   UNL     1      -1.401  -0.932   0.831  0.00  0.00    +0.000 N 
ATOM      5  C   UNL     1      -2.021  -2.096   0.548  0.00  0.00    +0.000 A 
ATOM      6  C   UNL     1      -1.850  -3.403   1.020  0.00  0.00    +0.000 A 
ATOM      7  C   UNL     1      -2.636  -4.420   0.549  0.00  0.00    +0.000 A 
ATOM      8  O   UNL     1      -2.492  -5.742   0.999  0.00  0.00    +0.000 OA
ATOM      9  C   UNL     1      -3.598  -4.138  -0.396  0.00  0.00    +0.000 A 
ATOM     10  C   UNL     1      -3.784  -2.846  -0.878  0.00  0.00    +0.000 A 
ATOM     11  C   UNL     1      -2.982  -1.821  -0.394  0.00  0.00    +0.000 A 
ENDROOT
BRANCH   3  12
ATOM     12  C   UNL     1      -1.541   1.517   0.139  0.00  0.00    +0.000 A 
ATOM     13  C   UNL     1      -2.200   2.393  -0.718  0.00  0.00    +0.000 A 
ATOM     14  C   UNL     1      -1.936   3.735  -0.758  0.00  0.00    +0.000 A 
ATOM     15  C   UNL     1      -0.976   4.241   0.087  0.00  0.00    +0.000 A 
ATOM     16  O   UNL     1      -0.676   5.616   0.077  0.00  0.00    +0.000 OA
ATOM     17  C   UNL     1      -0.315   3.381   0.944  0.00  0.00    +0.000 A 
ATOM     18  C   UNL     1      -0.599   2.036   0.964  0.00  0.00    +0.000 A 
ENDBRANCH   3  12
BRANCH   4  19
ATOM     19  C   UNL     1      -0.285  -0.820   1.765  0.00  0.00    +0.000 C 
BRANCH  19  20
ATOM     20  C   UNL     1       1.042  -1.137   1.192  0.00  0.00    +0.000 C 
BRANCH  20  21
ATOM     21  C   UNL     1       1.516  -0.332   0.043  0.00  0.00    +0.000 C 
BRANCH  21  22
ATOM     22  C   UNL     1       2.885  -0.835  -0.357  0.00  0.00    +0.000 C 
BRANCH  22  23
ATOM     23  C   UNL     1       3.877  -0.706   0.780  0.00  0.00    +0.000 C 
BRANCH  23  24
ATOM     24  C   UNL     1       4.052   0.707   1.236  0.00  0.00    +0.000 C 
BRANCH  24  25
ATOM     25  N   UNL     1       4.529   1.611   0.235  0.00  0.00    +0.000 NA
ATOM     26  C   UNL     1       5.901   1.341  -0.153  0.00  0.00    +0.000 C 
ATOM     27  C   UNL     1       5.755   0.291  -1.243  0.00  0.00    +0.000 C 
ATOM     28  C   UNL     1       4.556   0.838  -2.020  0.00  0.00    +0.000 C 
ATOM     29  C   UNL     1       3.741   1.590  -0.982  0.00  0.00    +0.000 C 
ENDBRANCH  24  25
ENDBRANCH  23  24
ENDBRANCH  22  23
ENDBRANCH  21  22
ENDBRANCH  20  21
ENDBRANCH  19  20
ENDBRANCH   4  19
TORSDOF 8
