REMARK  Name = 
REMARK  5 active torsions:
REMARK  status: ('A' for Active; 'I' for Inactive)
REMARK    1  A    between atoms: C_19  and  C_20
REMARK    2  A    between atoms: C_23  and  O_24
REMARK    3  A    between atoms: O_24  and  C_25
REMARK    4  A    between atoms: C_25  and  C_26
REMARK    5  A    between atoms: C_26  and  N_27
REMARK                            x       y       z     vdW  Elec       q    Type
REMARK                         _______ _______ _______ _____ _____    ______ ____
ROOT
ATOM      1  O   UNL     1      -5.625  -2.857   3.631  0.00  0.00    +0.000 OA
ATOM      2  C   UNL     1      -4.782  -1.826   3.163  0.00  0.00    +0.000 A 
ATOM      3  C   UNL     1      -4.185  -0.939   4.021  0.00  0.00    +0.000 A 
ATOM      4  C   UNL     1      -3.377   0.043   3.534  0.00  0.00    +0.000 A 
ATOM      5  C   UNL     1      -3.103   0.220   2.171  0.00  0.00    +0.000 A 
ATOM      6  C   UNL     1      -3.712  -0.681   1.333  0.00  0.00    +0.000 A 
ATOM      7  C   UNL     1      -4.527  -1.673   1.818  0.00  0.00    +0.000 A 
ATOM      8  C   UNL     1      -3.419  -0.519  -0.092  0.00  0.00    +0.000 A 
ATOM      9  C   UNL     1      -4.036  -1.415  -0.950  0.00  0.00    +0.000 A 
ATOM     10  C   UNL     1      -3.855  -1.372  -2.310  0.00  0.00    +0.000 A 
ATOM     11  C   UNL     1      -3.025  -0.394  -2.824  0.00  0.00    +0.000 A 
ATOM     12  C   UNL     1      -2.823  -0.330  -4.196  0.00  0.00    +0.000 A 
ATOM     13  C   UNL     1      -2.012   0.617  -4.734  0.00  0.00    +0.000 A 
ATOM     14  O   UNL     1      -1.830   0.654  -6.118  0.00  0.00    +0.000 OA
ATOM     15  C   UNL     1      -1.396   1.511  -3.887  0.00  0.00    +0.000 A 
ATOM     16  C   UNL     1      -1.591   1.454  -2.531  0.00  0.00    +0.000 A 
ATOM     17  C   UNL     1      -2.412   0.499  -1.946  0.00  0.00    +0.000 A 
ATOM     18  C   UNL     1      -2.606   0.441  -0.587  0.00  0.00    +0.000 A 
ATOM     19  C   UNL     1      -1.874   1.471   0.333  0.00  0.00    +0.000 C 
ATOM     20  O   UNL     1      -2.322   1.172   1.691  0.00  0.00    +0.000 OA
ENDROOT
BRANCH  19  21
ATOM     21  C   UNL     1      -0.403   0.835   0.373  0.00  0.00    +0.000 A 
ATOM     22  C   UNL     1       0.096   0.075  -0.573  0.00  0.00    +0.000 A 
ATOM     23  C   UNL     1       1.368  -0.429  -0.454  0.00  0.00    +0.000 A 
ATOM     24  C   UNL     1       2.116  -0.133   0.663  0.00  0.00    +0.000 A 
ATOM     25  C   UNL     1       1.619   0.665   1.677  0.00  0.00    +0.000 A 
ATOM     26  C   UNL     1       0.312   1.145   1.489  0.00  0.00    +0.000 A 
BRANCH  24  27
ATOM     27  O   UNL     1       3.424  -0.649   0.791  0.00  0.00    +0.000 OA
BRANCH  27  28
ATOM     28  C   UNL     1       4.150  -0.332   1.927  0.00  0.00    +0.000 C 
BRANCH  28  29
ATOM     29  C   UNL     1       5.511  -0.897   2.030  0.00  0.00    +0.000 C 
BRANCH  29  30
ATOM     30  N   UNL     1       6.460  -0.582   1.050  0.00  0.00    +0.000 NA
ATOM     31  C   UNL     1       6.282  -1.077  -0.267  0.00  0.00    +0.000 C 
ATOM     32  C   UNL     1       7.660  -1.261  -0.896  0.00  0.00    +0.000 C 
ATOM     33  C   UNL     1       8.347   0.068  -0.928  0.00  0.00    +0.000 C 
ATOM     34  C   UNL     1       8.437   0.702   0.419  0.00  0.00    +0.000 C 
ATOM     35  C   UNL     1       7.132   0.673   1.178  0.00  0.00    +0.000 C 
ENDBRANCH  29  30
ENDBRANCH  28  29
ENDBRANCH  27  28
ENDBRANCH  24  27
ENDBRANCH  19  21
TORSDOF 5
