REMARK  Name = 
REMARK  5 active torsions:
REMARK  status: ('A' for Active; 'I' for Inactive)
REMARK    1  A    between atoms: C_8  and  C_9
REMARK    2  A    between atoms: C_11  and  C_12
REMARK    3  A    between atoms: N_20  and  C_22
REMARK    4  A    between atoms: C_22  and  C_23
REMARK    5  A    between atoms: C_23  and  C_24
REMARK                            x       y       z     vdW  Elec       q    Type
REMARK                         _______ _______ _______ _____ _____    ______ ____
ROOT
ATOM      1  C   UNL     1      -1.592   0.769  -0.017  0.00  0.00    +0.000 A 
ATOM      2  C   UNL     1      -2.174  -0.478  -0.054  0.00  0.00    +0.000 A 
ATOM      3  C   UNL     1      -1.438  -1.618   0.162  0.00  0.00    +0.000 A 
ATOM      4  C   UNL     1      -0.097  -1.475   0.418  0.00  0.00    +0.000 A 
ATOM      5  C   UNL     1       0.479  -0.237   0.455  0.00  0.00    +0.000 A 
ATOM      6  N   UNL     1       1.887  -0.052   0.727  0.00  0.00    +0.000 N 
ATOM      7  C   UNL     1       2.430   1.272   0.713  0.00  0.00    +0.000 C 
ATOM      8  N   UNL     1      -0.276   0.844   0.238  0.00  0.00    +0.000 NA
ENDROOT
BRANCH   1  16
ATOM      9  C   UNL     1      -0.363   3.300   0.159  0.00  0.00    +0.000 C 
ATOM     10  C   UNL     1      -1.808   3.233  -0.156  0.00  0.00    +0.000 A 
ATOM     11  C   UNL     1      -2.587   4.368  -0.366  0.00  0.00    +0.000 A 
ATOM     12  C   UNL     1      -3.927   4.319  -0.656  0.00  0.00    +0.000 A 
ATOM     13  O   UNL     1      -4.717   5.447  -0.868  0.00  0.00    +0.000 OA
ATOM     14  C   UNL     1      -4.509   3.049  -0.740  0.00  0.00    +0.000 A 
ATOM     15  C   UNL     1      -3.734   1.925  -0.532  0.00  0.00    +0.000 A 
ATOM     16  C   UNL     1      -2.392   1.988  -0.241  0.00  0.00    +0.000 A 
ENDBRANCH   1  16
BRANCH   3  17
ATOM     17  C   UNL     1      -2.091  -2.912   0.115  0.00  0.00    +0.000 A 
ATOM     18  C   UNL     1      -3.161  -3.042  -0.755  0.00  0.00    +0.000 A 
ATOM     19  C   UNL     1      -3.820  -4.255  -0.843  0.00  0.00    +0.000 A 
ATOM     20  C   UNL     1      -3.381  -5.293  -0.054  0.00  0.00    +0.000 A 
ATOM     21  C   UNL     1      -2.310  -5.164   0.816  0.00  0.00    +0.000 A 
ATOM     22  C   UNL     1      -1.653  -3.955   0.904  0.00  0.00    +0.000 A 
ENDBRANCH   3  17
BRANCH   6  23
ATOM     23  C   UNL     1       2.653  -1.216   1.003  0.00  0.00    +0.000 C 
BRANCH  23  24
ATOM     24  C   UNL     1       3.643  -1.602  -0.009  0.00  0.00    +0.000 C 
BRANCH  24  25
ATOM     25  C   UNL     1       4.755  -0.671  -0.286  0.00  0.00    +0.000 A 
ATOM     26  C   UNL     1       5.647  -1.024  -1.315  0.00  0.00    +0.000 A 
ATOM     27  C   UNL     1       6.700  -0.190  -1.575  0.00  0.00    +0.000 A 
ATOM     28  C   UNL     1       6.896   0.968  -0.857  0.00  0.00    +0.000 A 
ATOM     29  C   UNL     1       5.980   1.248   0.137  0.00  0.00    +0.000 A 
ATOM     30  N   UNL     1       4.960   0.455   0.400  0.00  0.00    +0.000 NA
ENDBRANCH  24  25
ENDBRANCH  23  24
ENDBRANCH   6  23
TORSDOF 5
