REMARK  Name = 
REMARK  7 active torsions:
REMARK  status: ('A' for Active; 'I' for Inactive)
REMARK    1  A    between atoms: C_2  and  C_3
REMARK    2  A    between atoms: C_3  and  N_4
REMARK    3  A    between atoms: N_4  and  C_5
REMARK    4  A    between atoms: N_4  and  C_12
REMARK    5  A    between atoms: C_5  and  C_6
REMARK    6  A    between atoms: C_14  and  C_15
REMARK    7  A    between atoms: C_22  and  C_23
REMARK                            x       y       z     vdW  Elec       q    Type
REMARK                         _______ _______ _______ _____ _____    ______ ____
ROOT
ATOM      1  C   UNL     1       0.873  -0.680  -0.339  0.00  0.00    +0.000 A 
ATOM      2  C   UNL     1       0.335  -1.947  -0.380  0.00  0.00    +0.000 A 
ATOM      3  C   UNL     1      -1.004  -2.187  -0.132  0.00  0.00    +0.000 A 
ATOM      4  C   UNL     1      -1.775  -1.079   0.161  0.00  0.00    +0.000 A 
ATOM      5  C   UNL     1      -1.267   0.201   0.210  0.00  0.00    +0.000 A 
ATOM      6  N   UNL     1       0.043   0.351  -0.043  0.00  0.00    +0.000 NA
ENDROOT
BRANCH   5   7
ATOM      7  C   UNL     1      -2.101   1.361   0.522  0.00  0.00    +0.000 A 
ATOM      8  C   UNL     1      -3.440   1.179   0.776  0.00  0.00    +0.000 A 
ATOM      9  C   UNL     1      -4.266   2.257   1.077  0.00  0.00    +0.000 A 
ATOM     10  C   UNL     1      -3.713   3.519   1.115  0.00  0.00    +0.000 A 
ATOM     11  O   UNL     1      -4.573   4.587   1.422  0.00  0.00    +0.000 OA
ATOM     12  C   UNL     1      -2.380   3.739   0.867  0.00  0.00    +0.000 A 
ATOM     13  C   UNL     1      -1.599   2.640   0.573  0.00  0.00    +0.000 A 
ATOM     14  C   UNL     1      -0.151   2.846   0.299  0.00  0.00    +0.000 C 
ENDBRANCH   5   7
BRANCH   3  15
ATOM     15  C   UNL     1      -1.513  -3.524  -0.186  0.00  0.00    +0.000 A 
ATOM     16  C   UNL     1      -0.706  -4.578   0.167  0.00  0.00    +0.000 A 
ATOM     17  C   UNL     1      -1.153  -5.893   0.131  0.00  0.00    +0.000 A 
ATOM     18  C   UNL     1      -2.446  -6.110  -0.276  0.00  0.00    +0.000 A 
ATOM     19  C   UNL     1      -3.295  -5.086  -0.641  0.00  0.00    +0.000 A 
ATOM     20  C   UNL     1      -2.803  -3.784  -0.588  0.00  0.00    +0.000 A 
ENDBRANCH   3  15
BRANCH   1  21
ATOM     21  N   UNL     1       2.242  -0.412  -0.588  0.00  0.00    +0.000 N 
BRANCH  21  22
ATOM     22  C   UNL     1       2.678  -0.155  -1.921  0.00  0.00    +0.000 C 
BRANCH  22  24
ATOM     23  C   UNL     1       0.494   0.776  -2.772  0.00  0.00    +0.000 C 
ATOM     24  C   UNL     1       1.606  -0.198  -2.952  0.00  0.00    +0.000 C 
ENDBRANCH  22  24
ENDBRANCH  21  22
BRANCH  21  25
ATOM     25  C   UNL     1       3.148  -0.412   0.537  0.00  0.00    +0.000 C 
BRANCH  25  26
ATOM     26  C   UNL     1       3.814   0.908   0.694  0.00  0.00    +0.000 A 
ATOM     27  C   UNL     1       5.000   1.105   0.029  0.00  0.00    +0.000 A 
ATOM     28  C   UNL     1       5.636   2.302   0.152  0.00  0.00    +0.000 A 
ATOM     29  C   UNL     1       5.101   3.310   0.933  0.00  0.00    +0.000 A 
ATOM     30  C   UNL     1       3.922   3.074   1.577  0.00  0.00    +0.000 A 
ATOM     31  N   UNL     1       3.295   1.889   1.454  0.00  0.00    +0.000 NA
ENDBRANCH  25  26
ENDBRANCH  21  25
ENDBRANCH   1  21
TORSDOF 7
