REMARK  Name = 
REMARK  6 active torsions:
REMARK  status: ('A' for Active; 'I' for Inactive)
REMARK    1  A    between atoms: C_2  and  C_3
REMARK    2  A    between atoms: C_3  and  C_4
REMARK    3  A    between atoms: C_4  and  N_5
REMARK    4  A    between atoms: N_5  and  C_7
REMARK    5  A    between atoms: C_9  and  C_10
REMARK    6  A    between atoms: C_17  and  C_18
REMARK                            x       y       z     vdW  Elec       q    Type
REMARK                         _______ _______ _______ _____ _____    ______ ____
ROOT
ATOM      1  C   UNL     1       1.525   0.081  -0.497  0.00  0.00    +0.000 A 
ATOM      2  C   UNL     1       1.260   1.427  -0.277  0.00  0.00    +0.000 A 
ATOM      3  C   UNL     1      -0.047   1.781  -0.014  0.00  0.00    +0.000 A 
ATOM      4  C   UNL     1      -1.033   0.792   0.017  0.00  0.00    +0.000 A 
ATOM      5  C   UNL     1      -0.741  -0.535  -0.206  0.00  0.00    +0.000 A 
ATOM      6  N   UNL     1       0.540  -0.854  -0.459  0.00  0.00    +0.000 NA
ENDROOT
BRANCH   5   7
ATOM      7  C   UNL     1      -1.827  -1.524  -0.166  0.00  0.00    +0.000 A 
ATOM      8  C   UNL     1      -3.116  -1.120   0.123  0.00  0.00    +0.000 A 
ATOM      9  C   UNL     1      -4.114  -2.041   0.147  0.00  0.00    +0.000 A 
ATOM     10  C   UNL     1      -3.920  -3.374  -0.102  0.00  0.00    +0.000 A 
ATOM     11  O   UNL     1      -4.998  -4.256  -0.061  0.00  0.00    +0.000 OA
ATOM     12  C   UNL     1      -2.632  -3.781  -0.390  0.00  0.00    +0.000 A 
ATOM     13  C   UNL     1      -1.600  -2.865  -0.421  0.00  0.00    +0.000 A 
ATOM     14  C   UNL     1      -0.209  -3.283  -0.726  0.00  0.00    +0.000 C 
ENDBRANCH   5   7
BRANCH   3  15
ATOM     15  C   UNL     1      -0.439   3.179   0.234  0.00  0.00    +0.000 A 
ATOM     16  C   UNL     1       0.227   4.222  -0.386  0.00  0.00    +0.000 A 
ATOM     17  C   UNL     1      -0.113   5.554  -0.176  0.00  0.00    +0.000 A 
ATOM     18  C   UNL     1      -1.155   5.823   0.686  0.00  0.00    +0.000 A 
ATOM     19  C   UNL     1      -1.851   4.810   1.330  0.00  0.00    +0.000 A 
ATOM     20  C   UNL     1      -1.477   3.489   1.090  0.00  0.00    +0.000 A 
ENDBRANCH   3  15
BRANCH   1  21
ATOM     21  N   UNL     1       2.866  -0.310  -0.777  0.00  0.00    +0.000 N 
ATOM     22  C   UNL     1       3.338  -0.437  -2.149  0.00  0.00    +0.000 C 
BRANCH  21  23
ATOM     23  C   UNL     1       3.809  -0.597   0.282  0.00  0.00    +0.000 C 
BRANCH  23  24
ATOM     24  C   UNL     1       4.149  -2.071   0.292  0.00  0.00    +0.000 C 
BRANCH  24  26
ATOM     25  C   UNL     1       6.434  -1.688   1.232  0.00  0.00    +0.000 C 
ATOM     26  C   UNL     1       5.126  -2.423   1.372  0.00  0.00    +0.000 C 
ENDBRANCH  24  26
ENDBRANCH  23  24
ENDBRANCH  21  23
ENDBRANCH   1  21
TORSDOF 6
