REMARK  Name = 
REMARK  7 active torsions:
REMARK  status: ('A' for Active; 'I' for Inactive)
REMARK    1  A    between atoms: C_2  and  C_3
REMARK    2  A    between atoms: C_2  and  C_18
REMARK    3  A    between atoms: C_6  and  O_7
REMARK    4  A    between atoms: O_7  and  C_8
REMARK    5  A    between atoms: C_8  and  C_9
REMARK    6  A    between atoms: C_9  and  N_10
REMARK    7  A    between atoms: C_19  and  C_20
REMARK                            x       y       z     vdW  Elec       q    Type
REMARK                         _______ _______ _______ _____ _____    ______ ____
ROOT
ATOM      1  C   UNL     1      -1.762   1.403  -0.315  0.00  0.00    +0.000 A 
ATOM      2  C   UNL     1      -2.987   1.146   0.243  0.00  0.00    +0.000 A 
ATOM      3  S   UNL     1      -3.455   2.676   0.841  0.00  0.00    +0.000 S 
ATOM      4  C   UNL     1      -2.095   3.593   0.372  0.00  0.00    +0.000 A 
ATOM      5  C   UNL     1      -1.712   4.940   0.504  0.00  0.00    +0.000 A 
ATOM      6  C   UNL     1      -0.498   5.389   0.004  0.00  0.00    +0.000 A 
ATOM      7  O   UNL     1      -0.054   6.687   0.093  0.00  0.00    +0.000 OA
ATOM      8  C   UNL     1       0.289   4.452  -0.614  0.00  0.00    +0.000 A 
ATOM      9  C   UNL     1      -0.069   3.156  -0.747  0.00  0.00    +0.000 A 
ATOM     10  C   UNL     1      -1.301   2.668  -0.247  0.00  0.00    +0.000 A 
ENDROOT
BRANCH   2  11
ATOM     11  C   UNL     1      -3.716  -0.130   0.303  0.00  0.00    +0.000 A 
ATOM     12  C   UNL     1      -4.984  -0.103   0.857  0.00  0.00    +0.000 A 
ATOM     13  C   UNL     1      -5.734  -1.258   0.975  0.00  0.00    +0.000 A 
ATOM     14  C   UNL     1      -5.177  -2.432   0.524  0.00  0.00    +0.000 A 
ATOM     15  C   UNL     1      -5.947  -3.577   0.652  0.00  0.00    +0.000 A 
ATOM     16  C   UNL     1      -5.451  -4.772   0.224  0.00  0.00    +0.000 A 
ATOM     17  C   UNL     1      -4.167  -4.802  -0.336  0.00  0.00    +0.000 A 
ATOM     18  C   UNL     1      -3.391  -3.685  -0.472  0.00  0.00    +0.000 A 
ATOM     19  C   UNL     1      -3.901  -2.484  -0.037  0.00  0.00    +0.000 A 
ATOM     20  C   UNL     1      -3.206  -1.304  -0.127  0.00  0.00    +0.000 A 
ENDBRANCH   2  11
BRANCH   1  22
ATOM     21  O   UNL     1      -1.538  -0.271  -1.992  0.00  0.00    +0.000 OA
ATOM     22  C   UNL     1      -1.022   0.291  -0.983  0.00  0.00    +0.000 C 
BRANCH  22  23
ATOM     23  C   UNL     1       0.266  -0.177  -0.529  0.00  0.00    +0.000 A 
ATOM     24  C   UNL     1       0.787   0.088   0.742  0.00  0.00    +0.000 A 
ATOM     25  C   UNL     1       2.039  -0.409   1.085  0.00  0.00    +0.000 A 
ATOM     26  C   UNL     1       2.808  -1.153   0.246  0.00  0.00    +0.000 A 
ATOM     27  C   UNL     1       2.293  -1.423  -1.031  0.00  0.00    +0.000 A 
ATOM     28  C   UNL     1       1.053  -0.929  -1.365  0.00  0.00    +0.000 A 
BRANCH  26  29
ATOM     29  O   UNL     1       4.070  -1.654   0.591  0.00  0.00    +0.000 OA
BRANCH  29  30
ATOM     30  C   UNL     1       4.798  -2.431  -0.364  0.00  0.00    +0.000 C 
BRANCH  30  31
ATOM     31  C   UNL     1       5.030  -1.559  -1.586  0.00  0.00    +0.000 C 
BRANCH  31  32
ATOM     32  N   UNL     1       5.812  -0.379  -1.257  0.00  0.00    +0.000 NA
ATOM     33  C   UNL     1       7.189  -0.748  -0.935  0.00  0.00    +0.000 C 
ATOM     34  C   UNL     1       7.266  -1.454   0.401  0.00  0.00    +0.000 C 
ATOM     35  C   UNL     1       6.962  -0.456   1.491  0.00  0.00    +0.000 C 
ATOM     36  C   UNL     1       6.278   0.729   0.880  0.00  0.00    +0.000 C 
ATOM     37  C   UNL     1       5.226   0.370  -0.150  0.00  0.00    +0.000 C 
ENDBRANCH  31  32
ENDBRANCH  30  31
ENDBRANCH  29  30
ENDBRANCH  26  29
ENDBRANCH  22  23
ENDBRANCH   1  22
TORSDOF 7
