REMARK  Name = 
REMARK  6 active torsions:
REMARK  status: ('A' for Active; 'I' for Inactive)
REMARK    1  A    between atoms: C_10  and  C_11
REMARK    2  A    between atoms: C_17  and  C_18
REMARK    3  A    between atoms: C_21  and  O_22
REMARK    4  A    between atoms: O_22  and  C_23
REMARK    5  A    between atoms: C_23  and  C_24
REMARK    6  A    between atoms: C_24  and  N_25
REMARK                            x       y       z     vdW  Elec       q    Type
REMARK                         _______ _______ _______ _____ _____    ______ ____
ROOT
ATOM      1  O   UNL     1      -5.249   4.699  -1.409  0.00  0.00    +0.000 OA
ATOM      2  C   UNL     1      -4.388   3.618  -1.137  0.00  0.00    +0.000 A 
ATOM      3  C   UNL     1      -3.076   3.826  -0.800  0.00  0.00    +0.000 A 
ATOM      4  C   UNL     1      -2.295   2.698  -0.545  0.00  0.00    +0.000 A 
ATOM      5  C   UNL     1      -2.825   1.445  -0.631  0.00  0.00    +0.000 A 
ATOM      6  C   UNL     1      -4.122   1.261  -0.965  0.00  0.00    +0.000 A 
ATOM      7  C   UNL     1      -4.960   2.353  -1.233  0.00  0.00    +0.000 A 
ATOM      8  C   UNL     1      -4.741  -0.073  -1.072  0.00  0.00    +0.000 C 
ATOM      9  C   UNL     1      -3.888  -1.224  -0.800  0.00  0.00    +0.000 C 
ATOM     10  C   UNL     1      -2.450  -0.936  -0.427  0.00  0.00    +0.000 C 
ATOM     11  C   UNL     1      -1.970   0.267  -0.354  0.00  0.00    +0.000 C 
ENDROOT
BRANCH  10  12
ATOM     12  C   UNL     1      -1.622  -2.118  -0.102  0.00  0.00    +0.000 A 
ATOM     13  C   UNL     1      -1.427  -3.141  -1.004  0.00  0.00    +0.000 A 
ATOM     14  C   UNL     1      -0.693  -4.263  -0.588  0.00  0.00    +0.000 A 
ATOM     15  C   UNL     1      -0.172  -4.357   0.684  0.00  0.00    +0.000 A 
ATOM     16  C   UNL     1      -0.373  -3.327   1.583  0.00  0.00    +0.000 A 
ATOM     17  C   UNL     1      -1.093  -2.245   1.147  0.00  0.00    +0.000 A 
ENDBRANCH  10  12
BRANCH  11  18
ATOM     18  C   UNL     1      -0.566   0.528  -0.031  0.00  0.00    +0.000 A 
ATOM     19  C   UNL     1       0.016   1.514  -0.871  0.00  0.00    +0.000 A 
ATOM     20  C   UNL     1       1.323   1.895  -0.692  0.00  0.00    +0.000 A 
ATOM     21  C   UNL     1       2.118   1.352   0.289  0.00  0.00    +0.000 A 
ATOM     22  C   UNL     1       1.520   0.394   1.092  0.00  0.00    +0.000 A 
ATOM     23  C   UNL     1       0.214   0.008   0.919  0.00  0.00    +0.000 A 
BRANCH  21  24
ATOM     24  O   UNL     1       3.434   1.763   0.438  0.00  0.00    +0.000 OA
BRANCH  24  25
ATOM     25  C   UNL     1       4.218   1.173   1.466  0.00  0.00    +0.000 C 
BRANCH  25  26
ATOM     26  C   UNL     1       4.271  -0.328   1.197  0.00  0.00    +0.000 C 
BRANCH  26  27
ATOM     27  N   UNL     1       4.875  -0.563  -0.100  0.00  0.00    +0.000 NA
ATOM     28  C   UNL     1       6.262  -0.236  -0.167  0.00  0.00    +0.000 C 
ATOM     29  C   UNL     1       6.905  -1.424   0.539  0.00  0.00    +0.000 C 
ATOM     30  C   UNL     1       5.991  -2.590   0.210  0.00  0.00    +0.000 C 
ATOM     31  C   UNL     1       4.762  -1.968  -0.394  0.00  0.00    +0.000 C 
ENDBRANCH  26  27
ENDBRANCH  25  26
ENDBRANCH  24  25
ENDBRANCH  21  24
ENDBRANCH  11  18
TORSDOF 6
