MODEL 1
REMARK VINA RESULT:      -5.9      0.000      0.000
REMARK  Name = 
REMARK  3 active torsions:
REMARK  status: ('A' for Active; 'I' for Inactive)
REMARK    1  A    between atoms: C_2  and  C_14
REMARK    2  A    between atoms: N_3  and  C_4
REMARK    3  A    between atoms: C_9  and  N_10
REMARK                            x       y       z     vdW  Elec       q    Type
REMARK                         _______ _______ _______ _____ _____    ______ ____
ROOT
ATOM      1  C   UNL     1      27.818  23.290  27.051  0.00  0.00    +0.000 A 
ATOM      2  C   UNL     1      29.140  23.050  27.329  0.00  0.00    +0.000 A 
ATOM      3  C   UNL     1      29.555  22.751  28.623  0.00  0.00    +0.000 A 
ATOM      4  C   UNL     1      28.660  22.685  29.671  0.00  0.00    +0.000 A 
ATOM      5 CL   UNL     1      29.187  22.305  31.313  0.00  0.00    +0.000 Cl
ATOM      6  C   UNL     1      27.333  22.926  29.389  0.00  0.00    +0.000 A 
ATOM      7  C   UNL     1      26.924  23.223  28.099  0.00  0.00    +0.000 A 
ENDROOT
BRANCH   1  10
ATOM      8  O   UNL     1      27.591  25.845  26.053  0.00  0.00    +0.000 OA
ATOM      9  C   UNL     1      27.199  24.933  25.280  0.00  0.00    +0.000 C 
ATOM     10  N   UNL     1      27.302  23.602  25.765  0.00  0.00    +0.000 NA
BRANCH   9  11
ATOM     11  C   UNL     1      26.648  25.217  23.912  0.00  0.00    +0.000 C 
ATOM     12  C   UNL     1      27.735  25.999  23.163  0.00  0.00    +0.000 C 
ATOM     13  C   UNL     1      28.987  25.117  23.263  0.00  0.00    +0.000 C 
ATOM     14  C   UNL     1      28.761  23.984  22.272  0.00  0.00    +0.000 C 
ATOM     15  C   UNL     1      27.290  23.861  21.898  0.00  0.00    +0.000 C 
ATOM     16  C   UNL     1      26.503  23.902  23.183  0.00  0.00    +0.000 C 
ENDBRANCH   9  11
ENDBRANCH   1  10
BRANCH   6  17
ATOM     17  N   UNL     1      26.392  22.864  30.449  0.00  0.00    +0.000 N 
ATOM     18  O   UNL     1      26.012  23.871  31.075  0.00  0.00    +0.000 OA
ATOM     19  O   UNL     1      25.883  21.638  30.792  0.00  0.00    +0.000 OA
ENDBRANCH   6  17
TORSDOF 3
ENDMDL
MODEL 2
REMARK VINA RESULT:      -5.9     18.751     21.115
REMARK  Name = 
REMARK  3 active torsions:
REMARK  status: ('A' for Active; 'I' for Inactive)
REMARK    1  A    between atoms: C_2  and  C_14
REMARK    2  A    between atoms: N_3  and  C_4
REMARK    3  A    between atoms: C_9  and  N_10
REMARK                            x       y       z     vdW  Elec       q    Type
REMARK                         _______ _______ _______ _____ _____    ______ ____
ROOT
ATOM      1  C   UNL     1      17.529   9.746  36.392  0.00  0.00    +0.000 A 
ATOM      2  C   UNL     1      18.067   9.614  35.137  0.00  0.00    +0.000 A 
ATOM      3  C   UNL     1      17.526  10.300  34.053  0.00  0.00    +0.000 A 
ATOM      4  C   UNL     1      16.437  11.134  34.197  0.00  0.00    +0.000 A 
ATOM      5 CL   UNL     1      15.752  12.004  32.823  0.00  0.00    +0.000 Cl
ATOM      6  C   UNL     1      15.899  11.265  35.460  0.00  0.00    +0.000 A 
ATOM      7  C   UNL     1      16.441  10.580  36.536  0.00  0.00    +0.000 A 
ENDROOT
BRANCH   1  10
ATOM      8  O   UNL     1      18.998  10.975  38.371  0.00  0.00    +0.000 OA
ATOM      9  C   UNL     1      18.767   9.752  38.558  0.00  0.00    +0.000 C 
ATOM     10  N   UNL     1      18.012   9.087  37.556  0.00  0.00    +0.000 NA
BRANCH   9  11
ATOM     11  C   UNL     1      19.256   9.016  39.773  0.00  0.00    +0.000 C 
ATOM     12  C   UNL     1      18.561   9.663  40.978  0.00  0.00    +0.000 C 
ATOM     13  C   UNL     1      17.063   9.590  40.649  0.00  0.00    +0.000 C 
ATOM     14  C   UNL     1      16.672   8.137  40.880  0.00  0.00    +0.000 C 
ATOM     15  C   UNL     1      17.896   7.230  40.898  0.00  0.00    +0.000 C 
ATOM     16  C   UNL     1      18.737   7.599  39.703  0.00  0.00    +0.000 C 
ENDBRANCH   9  11
ENDBRANCH   1  10
BRANCH   6  17
ATOM     17  N   UNL     1      14.778  12.116  35.635  0.00  0.00    +0.000 N 
ATOM     18  O   UNL     1      14.777  13.312  35.290  0.00  0.00    +0.000 OA
ATOM     19  O   UNL     1      13.651  11.589  36.211  0.00  0.00    +0.000 OA
ENDBRANCH   6  17
TORSDOF 3
ENDMDL
MODEL 3
REMARK VINA RESULT:      -5.8     31.855     32.685
REMARK  Name = 
REMARK  3 active torsions:
REMARK  status: ('A' for Active; 'I' for Inactive)
REMARK    1  A    between atoms: C_2  and  C_14
REMARK    2  A    between atoms: N_3  and  C_4
REMARK    3  A    between atoms: C_9  and  N_10
REMARK                            x       y       z     vdW  Elec       q    Type
REMARK                         _______ _______ _______ _____ _____    ______ ____
ROOT
ATOM      1  C   UNL     1      20.651  -8.394  25.478  0.00  0.00    +0.000 A 
ATOM      2  C   UNL     1      20.964  -9.274  26.483  0.00  0.00    +0.000 A 
ATOM      3  C   UNL     1      20.103  -9.465  27.559  0.00  0.00    +0.000 A 
ATOM      4  C   UNL     1      18.908  -8.783  27.657  0.00  0.00    +0.000 A 
ATOM      5 CL   UNL     1      17.815  -9.027  29.022  0.00  0.00    +0.000 Cl
ATOM      6  C   UNL     1      18.595  -7.900  26.647  0.00  0.00    +0.000 A 
ATOM      7  C   UNL     1      19.456  -7.713  25.577  0.00  0.00    +0.000 A 
ENDROOT
BRANCH   1  10
ATOM      8  O   UNL     1      22.750  -6.613  25.457  0.00  0.00    +0.000 OA
ATOM      9  C   UNL     1      22.542  -7.206  24.367  0.00  0.00    +0.000 C 
ATOM     10  N   UNL     1      21.465  -8.132  24.343  0.00  0.00    +0.000 NA
BRANCH   9  11
ATOM     11  C   UNL     1      23.379  -6.961  23.143  0.00  0.00    +0.000 C 
ATOM     12  C   UNL     1      24.803  -7.408  23.499  0.00  0.00    +0.000 C 
ATOM     13  C   UNL     1      24.648  -8.855  23.985  0.00  0.00    +0.000 C 
ATOM     14  C   UNL     1      24.431  -9.681  22.724  0.00  0.00    +0.000 C 
ATOM     15  C   UNL     1      24.003  -8.803  21.555  0.00  0.00    +0.000 C 
ATOM     16  C   UNL     1      22.906  -7.900  22.058  0.00  0.00    +0.000 C 
ENDBRANCH   9  11
ENDBRANCH   1  10
BRANCH   6  17
ATOM     17  N   UNL     1      17.372  -7.185  26.724  0.00  0.00    +0.000 N 
ATOM     18  O   UNL     1      17.278  -6.064  27.257  0.00  0.00    +0.000 OA
ATOM     19  O   UNL     1      16.251  -7.762  26.184  0.00  0.00    +0.000 OA
ENDBRANCH   6  17
TORSDOF 3
ENDMDL
MODEL 4
REMARK VINA RESULT:      -5.7      1.069      1.812
REMARK  Name = 
REMARK  3 active torsions:
REMARK  status: ('A' for Active; 'I' for Inactive)
REMARK    1  A    between atoms: C_2  and  C_14
REMARK    2  A    between atoms: N_3  and  C_4
REMARK    3  A    between atoms: C_9  and  N_10
REMARK                            x       y       z     vdW  Elec       q    Type
REMARK                         _______ _______ _______ _____ _____    ______ ____
ROOT
ATOM      1  C   UNL     1      28.474  22.550  27.277  0.00  0.00    +0.000 A 
ATOM      2  C   UNL     1      29.736  22.661  27.805  0.00  0.00    +0.000 A 
ATOM      3  C   UNL     1      29.927  22.781  29.178  0.00  0.00    +0.000 A 
ATOM      4  C   UNL     1      28.865  22.791  30.057  0.00  0.00    +0.000 A 
ATOM      5 CL   UNL     1      29.108  22.941  31.799  0.00  0.00    +0.000 Cl
ATOM      6  C   UNL     1      27.598  22.678  29.524  0.00  0.00    +0.000 A 
ATOM      7  C   UNL     1      27.412  22.560  28.156  0.00  0.00    +0.000 A 
ENDROOT
BRANCH   1  10
ATOM      8  O   UNL     1      29.350  24.305  25.345  0.00  0.00    +0.000 OA
ATOM      9  C   UNL     1      28.650  23.349  24.921  0.00  0.00    +0.000 C 
ATOM     10  N   UNL     1      28.181  22.425  25.892  0.00  0.00    +0.000 NA
BRANCH   9  11
ATOM     11  C   UNL     1      28.317  23.178  23.466  0.00  0.00    +0.000 C 
ATOM     12  C   UNL     1      26.825  23.509  23.324  0.00  0.00    +0.000 C 
ATOM     13  C   UNL     1      26.677  24.910  23.933  0.00  0.00    +0.000 C 
ATOM     14  C   UNL     1      27.249  25.863  22.893  0.00  0.00    +0.000 C 
ATOM     15  C   UNL     1      28.131  25.126  21.893  0.00  0.00    +0.000 C 
ATOM     16  C   UNL     1      29.056  24.241  22.688  0.00  0.00    +0.000 C 
ENDBRANCH   9  11
ENDBRANCH   1  10
BRANCH   6  17
ATOM     17  N   UNL     1      26.487  22.686  30.407  0.00  0.00    +0.000 N 
ATOM     18  O   UNL     1      25.954  21.645  30.831  0.00  0.00    +0.000 OA
ATOM     19  O   UNL     1      25.987  23.900  30.803  0.00  0.00    +0.000 OA
ENDBRANCH   6  17
TORSDOF 3
ENDMDL
MODEL 5
REMARK VINA RESULT:      -5.7     27.744     29.507
REMARK  Name = 
REMARK  3 active torsions:
REMARK  status: ('A' for Active; 'I' for Inactive)
REMARK    1  A    between atoms: C_2  and  C_14
REMARK    2  A    between atoms: N_3  and  C_4
REMARK    3  A    between atoms: C_9  and  N_10
REMARK                            x       y       z     vdW  Elec       q    Type
REMARK                         _______ _______ _______ _____ _____    ______ ____
ROOT
ATOM      1  C   UNL     1      33.853  -4.513  33.667  0.00  0.00    +0.000 A 
ATOM      2  C   UNL     1      34.576  -4.660  34.824  0.00  0.00    +0.000 A 
ATOM      3  C   UNL     1      34.962  -3.550  35.570  0.00  0.00    +0.000 A 
ATOM      4  C   UNL     1      34.636  -2.268  35.178  0.00  0.00    +0.000 A 
ATOM      5 CL   UNL     1      35.126  -0.861  36.124  0.00  0.00    +0.000 Cl
ATOM      6  C   UNL     1      33.911  -2.124  34.015  0.00  0.00    +0.000 A 
ATOM      7  C   UNL     1      33.528  -3.232  33.276  0.00  0.00    +0.000 A 
ENDROOT
BRANCH   1  10
ATOM      8  O   UNL     1      35.400  -5.702  31.723  0.00  0.00    +0.000 OA
ATOM      9  C   UNL     1      34.241  -6.175  31.847  0.00  0.00    +0.000 C 
ATOM     10  N   UNL     1      33.416  -5.584  32.841  0.00  0.00    +0.000 NA
BRANCH   9  11
ATOM     11  C   UNL     1      33.738  -7.307  30.997  0.00  0.00    +0.000 C 
ATOM     12  C   UNL     1      32.467  -6.796  30.307  0.00  0.00    +0.000 C 
ATOM     13  C   UNL     1      32.900  -5.505  29.599  0.00  0.00    +0.000 C 
ATOM     14  C   UNL     1      33.686  -5.961  28.377  0.00  0.00    +0.000 C 
ATOM     15  C   UNL     1      34.141  -7.408  28.521  0.00  0.00    +0.000 C 
ATOM     16  C   UNL     1      34.743  -7.548  29.895  0.00  0.00    +0.000 C 
ENDBRANCH   9  11
ENDBRANCH   1  10
BRANCH   6  17
ATOM     17  N   UNL     1      33.563  -0.816  33.589  0.00  0.00    +0.000 N 
ATOM     18  O   UNL     1      34.199  -0.200  32.714  0.00  0.00    +0.000 OA
ATOM     19  O   UNL     1      32.479  -0.213  34.172  0.00  0.00    +0.000 OA
ENDBRANCH   6  17
TORSDOF 3
ENDMDL
MODEL 6
REMARK VINA RESULT:      -5.7     14.496     16.816
REMARK  Name = 
REMARK  3 active torsions:
REMARK  status: ('A' for Active; 'I' for Inactive)
REMARK    1  A    between atoms: C_2  and  C_14
REMARK    2  A    between atoms: N_3  and  C_4
REMARK    3  A    between atoms: C_9  and  N_10
REMARK                            x       y       z     vdW  Elec       q    Type
REMARK                         _______ _______ _______ _____ _____    ______ ____
ROOT
ATOM      1  C   UNL     1      30.131  22.088  11.302  0.00  0.00    +0.000 A 
ATOM      2  C   UNL     1      30.548  22.766  12.420  0.00  0.00    +0.000 A 
ATOM      3  C   UNL     1      29.634  23.427  13.236  0.00  0.00    +0.000 A 
ATOM      4  C   UNL     1      28.284  23.427  12.955  0.00  0.00    +0.000 A 
ATOM      5 CL   UNL     1      27.125  24.266  13.990  0.00  0.00    +0.000 Cl
ATOM      6  C   UNL     1      27.868  22.745  11.832  0.00  0.00    +0.000 A 
ATOM      7  C   UNL     1      28.781  22.088  11.022  0.00  0.00    +0.000 A 
ENDROOT
BRANCH   1  10
ATOM      8  O   UNL     1      30.921  23.039   8.842  0.00  0.00    +0.000 OA
ATOM      9  C   UNL     1      31.377  21.906   9.149  0.00  0.00    +0.000 C 
ATOM     10  N   UNL     1      30.988  21.386  10.412  0.00  0.00    +0.000 NA
BRANCH   9  11
ATOM     11  C   UNL     1      32.286  21.130   8.239  0.00  0.00    +0.000 C 
ATOM     12  C   UNL     1      33.481  22.044   7.942  0.00  0.00    +0.000 C 
ATOM     13  C   UNL     1      34.019  22.444   9.323  0.00  0.00    +0.000 C 
ATOM     14  C   UNL     1      34.759  21.217   9.837  0.00  0.00    +0.000 C 
ATOM     15  C   UNL     1      34.345  19.962   9.078  0.00  0.00    +0.000 C 
ATOM     16  C   UNL     1      32.839  19.959   9.018  0.00  0.00    +0.000 C 
ENDBRANCH   9  11
ENDBRANCH   1  10
BRANCH   6  17
ATOM     17  N   UNL     1      26.484  22.731  11.519  0.00  0.00    +0.000 N 
ATOM     18  O   UNL     1      25.898  23.699  11.002  0.00  0.00    +0.000 OA
ATOM     19  O   UNL     1      25.770  21.595  11.803  0.00  0.00    +0.000 OA
ENDBRANCH   6  17
TORSDOF 3
ENDMDL
MODEL 7
REMARK VINA RESULT:      -5.6     14.650     17.436
REMARK  Name = 
REMARK  3 active torsions:
REMARK  status: ('A' for Active; 'I' for Inactive)
REMARK    1  A    between atoms: C_2  and  C_14
REMARK    2  A    between atoms: N_3  and  C_4
REMARK    3  A    between atoms: C_9  and  N_10
REMARK                            x       y       z     vdW  Elec       q    Type
REMARK                         _______ _______ _______ _____ _____    ______ ____
ROOT
ATOM      1  C   UNL     1      30.418  21.568  11.045  0.00  0.00    +0.000 A 
ATOM      2  C   UNL     1      30.988  22.072  12.187  0.00  0.00    +0.000 A 
ATOM      3  C   UNL     1      30.229  22.797  13.102  0.00  0.00    +0.000 A 
ATOM      4  C   UNL     1      28.886  23.034  12.899  0.00  0.00    +0.000 A 
ATOM      5 CL   UNL     1      27.925  23.952  14.061  0.00  0.00    +0.000 Cl
ATOM      6  C   UNL     1      28.317  22.526  11.751  0.00  0.00    +0.000 A 
ATOM      7  C   UNL     1      29.075  21.805  10.843  0.00  0.00    +0.000 A 
ENDROOT
BRANCH   1  10
ATOM      8  O   UNL     1      31.912  22.686   9.020  0.00  0.00    +0.000 OA
ATOM      9  C   UNL     1      31.873  21.429   9.023  0.00  0.00    +0.000 C 
ATOM     10  N   UNL     1      31.111  20.819  10.055  0.00  0.00    +0.000 NA
BRANCH   9  11
ATOM     11  C   UNL     1      32.590  20.597   7.997  0.00  0.00    +0.000 C 
ATOM     12  C   UNL     1      31.503  19.878   7.189  0.00  0.00    +0.000 C 
ATOM     13  C   UNL     1      30.583  20.999   6.688  0.00  0.00    +0.000 C 
ATOM     14  C   UNL     1      31.345  21.666   5.551  0.00  0.00    +0.000 C 
ATOM     15  C   UNL     1      32.829  21.329   5.607  0.00  0.00    +0.000 C 
ATOM     16  C   UNL     1      33.276  21.535   7.031  0.00  0.00    +0.000 C 
ENDBRANCH   9  11
ENDBRANCH   1  10
BRANCH   6  17
ATOM     17  N   UNL     1      26.937  22.757  11.518  0.00  0.00    +0.000 N 
ATOM     18  O   UNL     1      26.107  21.836  11.406  0.00  0.00    +0.000 OA
ATOM     19  O   UNL     1      26.508  24.055  11.413  0.00  0.00    +0.000 OA
ENDBRANCH   6  17
TORSDOF 3
ENDMDL
MODEL 8
REMARK VINA RESULT:      -5.5     21.261     23.391
REMARK  Name = 
REMARK  3 active torsions:
REMARK  status: ('A' for Active; 'I' for Inactive)
REMARK    1  A    between atoms: C_2  and  C_14
REMARK    2  A    between atoms: N_3  and  C_4
REMARK    3  A    between atoms: C_9  and  N_10
REMARK                            x       y       z     vdW  Elec       q    Type
REMARK                         _______ _______ _______ _____ _____    ______ ____
ROOT
ATOM      1  C   UNL     1      33.718   3.632  34.544  0.00  0.00    +0.000 A 
ATOM      2  C   UNL     1      33.731   3.248  33.227  0.00  0.00    +0.000 A 
ATOM      3  C   UNL     1      33.767   1.902  32.876  0.00  0.00    +0.000 A 
ATOM      4  C   UNL     1      33.791   0.907  33.831  0.00  0.00    +0.000 A 
ATOM      5 CL   UNL     1      33.836  -0.801  33.386  0.00  0.00    +0.000 Cl
ATOM      6  C   UNL     1      33.777   1.295  35.154  0.00  0.00    +0.000 A 
ATOM      7  C   UNL     1      33.741   2.637  35.498  0.00  0.00    +0.000 A 
ENDROOT
BRANCH   1  10
ATOM      8  O   UNL     1      35.954   5.143  35.087  0.00  0.00    +0.000 OA
ATOM      9  C   UNL     1      34.856   5.730  35.268  0.00  0.00    +0.000 C 
ATOM     10  N   UNL     1      33.681   4.978  34.997  0.00  0.00    +0.000 NA
BRANCH   9  11
ATOM     11  C   UNL     1      34.771   7.152  35.745  0.00  0.00    +0.000 C 
ATOM     12  C   UNL     1      34.176   7.098  37.158  0.00  0.00    +0.000 C 
ATOM     13  C   UNL     1      35.090   6.136  37.929  0.00  0.00    +0.000 C 
ATOM     14  C   UNL     1      36.357   6.930  38.217  0.00  0.00    +0.000 C 
ATOM     15  C   UNL     1      36.467   8.147  37.308  0.00  0.00    +0.000 C 
ATOM     16  C   UNL     1      36.179   7.677  35.905  0.00  0.00    +0.000 C 
ENDBRANCH   9  11
ENDBRANCH   1  10
BRANCH   6  17
ATOM     17  N   UNL     1      33.802   0.292  36.156  0.00  0.00    +0.000 N 
ATOM     18  O   UNL     1      32.768  -0.203  36.642  0.00  0.00    +0.000 OA
ATOM     19  O   UNL     1      35.022  -0.145  36.603  0.00  0.00    +0.000 OA
ENDBRANCH   6  17
TORSDOF 3
ENDMDL
MODEL 9
REMARK VINA RESULT:      -5.3      3.194      6.789
REMARK  Name = 
REMARK  3 active torsions:
REMARK  status: ('A' for Active; 'I' for Inactive)
REMARK    1  A    between atoms: C_2  and  C_14
REMARK    2  A    between atoms: N_3  and  C_4
REMARK    3  A    between atoms: C_9  and  N_10
REMARK                            x       y       z     vdW  Elec       q    Type
REMARK                         _______ _______ _______ _____ _____    ______ ____
ROOT
ATOM      1  C   UNL     1      27.501  23.597  25.846  0.00  0.00    +0.000 A 
ATOM      2  C   UNL     1      26.317  23.043  25.428  0.00  0.00    +0.000 A 
ATOM      3  C   UNL     1      25.940  23.091  24.089  0.00  0.00    +0.000 A 
ATOM      4  C   UNL     1      26.735  23.692  23.136  0.00  0.00    +0.000 A 
ATOM      5 CL   UNL     1      26.256  23.752  21.438  0.00  0.00    +0.000 Cl
ATOM      6  C   UNL     1      27.923  24.248  23.559  0.00  0.00    +0.000 A 
ATOM      7  C   UNL     1      28.295  24.198  24.893  0.00  0.00    +0.000 A 
ENDROOT
BRANCH   1  10
ATOM      8  O   UNL     1      26.757  25.448  27.744  0.00  0.00    +0.000 OA
ATOM      9  C   UNL     1      27.563  24.569  28.143  0.00  0.00    +0.000 C 
ATOM     10  N   UNL     1      27.968  23.598  27.188  0.00  0.00    +0.000 NA
BRANCH   9  11
ATOM     11  C   UNL     1      28.082  24.530  29.552  0.00  0.00    +0.000 C 
ATOM     12  C   UNL     1      26.866  24.273  30.451  0.00  0.00    +0.000 C 
ATOM     13  C   UNL     1      26.227  22.997  29.888  0.00  0.00    +0.000 C 
ATOM     14  C   UNL     1      27.128  21.859  30.347  0.00  0.00    +0.000 C 
ATOM     15  C   UNL     1      28.498  22.375  30.771  0.00  0.00    +0.000 C 
ATOM     16  C   UNL     1      28.969  23.315  29.692  0.00  0.00    +0.000 C 
ENDBRANCH   9  11
ENDBRANCH   1  10
BRANCH   6  17
ATOM     17  N   UNL     1      28.759  24.874  22.599  0.00  0.00    +0.000 N 
ATOM     18  O   UNL     1      28.705  26.092  22.347  0.00  0.00    +0.000 OA
ATOM     19  O   UNL     1      29.664  24.095  21.924  0.00  0.00    +0.000 OA
ENDBRANCH   6  17
TORSDOF 3
ENDMDL
MODEL 10
REMARK VINA RESULT:      -5.3     18.593     21.091
REMARK  Name = 
REMARK  3 active torsions:
REMARK  status: ('A' for Active; 'I' for Inactive)
REMARK    1  A    between atoms: C_2  and  C_14
REMARK    2  A    between atoms: N_3  and  C_4
REMARK    3  A    between atoms: C_9  and  N_10
REMARK                            x       y       z     vdW  Elec       q    Type
REMARK                         _______ _______ _______ _____ _____    ______ ____
ROOT
ATOM      1  C   UNL     1      18.966   9.288  38.888  0.00  0.00    +0.000 A 
ATOM      2  C   UNL     1      17.795   9.994  39.002  0.00  0.00    +0.000 A 
ATOM      3  C   UNL     1      16.803   9.592  39.891  0.00  0.00    +0.000 A 
ATOM      4  C   UNL     1      16.955   8.476  40.686  0.00  0.00    +0.000 A 
ATOM      5 CL   UNL     1      15.696   7.966  41.814  0.00  0.00    +0.000 Cl
ATOM      6  C   UNL     1      18.132   7.768  40.570  0.00  0.00    +0.000 A 
ATOM      7  C   UNL     1      19.118   8.172  39.684  0.00  0.00    +0.000 A 
ENDROOT
BRANCH   1  10
ATOM      8  O   UNL     1      20.771  11.316  39.346  0.00  0.00    +0.000 OA
ATOM      9  C   UNL     1      20.948  10.674  38.278  0.00  0.00    +0.000 C 
ATOM     10  N   UNL     1      20.033   9.621  38.011  0.00  0.00    +0.000 NA
BRANCH   9  11
ATOM     11  C   UNL     1      22.063  10.991  37.322  0.00  0.00    +0.000 C 
ATOM     12  C   UNL     1      23.339  11.090  38.168  0.00  0.00    +0.000 C 
ATOM     13  C   UNL     1      23.406   9.761  38.932  0.00  0.00    +0.000 C 
ATOM     14  C   UNL     1      23.859   8.730  37.907  0.00  0.00    +0.000 C 
ATOM     15  C   UNL     1      23.652   9.236  36.485  0.00  0.00    +0.000 C 
ATOM     16  C   UNL     1      22.255   9.798  36.415  0.00  0.00    +0.000 C 
ENDBRANCH   9  11
ENDBRANCH   1  10
BRANCH   6  17
ATOM     17  N   UNL     1      18.314   6.615  41.377  0.00  0.00    +0.000 N 
ATOM     18  O   UNL     1      17.987   5.473  41.006  0.00  0.00    +0.000 OA
ATOM     19  O   UNL     1      18.876   6.777  42.617  0.00  0.00    +0.000 OA
ENDBRANCH   6  17
TORSDOF 3
ENDMDL
