MODEL 1
REMARK VINA RESULT:      -8.7      0.000      0.000
REMARK  Name = 
REMARK  2 active torsions:
REMARK  status: ('A' for Active; 'I' for Inactive)
REMARK    1  A    between atoms: C_6  and  C_7
REMARK    2  A    between atoms: C_7  and  C_8
REMARK                            x       y       z     vdW  Elec       q    Type
REMARK                         _______ _______ _______ _____ _____    ______ ____
ROOT
ATOM      1  C   UNL     1      15.978  10.562  36.309  0.00  0.00    +0.000 C 
ATOM      2  C   UNL     1      14.717  11.412  36.904  0.00  0.00    +0.000 C 
ATOM      3  C   UNL     1      14.967  12.857  36.661  0.00  0.00    +0.000 C 
ATOM      4  C   UNL     1      14.613  13.074  35.232  0.00  0.00    +0.000 A 
ATOM      5  C   UNL     1      13.725  13.991  34.779  0.00  0.00    +0.000 A 
ATOM      6  C   UNL     1      13.508  14.070  33.419  0.00  0.00    +0.000 A 
ATOM      7  C   UNL     1      14.189  13.229  32.551  0.00  0.00    +0.000 A 
ATOM      8  C   UNL     1      13.997  13.283  31.170  0.00  0.00    +0.000 A 
ATOM      9  C   UNL     1      14.709  12.415  30.347  0.00  0.00    +0.000 A 
ATOM     10  C   UNL     1      15.605  11.495  30.841  0.00  0.00    +0.000 A 
ATOM     11  C   UNL     1      15.805  11.429  32.208  0.00  0.00    +0.000 A 
ATOM     12  C   UNL     1      15.086  12.300  32.991  0.00  0.00    +0.000 A 
ATOM     13  C   UNL     1      15.287  12.240  34.381  0.00  0.00    +0.000 A 
ATOM     14  C   UNL     1      16.203  11.307  34.939  0.00  0.00    +0.000 C 
ATOM     15  O   UNL     1      17.270  11.027  34.333  0.00  0.00    +0.000 OA
ENDROOT
BRANCH   1  16
ATOM     16  C   UNL     1      17.099  11.427  37.146  0.00  0.00    +0.000 C 
BRANCH  16  22
ATOM     17  C   UNL     1      19.729   9.719  36.588  0.00  0.00    +0.000 C 
ATOM     18  C   UNL     1      18.823   9.592  37.750  0.00  0.00    +0.000 A 
ATOM     19  N   UNL     1      18.932   8.740  38.785  0.00  0.00    +0.000 NA
ATOM     20  C   UNL     1      17.903   8.950  39.628  0.00  0.00    +0.000 A 
ATOM     21  N   UNL     1      17.154   9.934  39.112  0.00  0.00    +0.000 NA
ATOM     22  C   UNL     1      17.708  10.333  37.964  0.00  0.00    +0.000 A 
ENDBRANCH  16  22
ENDBRANCH   1  16
TORSDOF 2
ENDMDL
MODEL 2
REMARK VINA RESULT:      -7.9      2.780      6.655
REMARK  Name = 
REMARK  2 active torsions:
REMARK  status: ('A' for Active; 'I' for Inactive)
REMARK    1  A    between atoms: C_6  and  C_7
REMARK    2  A    between atoms: C_7  and  C_8
REMARK                            x       y       z     vdW  Elec       q    Type
REMARK                         _______ _______ _______ _____ _____    ______ ____
ROOT
ATOM      1  C   UNL     1      16.024  12.397  34.798  0.00  0.00    +0.000 C 
ATOM      2  C   UNL     1      14.876  12.951  35.819  0.00  0.00    +0.000 C 
ATOM      3  C   UNL     1      14.079  11.793  36.305  0.00  0.00    +0.000 C 
ATOM      4  C   UNL     1      14.915  11.171  37.368  0.00  0.00    +0.000 A 
ATOM      5  C   UNL     1      14.510  10.935  38.639  0.00  0.00    +0.000 A 
ATOM      6  C   UNL     1      15.407  10.345  39.507  0.00  0.00    +0.000 A 
ATOM      7  C   UNL     1      16.680  10.009  39.077  0.00  0.00    +0.000 A 
ATOM      8  C   UNL     1      17.611   9.410  39.926  0.00  0.00    +0.000 A 
ATOM      9  C   UNL     1      18.876   9.091  39.438  0.00  0.00    +0.000 A 
ATOM     10  C   UNL     1      19.254   9.345  38.140  0.00  0.00    +0.000 A 
ATOM     11  C   UNL     1      18.342   9.940  37.286  0.00  0.00    +0.000 A 
ATOM     12  C   UNL     1      17.103  10.240  37.800  0.00  0.00    +0.000 A 
ATOM     13  C   UNL     1      16.171  10.842  36.937  0.00  0.00    +0.000 A 
ATOM     14  C   UNL     1      16.514  11.123  35.586  0.00  0.00    +0.000 C 
ATOM     15  O   UNL     1      17.255  10.335  34.944  0.00  0.00    +0.000 OA
ENDROOT
BRANCH   1  16
ATOM     16  C   UNL     1      14.947  11.591  33.850  0.00  0.00    +0.000 C 
BRANCH  16  22
ATOM     17  C   UNL     1      13.523  14.155  32.606  0.00  0.00    +0.000 C 
ATOM     18  C   UNL     1      14.608  13.362  31.990  0.00  0.00    +0.000 A 
ATOM     19  N   UNL     1      15.199  13.566  30.800  0.00  0.00    +0.000 NA
ATOM     20  C   UNL     1      16.140  12.622  30.616  0.00  0.00    +0.000 A 
ATOM     21  N   UNL     1      16.132  11.828  31.696  0.00  0.00    +0.000 NA
ATOM     22  C   UNL     1      15.199  12.273  32.542  0.00  0.00    +0.000 A 
ENDBRANCH  16  22
ENDBRANCH   1  16
TORSDOF 2
ENDMDL
MODEL 3
REMARK VINA RESULT:      -7.8      1.383      2.934
REMARK  Name = 
REMARK  2 active torsions:
REMARK  status: ('A' for Active; 'I' for Inactive)
REMARK    1  A    between atoms: C_6  and  C_7
REMARK    2  A    between atoms: C_7  and  C_8
REMARK                            x       y       z     vdW  Elec       q    Type
REMARK                         _______ _______ _______ _____ _____    ______ ____
ROOT
ATOM      1  C   UNL     1      17.285  11.406  36.501  0.00  0.00    +0.000 C 
ATOM      2  C   UNL     1      18.122  10.706  35.286  0.00  0.00    +0.000 C 
ATOM      3  C   UNL     1      17.215   9.777  34.562  0.00  0.00    +0.000 C 
ATOM      4  C   UNL     1      16.398  10.650  33.676  0.00  0.00    +0.000 A 
ATOM      5  C   UNL     1      16.279  10.505  32.334  0.00  0.00    +0.000 A 
ATOM      6  C   UNL     1      15.478  11.398  31.653  0.00  0.00    +0.000 A 
ATOM      7  C   UNL     1      14.818  12.409  32.335  0.00  0.00    +0.000 A 
ATOM      8  C   UNL     1      13.998  13.327  31.680  0.00  0.00    +0.000 A 
ATOM      9  C   UNL     1      13.359  14.321  32.417  0.00  0.00    +0.000 A 
ATOM     10  C   UNL     1      13.502  14.439  33.780  0.00  0.00    +0.000 A 
ATOM     11  C   UNL     1      14.312  13.536  34.444  0.00  0.00    +0.000 A 
ATOM     12  C   UNL     1      14.928  12.568  33.686  0.00  0.00    +0.000 A 
ATOM     13  C   UNL     1      15.751  11.645  34.355  0.00  0.00    +0.000 A 
ATOM     14  C   UNL     1      15.928  11.726  35.764  0.00  0.00    +0.000 C 
ATOM     15  O   UNL     1      14.973  12.072  36.504  0.00  0.00    +0.000 OA
ENDROOT
BRANCH   1  16
ATOM     16  C   UNL     1      16.787   9.970  37.132  0.00  0.00    +0.000 C 
BRANCH  16  22
ATOM     17  C   UNL     1      16.163   9.609  40.235  0.00  0.00    +0.000 C 
ATOM     18  C   UNL     1      17.499   9.700  39.607  0.00  0.00    +0.000 A 
ATOM     19  N   UNL     1      18.697   9.649  40.217  0.00  0.00    +0.000 NA
ATOM     20  C   UNL     1      19.662   9.767  39.286  0.00  0.00    +0.000 A 
ATOM     21  N   UNL     1      19.060   9.894  38.095  0.00  0.00    +0.000 NA
ATOM     22  C   UNL     1      17.737   9.854  38.281  0.00  0.00    +0.000 A 
ENDBRANCH  16  22
ENDBRANCH   1  16
TORSDOF 2
ENDMDL
MODEL 4
REMARK VINA RESULT:      -7.6      2.587      7.414
REMARK  Name = 
REMARK  2 active torsions:
REMARK  status: ('A' for Active; 'I' for Inactive)
REMARK    1  A    between atoms: C_6  and  C_7
REMARK    2  A    between atoms: C_7  and  C_8
REMARK                            x       y       z     vdW  Elec       q    Type
REMARK                         _______ _______ _______ _____ _____    ______ ____
ROOT
ATOM      1  C   UNL     1      16.901   9.688  35.795  0.00  0.00    +0.000 C 
ATOM      2  C   UNL     1      18.400   9.040  35.757  0.00  0.00    +0.000 C 
ATOM      3  C   UNL     1      19.330   9.963  36.458  0.00  0.00    +0.000 C 
ATOM      4  C   UNL     1      19.109   9.705  37.906  0.00  0.00    +0.000 A 
ATOM      5  C   UNL     1      20.076   9.371  38.795  0.00  0.00    +0.000 A 
ATOM      6  C   UNL     1      19.709   9.168  40.109  0.00  0.00    +0.000 A 
ATOM      7  C   UNL     1      18.384   9.306  40.495  0.00  0.00    +0.000 A 
ATOM      8  C   UNL     1      17.977   9.110  41.815  0.00  0.00    +0.000 A 
ATOM      9  C   UNL     1      16.634   9.264  42.146  0.00  0.00    +0.000 A 
ATOM     10  C   UNL     1      15.678   9.605  41.218  0.00  0.00    +0.000 A 
ATOM     11  C   UNL     1      16.065   9.802  39.905  0.00  0.00    +0.000 A 
ATOM     12  C   UNL     1      17.399   9.641  39.613  0.00  0.00    +0.000 A 
ATOM     13  C   UNL     1      17.801   9.842  38.281  0.00  0.00    +0.000 A 
ATOM     14  C   UNL     1      16.849  10.197  37.286  0.00  0.00    +0.000 C 
ATOM     15  O   UNL     1      15.889  10.959  37.570  0.00  0.00    +0.000 OA
ENDROOT
BRANCH   1  16
ATOM     16  C   UNL     1      17.386  11.123  35.154  0.00  0.00    +0.000 C 
BRANCH  16  22
ATOM     17  C   UNL     1      14.634  12.682  34.779  0.00  0.00    +0.000 C 
ATOM     18  C   UNL     1      15.315  11.839  33.773  0.00  0.00    +0.000 A 
ATOM     19  N   UNL     1      14.911  11.569  32.519  0.00  0.00    +0.000 NA
ATOM     20  C   UNL     1      15.818  10.763  31.936  0.00  0.00    +0.000 A 
ATOM     21  N   UNL     1      16.787  10.532  32.832  0.00  0.00    +0.000 NA
ATOM     22  C   UNL     1      16.489  11.185  33.959  0.00  0.00    +0.000 A 
ENDBRANCH  16  22
ENDBRANCH   1  16
TORSDOF 2
ENDMDL
MODEL 5
REMARK VINA RESULT:      -7.3     19.714     21.285
REMARK  Name = 
REMARK  2 active torsions:
REMARK  status: ('A' for Active; 'I' for Inactive)
REMARK    1  A    between atoms: C_6  and  C_7
REMARK    2  A    between atoms: C_7  and  C_8
REMARK                            x       y       z     vdW  Elec       q    Type
REMARK                         _______ _______ _______ _____ _____    ______ ____
ROOT
ATOM      1  C   UNL     1      34.209  -0.819  34.925  0.00  0.00    +0.000 C 
ATOM      2  C   UNL     1      34.446  -0.237  33.418  0.00  0.00    +0.000 C 
ATOM      3  C   UNL     1      33.278   0.606  33.050  0.00  0.00    +0.000 C 
ATOM      4  C   UNL     1      33.510   1.906  33.735  0.00  0.00    +0.000 A 
ATOM      5  C   UNL     1      33.536   3.115  33.124  0.00  0.00    +0.000 A 
ATOM      6  C   UNL     1      33.761   4.232  33.902  0.00  0.00    +0.000 A 
ATOM      7  C   UNL     1      33.953   4.105  35.270  0.00  0.00    +0.000 A 
ATOM      8  C   UNL     1      34.180   5.212  36.088  0.00  0.00    +0.000 A 
ATOM      9  C   UNL     1      34.364   5.025  37.455  0.00  0.00    +0.000 A 
ATOM     10  C   UNL     1      34.332   3.782  38.043  0.00  0.00    +0.000 A 
ATOM     11  C   UNL     1      34.108   2.675  37.245  0.00  0.00    +0.000 A 
ATOM     12  C   UNL     1      33.930   2.895  35.900  0.00  0.00    +0.000 A 
ATOM     13  C   UNL     1      33.700   1.774  35.083  0.00  0.00    +0.000 A 
ATOM     14  C   UNL     1      33.656   0.469  35.645  0.00  0.00    +0.000 C 
ATOM     15  O   UNL     1      33.156   0.286  36.785  0.00  0.00    +0.000 OA
ENDROOT
BRANCH   1  16
ATOM     16  C   UNL     1      32.732  -1.449  34.568  0.00  0.00    +0.000 C 
BRANCH  16  22
ATOM     17  C   UNL     1      33.575  -3.922  32.745  0.00  0.00    +0.000 C 
ATOM     18  C   UNL     1      33.319  -3.944  34.202  0.00  0.00    +0.000 A 
ATOM     19  N   UNL     1      33.392  -5.001  35.030  0.00  0.00    +0.000 NA
ATOM     20  C   UNL     1      33.086  -4.595  36.277  0.00  0.00    +0.000 A 
ATOM     21  N   UNL     1      32.821  -3.282  36.220  0.00  0.00    +0.000 NA
ATOM     22  C   UNL     1      32.961  -2.875  34.955  0.00  0.00    +0.000 A 
ENDBRANCH  16  22
ENDBRANCH   1  16
TORSDOF 2
ENDMDL
MODEL 6
REMARK VINA RESULT:      -7.2     19.930     21.751
REMARK  Name = 
REMARK  2 active torsions:
REMARK  status: ('A' for Active; 'I' for Inactive)
REMARK    1  A    between atoms: C_6  and  C_7
REMARK    2  A    between atoms: C_7  and  C_8
REMARK                            x       y       z     vdW  Elec       q    Type
REMARK                         _______ _______ _______ _____ _____    ______ ____
ROOT
ATOM      1  C   UNL     1      32.644  -1.841  34.497  0.00  0.00    +0.000 C 
ATOM      2  C   UNL     1      32.500  -1.739  36.120  0.00  0.00    +0.000 C 
ATOM      3  C   UNL     1      33.808  -1.312  36.684  0.00  0.00    +0.000 C 
ATOM      4  C   UNL     1      33.860   0.159  36.461  0.00  0.00    +0.000 A 
ATOM      5  C   UNL     1      34.069   1.086  37.427  0.00  0.00    +0.000 A 
ATOM      6  C   UNL     1      34.093   2.415  37.057  0.00  0.00    +0.000 A 
ATOM      7  C   UNL     1      33.908   2.776  35.731  0.00  0.00    +0.000 A 
ATOM      8  C   UNL     1      33.929   4.110  35.321  0.00  0.00    +0.000 A 
ATOM      9  C   UNL     1      33.739   4.414  33.975  0.00  0.00    +0.000 A 
ATOM     10  C   UNL     1      33.530   3.446  33.020  0.00  0.00    +0.000 A 
ATOM     11  C   UNL     1      33.506   2.119  33.412  0.00  0.00    +0.000 A 
ATOM     12  C   UNL     1      33.696   1.855  34.747  0.00  0.00    +0.000 A 
ATOM     13  C   UNL     1      33.676   0.509  35.152  0.00  0.00    +0.000 A 
ATOM     14  C   UNL     1      33.464  -0.527  34.201  0.00  0.00    +0.000 C 
ATOM     15  O   UNL     1      33.940  -0.430  33.041  0.00  0.00    +0.000 OA
ENDROOT
BRANCH   1  16
ATOM     16  C   UNL     1      33.955  -2.833  34.565  0.00  0.00    +0.000 C 
BRANCH  16  22
ATOM     17  C   UNL     1      32.294  -5.387  35.498  0.00  0.00    +0.000 C 
ATOM     18  C   UNL     1      32.741  -5.078  34.123  0.00  0.00    +0.000 A 
ATOM     19  N   UNL     1      32.536  -5.806  33.011  0.00  0.00    +0.000 NA
ATOM     20  C   UNL     1      33.105  -5.173  31.968  0.00  0.00    +0.000 A 
ATOM     21  N   UNL     1      33.665  -4.049  32.435  0.00  0.00    +0.000 NA
ATOM     22  C   UNL     1      33.448  -3.982  33.752  0.00  0.00    +0.000 A 
ENDBRANCH  16  22
ENDBRANCH   1  16
TORSDOF 2
ENDMDL
MODEL 7
REMARK VINA RESULT:      -7.0      3.039      7.218
REMARK  Name = 
REMARK  2 active torsions:
REMARK  status: ('A' for Active; 'I' for Inactive)
REMARK    1  A    between atoms: C_6  and  C_7
REMARK    2  A    between atoms: C_7  and  C_8
REMARK                            x       y       z     vdW  Elec       q    Type
REMARK                         _______ _______ _______ _____ _____    ______ ____
ROOT
ATOM      1  C   UNL     1      17.581  10.675  38.081  0.00  0.00    +0.000 C 
ATOM      2  C   UNL     1      18.340   9.263  37.770  0.00  0.00    +0.000 C 
ATOM      3  C   UNL     1      19.163   9.430  36.544  0.00  0.00    +0.000 C 
ATOM      4  C   UNL     1      20.388  10.144  36.998  0.00  0.00    +0.000 A 
ATOM      5  C   UNL     1      21.658   9.714  36.802  0.00  0.00    +0.000 A 
ATOM      6  C   UNL     1      22.689  10.495  37.283  0.00  0.00    +0.000 A 
ATOM      7  C   UNL     1      22.419  11.683  37.943  0.00  0.00    +0.000 A 
ATOM      8  C   UNL     1      23.436  12.498  38.440  0.00  0.00    +0.000 A 
ATOM      9  C   UNL     1      23.106  13.682  39.094  0.00  0.00    +0.000 A 
ATOM     10  C   UNL     1      21.804  14.089  39.275  0.00  0.00    +0.000 A 
ATOM     11  C   UNL     1      20.784  13.291  38.789  0.00  0.00    +0.000 A 
ATOM     12  C   UNL     1      21.146  12.129  38.149  0.00  0.00    +0.000 A 
ATOM     13  C   UNL     1      20.114  11.315  37.650  0.00  0.00    +0.000 A 
ATOM     14  C   UNL     1      18.753  11.694  37.811  0.00  0.00    +0.000 C 
ATOM     15  O   UNL     1      18.421  12.905  37.745  0.00  0.00    +0.000 OA
ENDROOT
BRANCH   1  16
ATOM     16  C   UNL     1      16.928  10.782  36.574  0.00  0.00    +0.000 C 
BRANCH  16  22
ATOM     17  C   UNL     1      14.834  12.440  34.839  0.00  0.00    +0.000 C 
ATOM     18  C   UNL     1      14.633  11.924  36.210  0.00  0.00    +0.000 A 
ATOM     19  N   UNL     1      13.539  12.052  36.981  0.00  0.00    +0.000 NA
ATOM     20  C   UNL     1      13.765  11.437  38.158  0.00  0.00    +0.000 A 
ATOM     21  N   UNL     1      15.003  10.927  38.114  0.00  0.00    +0.000 NA
ATOM     22  C   UNL     1      15.542  11.219  36.927  0.00  0.00    +0.000 A 
ENDBRANCH  16  22
ENDBRANCH   1  16
TORSDOF 2
ENDMDL
MODEL 8
REMARK VINA RESULT:      -7.0      1.728      3.763
REMARK  Name = 
REMARK  2 active torsions:
REMARK  status: ('A' for Active; 'I' for Inactive)
REMARK    1  A    between atoms: C_6  and  C_7
REMARK    2  A    between atoms: C_7  and  C_8
REMARK                            x       y       z     vdW  Elec       q    Type
REMARK                         _______ _______ _______ _____ _____    ______ ____
ROOT
ATOM      1  C   UNL     1      18.402  10.422  37.948  0.00  0.00    +0.000 C 
ATOM      2  C   UNL     1      19.325  10.098  36.640  0.00  0.00    +0.000 C 
ATOM      3  C   UNL     1      18.574   9.172  35.752  0.00  0.00    +0.000 C 
ATOM      4  C   UNL     1      17.608  10.037  35.023  0.00  0.00    +0.000 A 
ATOM      5  C   UNL     1      17.493  10.113  33.675  0.00  0.00    +0.000 A 
ATOM      6  C   UNL     1      16.541  10.965  33.151  0.00  0.00    +0.000 A 
ATOM      7  C   UNL     1      15.733  11.713  33.992  0.00  0.00    +0.000 A 
ATOM      8  C   UNL     1      14.759  12.582  33.498  0.00  0.00    +0.000 A 
ATOM      9  C   UNL     1      13.974  13.308  34.390  0.00  0.00    +0.000 A 
ATOM     10  C   UNL     1      14.118  13.206  35.754  0.00  0.00    +0.000 A 
ATOM     11  C   UNL     1      15.080  12.350  36.260  0.00  0.00    +0.000 A 
ATOM     12  C   UNL     1      15.837  11.649  35.352  0.00  0.00    +0.000 A 
ATOM     13  C   UNL     1      16.814  10.774  35.858  0.00  0.00    +0.000 A 
ATOM     14  C   UNL     1      16.999  10.634  37.261  0.00  0.00    +0.000 C 
ATOM     15  O   UNL     1      16.011  10.678  38.038  0.00  0.00    +0.000 OA
ENDROOT
BRANCH   1  16
ATOM     16  C   UNL     1      18.163   8.835  38.309  0.00  0.00    +0.000 C 
BRANCH  16  22
ATOM     17  C   UNL     1      18.801   6.349  40.196  0.00  0.00    +0.000 C 
ATOM     18  C   UNL     1      18.921   7.780  40.550  0.00  0.00    +0.000 A 
ATOM     19  N   UNL     1      19.319   8.304  41.722  0.00  0.00    +0.000 NA
ATOM     20  C   UNL     1      19.289   9.647  41.629  0.00  0.00    +0.000 A 
ATOM     21  N   UNL     1      18.870   9.955  40.393  0.00  0.00    +0.000 NA
ATOM     22  C   UNL     1      18.643   8.820  39.726  0.00  0.00    +0.000 A 
ENDBRANCH  16  22
ENDBRANCH   1  16
TORSDOF 2
ENDMDL
MODEL 9
REMARK VINA RESULT:      -6.8     18.716     19.767
REMARK  Name = 
REMARK  2 active torsions:
REMARK  status: ('A' for Active; 'I' for Inactive)
REMARK    1  A    between atoms: C_6  and  C_7
REMARK    2  A    between atoms: C_7  and  C_8
REMARK                            x       y       z     vdW  Elec       q    Type
REMARK                         _______ _______ _______ _____ _____    ______ ____
ROOT
ATOM      1  C   UNL     1      30.179  23.571  28.097  0.00  0.00    +0.000 C 
ATOM      2  C   UNL     1      31.210  24.365  27.109  0.00  0.00    +0.000 C 
ATOM      3  C   UNL     1      31.565  23.467  25.979  0.00  0.00    +0.000 C 
ATOM      4  C   UNL     1      30.405  23.541  25.050  0.00  0.00    +0.000 A 
ATOM      5  C   UNL     1      30.477  23.870  23.738  0.00  0.00    +0.000 A 
ATOM      6  C   UNL     1      29.306  23.891  23.008  0.00  0.00    +0.000 A 
ATOM      7  C   UNL     1      28.098  23.580  23.613  0.00  0.00    +0.000 A 
ATOM      8  C   UNL     1      26.896  23.588  22.905  0.00  0.00    +0.000 A 
ATOM      9  C   UNL     1      25.712  23.266  23.565  0.00  0.00    +0.000 A 
ATOM     10  C   UNL     1      25.676  22.936  24.899  0.00  0.00    +0.000 A 
ATOM     11  C   UNL     1      26.859  22.924  25.615  0.00  0.00    +0.000 A 
ATOM     12  C   UNL     1      28.009  23.247  24.933  0.00  0.00    +0.000 A 
ATOM     13  C   UNL     1      29.216  23.235  25.653  0.00  0.00    +0.000 A 
ATOM     14  C   UNL     1      29.229  22.898  27.035  0.00  0.00    +0.000 C 
ATOM     15  O   UNL     1      28.448  22.018  27.480  0.00  0.00    +0.000 OA
ENDROOT
BRANCH   1  16
ATOM     16  C   UNL     1      31.172  22.270  28.267  0.00  0.00    +0.000 C 
BRANCH  16  22
ATOM     17  C   UNL     1      33.655  21.624  30.156  0.00  0.00    +0.000 C 
ATOM     18  C   UNL     1      32.270  21.914  30.586  0.00  0.00    +0.000 A 
ATOM     19  N   UNL     1      31.794  21.961  31.843  0.00  0.00    +0.000 NA
ATOM     20  C   UNL     1      30.482  22.259  31.798  0.00  0.00    +0.000 A 
ATOM     21  N   UNL     1      30.144  22.396  30.509  0.00  0.00    +0.000 NA
ATOM     22  C   UNL     1      31.230  22.187  29.759  0.00  0.00    +0.000 A 
ENDBRANCH  16  22
ENDBRANCH   1  16
TORSDOF 2
ENDMDL
MODEL 10
REMARK VINA RESULT:      -6.6     18.641     20.264
REMARK  Name = 
REMARK  2 active torsions:
REMARK  status: ('A' for Active; 'I' for Inactive)
REMARK    1  A    between atoms: C_6  and  C_7
REMARK    2  A    between atoms: C_7  and  C_8
REMARK                            x       y       z     vdW  Elec       q    Type
REMARK                         _______ _______ _______ _____ _____    ______ ____
ROOT
ATOM      1  C   UNL     1      28.957  23.784  26.225  0.00  0.00    +0.000 C 
ATOM      2  C   UNL     1      27.927  24.399  27.334  0.00  0.00    +0.000 C 
ATOM      3  C   UNL     1      27.392  23.279  28.152  0.00  0.00    +0.000 C 
ATOM      4  C   UNL     1      28.471  22.968  29.129  0.00  0.00    +0.000 A 
ATOM      5  C   UNL     1      28.319  22.941  30.475  0.00  0.00    +0.000 A 
ATOM      6  C   UNL     1      29.421  22.630  31.247  0.00  0.00    +0.000 A 
ATOM      7  C   UNL     1      30.640  22.354  30.648  0.00  0.00    +0.000 A 
ATOM      8  C   UNL     1      31.773  22.034  31.396  0.00  0.00    +0.000 A 
ATOM      9  C   UNL     1      32.972  21.765  30.741  0.00  0.00    +0.000 A 
ATOM     10  C   UNL     1      33.090  21.801  29.371  0.00  0.00    +0.000 A 
ATOM     11  C   UNL     1      31.976  22.118  28.615  0.00  0.00    +0.000 A 
ATOM     12  C   UNL     1      30.809  22.378  29.294  0.00  0.00    +0.000 A 
ATOM     13  C   UNL     1      29.672  22.698  28.532  0.00  0.00    +0.000 A 
ATOM     14  C   UNL     1      29.744  22.746  27.113  0.00  0.00    +0.000 C 
ATOM     15  O   UNL     1      30.472  21.933  26.487  0.00  0.00    +0.000 OA
ENDROOT
BRANCH   1  16
ATOM     16  C   UNL     1      27.862  22.700  25.649  0.00  0.00    +0.000 C 
BRANCH  16  22
ATOM     17  C   UNL     1      25.339  23.344  23.813  0.00  0.00    +0.000 C 
ATOM     18  C   UNL     1      26.761  23.398  23.411  0.00  0.00    +0.000 A 
ATOM     19  N   UNL     1      27.261  23.726  22.206  0.00  0.00    +0.000 NA
ATOM     20  C   UNL     1      28.604  23.653  22.260  0.00  0.00    +0.000 A 
ATOM     21  N   UNL     1      28.938  23.277  23.502  0.00  0.00    +0.000 NA
ATOM     22  C   UNL     1      27.818  23.119  24.214  0.00  0.00    +0.000 A 
ENDBRANCH  16  22
ENDBRANCH   1  16
TORSDOF 2
ENDMDL
