MODEL 1
REMARK VINA RESULT:      -5.3      0.000      0.000
REMARK  Name = 
REMARK  4 active torsions:
REMARK  status: ('A' for Active; 'I' for Inactive)
REMARK    1  A    between atoms: C_2  and  C_4
REMARK    2  A    between atoms: C_4  and  C_5
REMARK    3  A    between atoms: N_9  and  C_10
REMARK    4  A    between atoms: C_10  and  C_11
REMARK                            x       y       z     vdW  Elec       q    Type
REMARK                         _______ _______ _______ _____ _____    ______ ____
ROOT
ATOM      1  C   UNL     1      26.327  23.489  26.199  0.00  0.00    +0.000 C 
ATOM      2  N   UNL     1      25.664  23.005  24.853  0.00  0.00    +0.000 NA
ATOM      3  C   UNL     1      26.489  23.476  23.821  0.00  0.00    +0.000 C 
ATOM      4  O   UNL     1      26.574  22.968  22.668  0.00  0.00    +0.000 OA
ATOM      5  N   UNL     1      27.205  24.609  24.289  0.00  0.00    +0.000 N 
ATOM      6  C   UNL     1      26.856  24.871  25.603  0.00  0.00    +0.000 C 
ATOM      7  O   UNL     1      26.869  25.858  26.321  0.00  0.00    +0.000 OA
ENDROOT
BRANCH   1   8
ATOM      8  C   UNL     1      27.710  22.645  25.951  0.00  0.00    +0.000 C 
BRANCH   8  10
ATOM      9  C   UNL     1      27.941  22.469  28.398  0.00  0.00    +0.000 C 
ATOM     10  C   UNL     1      28.607  22.886  27.113  0.00  0.00    +0.000 C 
ATOM     11  C   UNL     1      29.846  22.037  26.946  0.00  0.00    +0.000 C 
ENDBRANCH   8  10
ENDBRANCH   1   8
BRANCH   5  12
ATOM     12  C   UNL     1      28.167  25.424  23.559  0.00  0.00    +0.000 C 
BRANCH  12  13
ATOM     13  C   UNL     1      29.539  25.179  24.047  0.00  0.00    +0.000 A 
ATOM     14  C   UNL     1      30.156  23.982  23.749  0.00  0.00    +0.000 A 
ATOM     15  C   UNL     1      31.437  23.793  24.224  0.00  0.00    +0.000 A 
ATOM     16  C   UNL     1      32.092  24.746  24.964  0.00  0.00    +0.000 A 
ATOM     17 CL   UNL     1      33.716  24.526  25.574  0.00  0.00    +0.000 Cl
ATOM     18  C   UNL     1      31.448  25.933  25.244  0.00  0.00    +0.000 A 
ATOM     19  C   UNL     1      30.165  26.150  24.783  0.00  0.00    +0.000 A 
ENDBRANCH  12  13
ENDBRANCH   5  12
TORSDOF 4
ENDMDL
MODEL 2
REMARK VINA RESULT:      -5.2      2.102      4.565
REMARK  Name = 
REMARK  4 active torsions:
REMARK  status: ('A' for Active; 'I' for Inactive)
REMARK    1  A    between atoms: C_2  and  C_4
REMARK    2  A    between atoms: C_4  and  C_5
REMARK    3  A    between atoms: N_9  and  C_10
REMARK    4  A    between atoms: C_10  and  C_11
REMARK                            x       y       z     vdW  Elec       q    Type
REMARK                         _______ _______ _______ _____ _____    ______ ____
ROOT
ATOM      1  C   UNL     1      29.144  24.987  22.862  0.00  0.00    +0.000 C 
ATOM      2  N   UNL     1      28.308  26.253  23.290  0.00  0.00    +0.000 NA
ATOM      3  C   UNL     1      27.335  25.793  24.189  0.00  0.00    +0.000 C 
ATOM      4  O   UNL     1      26.769  26.495  25.072  0.00  0.00    +0.000 OA
ATOM      5  N   UNL     1      27.098  24.415  23.939  0.00  0.00    +0.000 N 
ATOM      6  C   UNL     1      27.903  23.985  22.898  0.00  0.00    +0.000 C 
ATOM      7  O   UNL     1      27.851  23.079  22.082  0.00  0.00    +0.000 OA
ENDROOT
BRANCH   1   8
ATOM      8  C   UNL     1      29.668  24.680  24.384  0.00  0.00    +0.000 C 
BRANCH   8  10
ATOM      9  C   UNL     1      31.963  24.747  25.279  0.00  0.00    +0.000 C 
ATOM     10  C   UNL     1      31.033  24.097  24.288  0.00  0.00    +0.000 C 
ATOM     11  C   UNL     1      30.952  22.628  24.637  0.00  0.00    +0.000 C 
ENDBRANCH   8  10
ENDBRANCH   1   8
BRANCH   5  12
ATOM     12  C   UNL     1      26.164  23.529  24.622  0.00  0.00    +0.000 C 
BRANCH  12  13
ATOM     13  C   UNL     1      26.624  23.243  25.996  0.00  0.00    +0.000 A 
ATOM     14  C   UNL     1      27.714  22.419  26.185  0.00  0.00    +0.000 A 
ATOM     15  C   UNL     1      28.110  22.178  27.483  0.00  0.00    +0.000 A 
ATOM     16  C   UNL     1      27.461  22.727  28.561  0.00  0.00    +0.000 A 
ATOM     17 CL   UNL     1      27.948  22.434  30.214  0.00  0.00    +0.000 Cl
ATOM     18  C   UNL     1      26.374  23.548  28.340  0.00  0.00    +0.000 A 
ATOM     19  C   UNL     1      25.955  23.807  27.050  0.00  0.00    +0.000 A 
ENDBRANCH  12  13
ENDBRANCH   5  12
TORSDOF 4
ENDMDL
MODEL 3
REMARK VINA RESULT:      -5.2      2.882      4.551
REMARK  Name = 
REMARK  4 active torsions:
REMARK  status: ('A' for Active; 'I' for Inactive)
REMARK    1  A    between atoms: C_2  and  C_4
REMARK    2  A    between atoms: C_4  and  C_5
REMARK    3  A    between atoms: N_9  and  C_10
REMARK    4  A    between atoms: C_10  and  C_11
REMARK                            x       y       z     vdW  Elec       q    Type
REMARK                         _______ _______ _______ _____ _____    ______ ____
ROOT
ATOM      1  C   UNL     1      29.071  23.022  23.454  0.00  0.00    +0.000 C 
ATOM      2  N   UNL     1      29.837  24.226  22.785  0.00  0.00    +0.000 NA
ATOM      3  C   UNL     1      29.167  25.389  23.193  0.00  0.00    +0.000 C 
ATOM      4  O   UNL     1      29.679  26.542  23.252  0.00  0.00    +0.000 OA
ATOM      5  N   UNL     1      27.828  25.052  23.525  0.00  0.00    +0.000 N 
ATOM      6  C   UNL     1      27.629  23.695  23.339  0.00  0.00    +0.000 C 
ATOM      7  O   UNL     1      26.661  22.984  23.123  0.00  0.00    +0.000 OA
ENDROOT
BRANCH   1   8
ATOM      8  C   UNL     1      29.384  23.526  24.982  0.00  0.00    +0.000 C 
BRANCH   8  10
ATOM      9  C   UNL     1      30.495  22.308  26.814  0.00  0.00    +0.000 C 
ATOM     10  C   UNL     1      29.315  22.340  25.877  0.00  0.00    +0.000 C 
ATOM     11  C   UNL     1      28.066  22.450  26.722  0.00  0.00    +0.000 C 
ENDBRANCH   8  10
ENDBRANCH   1   8
BRANCH   5  12
ATOM     12  C   UNL     1      26.770  25.941  23.987  0.00  0.00    +0.000 C 
BRANCH  12  13
ATOM     13  C   UNL     1      26.467  25.698  25.412  0.00  0.00    +0.000 A 
ATOM     14  C   UNL     1      27.338  26.162  26.375  0.00  0.00    +0.000 A 
ATOM     15  C   UNL     1      27.018  25.913  27.693  0.00  0.00    +0.000 A 
ATOM     16  C   UNL     1      25.880  25.235  28.055  0.00  0.00    +0.000 A 
ATOM     17 CL   UNL     1      25.457  24.911  29.720  0.00  0.00    +0.000 Cl
ATOM     18  C   UNL     1      25.029  24.784  27.068  0.00  0.00    +0.000 A 
ATOM     19  C   UNL     1      25.324  25.018  25.740  0.00  0.00    +0.000 A 
ENDBRANCH  12  13
ENDBRANCH   5  12
TORSDOF 4
ENDMDL
MODEL 4
REMARK VINA RESULT:      -5.0      2.690      4.146
REMARK  Name = 
REMARK  4 active torsions:
REMARK  status: ('A' for Active; 'I' for Inactive)
REMARK    1  A    between atoms: C_2  and  C_4
REMARK    2  A    between atoms: C_4  and  C_5
REMARK    3  A    between atoms: N_9  and  C_10
REMARK    4  A    between atoms: C_10  and  C_11
REMARK                            x       y       z     vdW  Elec       q    Type
REMARK                         _______ _______ _______ _____ _____    ______ ____
ROOT
ATOM      1  C   UNL     1      25.732  23.459  25.177  0.00  0.00    +0.000 C 
ATOM      2  N   UNL     1      26.835  22.681  25.991  0.00  0.00    +0.000 NA
ATOM      3  C   UNL     1      28.040  22.877  25.301  0.00  0.00    +0.000 C 
ATOM      4  O   UNL     1      29.192  22.810  25.813  0.00  0.00    +0.000 OA
ATOM      5  N   UNL     1      27.746  23.162  23.941  0.00  0.00    +0.000 N 
ATOM      6  C   UNL     1      26.376  23.155  23.749  0.00  0.00    +0.000 C 
ATOM      7  O   UNL     1      25.637  22.976  22.794  0.00  0.00    +0.000 OA
ENDROOT
BRANCH   1   8
ATOM      8  C   UNL     1      26.446  24.920  25.388  0.00  0.00    +0.000 C 
BRANCH   8  10
ATOM      9  C   UNL     1      24.265  26.056  25.235  0.00  0.00    +0.000 C 
ATOM     10  C   UNL     1      25.646  25.931  24.647  0.00  0.00    +0.000 C 
ATOM     11  C   UNL     1      26.325  27.274  24.788  0.00  0.00    +0.000 C 
ENDBRANCH   8  10
ENDBRANCH   1   8
BRANCH   5  12
ATOM     12  C   UNL     1      28.686  23.423  22.858  0.00  0.00    +0.000 C 
BRANCH  12  13
ATOM     13  C   UNL     1      28.766  24.870  22.572  0.00  0.00    +0.000 A 
ATOM     14  C   UNL     1      29.514  25.680  23.401  0.00  0.00    +0.000 A 
ATOM     15  C   UNL     1      29.563  27.025  23.098  0.00  0.00    +0.000 A 
ATOM     16  C   UNL     1      28.902  27.557  22.019  0.00  0.00    +0.000 A 
ATOM     17 CL   UNL     1      28.952  29.258  21.618  0.00  0.00    +0.000 Cl
ATOM     18  C   UNL     1      28.163  26.720  21.209  0.00  0.00    +0.000 A 
ATOM     19  C   UNL     1      28.096  25.369  21.487  0.00  0.00    +0.000 A 
ENDBRANCH  12  13
ENDBRANCH   5  12
TORSDOF 4
ENDMDL
MODEL 5
REMARK VINA RESULT:      -5.0      1.957      3.680
REMARK  Name = 
REMARK  4 active torsions:
REMARK  status: ('A' for Active; 'I' for Inactive)
REMARK    1  A    between atoms: C_2  and  C_4
REMARK    2  A    between atoms: C_4  and  C_5
REMARK    3  A    between atoms: N_9  and  C_10
REMARK    4  A    between atoms: C_10  and  C_11
REMARK                            x       y       z     vdW  Elec       q    Type
REMARK                         _______ _______ _______ _____ _____    ______ ____
ROOT
ATOM      1  C   UNL     1      27.847  25.005  23.362  0.00  0.00    +0.000 C 
ATOM      2  N   UNL     1      26.928  24.036  24.200  0.00  0.00    +0.000 NA
ATOM      3  C   UNL     1      27.793  23.143  24.850  0.00  0.00    +0.000 C 
ATOM      4  O   UNL     1      27.528  22.518  25.914  0.00  0.00    +0.000 OA
ATOM      5  N   UNL     1      29.004  23.063  24.114  0.00  0.00    +0.000 N 
ATOM      6  C   UNL     1      28.933  23.890  23.006  0.00  0.00    +0.000 C 
ATOM      7  O   UNL     1      29.481  23.927  21.917  0.00  0.00    +0.000 OA
ENDROOT
BRANCH   1   8
ATOM      8  C   UNL     1      28.621  25.594  24.682  0.00  0.00    +0.000 C 
BRANCH   8  10
ATOM      9  C   UNL     1      29.242  27.597  23.389  0.00  0.00    +0.000 C 
ATOM     10  C   UNL     1      29.749  26.441  24.211  0.00  0.00    +0.000 C 
ATOM     11  C   UNL     1      30.454  27.015  25.418  0.00  0.00    +0.000 C 
ENDBRANCH   8  10
ENDBRANCH   1   8
BRANCH   5  12
ATOM     12  C   UNL     1      30.179  22.254  24.409  0.00  0.00    +0.000 C 
BRANCH  12  13
ATOM     13  C   UNL     1      31.183  23.040  25.154  0.00  0.00    +0.000 A 
ATOM     14  C   UNL     1      31.063  23.161  26.523  0.00  0.00    +0.000 A 
ATOM     15  C   UNL     1      32.021  23.904  27.181  0.00  0.00    +0.000 A 
ATOM     16  C   UNL     1      33.063  24.507  26.519  0.00  0.00    +0.000 A 
ATOM     17 CL   UNL     1      34.287  25.452  27.334  0.00  0.00    +0.000 Cl
ATOM     18  C   UNL     1      33.154  24.366  25.150  0.00  0.00    +0.000 A 
ATOM     19  C   UNL     1      32.209  23.629  24.465  0.00  0.00    +0.000 A 
ENDBRANCH  12  13
ENDBRANCH   5  12
TORSDOF 4
ENDMDL
MODEL 6
REMARK VINA RESULT:      -4.9      3.356      4.660
REMARK  Name = 
REMARK  4 active torsions:
REMARK  status: ('A' for Active; 'I' for Inactive)
REMARK    1  A    between atoms: C_2  and  C_4
REMARK    2  A    between atoms: C_4  and  C_5
REMARK    3  A    between atoms: N_9  and  C_10
REMARK    4  A    between atoms: C_10  and  C_11
REMARK                            x       y       z     vdW  Elec       q    Type
REMARK                         _______ _______ _______ _____ _____    ______ ____
ROOT
ATOM      1  C   UNL     1      29.315  23.345  28.869  0.00  0.00    +0.000 C 
ATOM      2  N   UNL     1      28.255  22.956  29.970  0.00  0.00    +0.000 NA
ATOM      3  C   UNL     1      27.004  23.328  29.456  0.00  0.00    +0.000 C 
ATOM      4  O   UNL     1      25.898  22.821  29.794  0.00  0.00    +0.000 OA
ATOM      5  N   UNL     1      27.192  24.361  28.499  0.00  0.00    +0.000 N 
ATOM      6  C   UNL     1      28.540  24.655  28.390  0.00  0.00    +0.000 C 
ATOM      7  O   UNL     1      29.187  25.627  28.036  0.00  0.00    +0.000 OA
ENDROOT
BRANCH   1   8
ATOM      8  C   UNL     1      28.679  22.338  27.742  0.00  0.00    +0.000 C 
BRANCH   8  10
ATOM      9  C   UNL     1      29.614  22.701  25.492  0.00  0.00    +0.000 C 
ATOM     10  C   UNL     1      29.766  21.966  26.798  0.00  0.00    +0.000 C 
ATOM     11  C   UNL     1      31.088  22.379  27.402  0.00  0.00    +0.000 C 
ENDBRANCH   8  10
ENDBRANCH   1   8
BRANCH   5  12
ATOM     12  C   UNL     1      26.175  25.056  27.722  0.00  0.00    +0.000 C 
BRANCH  12  13
ATOM     13  C   UNL     1      26.276  24.702  26.292  0.00  0.00    +0.000 A 
ATOM     14  C   UNL     1      25.852  23.458  25.873  0.00  0.00    +0.000 A 
ATOM     15  C   UNL     1      25.964  23.167  24.530  0.00  0.00    +0.000 A 
ATOM     16  C   UNL     1      26.473  24.067  23.626  0.00  0.00    +0.000 A 
ATOM     17 CL   UNL     1      26.623  23.718  21.920  0.00  0.00    +0.000 Cl
ATOM     18  C   UNL     1      26.889  25.303  24.076  0.00  0.00    +0.000 A 
ATOM     19  C   UNL     1      26.789  25.621  25.416  0.00  0.00    +0.000 A 
ENDBRANCH  12  13
ENDBRANCH   5  12
TORSDOF 4
ENDMDL
MODEL 7
REMARK VINA RESULT:      -4.9      1.471      3.613
REMARK  Name = 
REMARK  4 active torsions:
REMARK  status: ('A' for Active; 'I' for Inactive)
REMARK    1  A    between atoms: C_2  and  C_4
REMARK    2  A    between atoms: C_4  and  C_5
REMARK    3  A    between atoms: N_9  and  C_10
REMARK    4  A    between atoms: C_10  and  C_11
REMARK                            x       y       z     vdW  Elec       q    Type
REMARK                         _______ _______ _______ _____ _____    ______ ____
ROOT
ATOM      1  C   UNL     1      25.598  24.996  24.883  0.00  0.00    +0.000 C 
ATOM      2  N   UNL     1      25.113  24.842  26.375  0.00  0.00    +0.000 NA
ATOM      3  C   UNL     1      26.074  24.047  27.017  0.00  0.00    +0.000 C 
ATOM      4  O   UNL     1      26.305  24.043  28.258  0.00  0.00    +0.000 OA
ATOM      5  N   UNL     1      26.737  23.254  26.042  0.00  0.00    +0.000 N 
ATOM      6  C   UNL     1      26.220  23.529  24.788  0.00  0.00    +0.000 C 
ATOM      7  O   UNL     1      26.151  22.927  23.729  0.00  0.00    +0.000 OA
ENDROOT
BRANCH   1   8
ATOM      8  C   UNL     1      26.991  25.755  25.297  0.00  0.00    +0.000 C 
BRANCH   8  10
ATOM      9  C   UNL     1      27.119  26.825  23.081  0.00  0.00    +0.000 C 
ATOM     10  C   UNL     1      27.808  25.915  24.064  0.00  0.00    +0.000 C 
ATOM     11  C   UNL     1      29.121  26.562  24.440  0.00  0.00    +0.000 C 
ENDBRANCH   8  10
ENDBRANCH   1   8
BRANCH   5  12
ATOM     12  C   UNL     1      27.798  22.278  26.253  0.00  0.00    +0.000 C 
BRANCH  12  13
ATOM     13  C   UNL     1      29.118  22.864  25.948  0.00  0.00    +0.000 A 
ATOM     14  C   UNL     1      29.755  23.627  26.905  0.00  0.00    +0.000 A 
ATOM     15  C   UNL     1      30.986  24.156  26.579  0.00  0.00    +0.000 A 
ATOM     16  C   UNL     1      31.574  23.944  25.357  0.00  0.00    +0.000 A 
ATOM     17 CL   UNL     1      33.134  24.605  24.925  0.00  0.00    +0.000 Cl
ATOM     18  C   UNL     1      30.912  23.177  24.421  0.00  0.00    +0.000 A 
ATOM     19  C   UNL     1      29.678  22.634  24.719  0.00  0.00    +0.000 A 
ENDBRANCH  12  13
ENDBRANCH   5  12
TORSDOF 4
ENDMDL
MODEL 8
REMARK VINA RESULT:      -4.9     20.258     21.665
REMARK  Name = 
REMARK  4 active torsions:
REMARK  status: ('A' for Active; 'I' for Inactive)
REMARK    1  A    between atoms: C_2  and  C_4
REMARK    2  A    between atoms: C_4  and  C_5
REMARK    3  A    between atoms: N_9  and  C_10
REMARK    4  A    between atoms: C_10  and  C_11
REMARK                            x       y       z     vdW  Elec       q    Type
REMARK                         _______ _______ _______ _____ _____    ______ ____
ROOT
ATOM      1  C   UNL     1      28.708   7.128  15.973  0.00  0.00    +0.000 C 
ATOM      2  N   UNL     1      27.921   7.822  14.797  0.00  0.00    +0.000 NA
ATOM      3  C   UNL     1      27.070   6.841  14.266  0.00  0.00    +0.000 C 
ATOM      4  O   UNL     1      25.999   7.070  13.638  0.00  0.00    +0.000 OA
ATOM      5  N   UNL     1      27.613   5.561  14.552  0.00  0.00    +0.000 N 
ATOM      6  C   UNL     1      28.795   5.703  15.259  0.00  0.00    +0.000 C 
ATOM      7  O   UNL     1      29.793   5.020  15.424  0.00  0.00    +0.000 OA
ENDROOT
BRANCH   1   8
ATOM      8  C   UNL     1      27.355   6.811  16.842  0.00  0.00    +0.000 C 
BRANCH   8  10
ATOM      9  C   UNL     1      28.004   7.339  19.160  0.00  0.00    +0.000 C 
ATOM     10  C   UNL     1      27.774   6.244  18.151  0.00  0.00    +0.000 C 
ATOM     11  C   UNL     1      26.657   5.370  18.674  0.00  0.00    +0.000 C 
ENDBRANCH   8  10
ENDBRANCH   1   8
BRANCH   5  12
ATOM     12  C   UNL     1      27.075   4.258  14.186  0.00  0.00    +0.000 C 
BRANCH  12  13
ATOM     13  C   UNL     1      26.214   3.725  15.261  0.00  0.00    +0.000 A 
ATOM     14  C   UNL     1      24.945   4.239  15.425  0.00  0.00    +0.000 A 
ATOM     15  C   UNL     1      24.174   3.714  16.441  0.00  0.00    +0.000 A 
ATOM     16  C   UNL     1      24.632   2.717  17.268  0.00  0.00    +0.000 A 
ATOM     17 CL   UNL     1      23.670   2.039  18.561  0.00  0.00    +0.000 Cl
ATOM     18  C   UNL     1      25.906   2.225  17.078  0.00  0.00    +0.000 A 
ATOM     19  C   UNL     1      26.700   2.731  16.069  0.00  0.00    +0.000 A 
ENDBRANCH  12  13
ENDBRANCH   5  12
TORSDOF 4
ENDMDL
MODEL 9
REMARK VINA RESULT:      -4.9     21.878     24.384
REMARK  Name = 
REMARK  4 active torsions:
REMARK  status: ('A' for Active; 'I' for Inactive)
REMARK    1  A    between atoms: C_2  and  C_4
REMARK    2  A    between atoms: C_4  and  C_5
REMARK    3  A    between atoms: N_9  and  C_10
REMARK    4  A    between atoms: C_10  and  C_11
REMARK                            x       y       z     vdW  Elec       q    Type
REMARK                         _______ _______ _______ _____ _____    ______ ____
ROOT
ATOM      1  C   UNL     1      16.002   7.563  41.903  0.00  0.00    +0.000 C 
ATOM      2  N   UNL     1      16.866   6.590  41.014  0.00  0.00    +0.000 NA
ATOM      3  C   UNL     1      17.859   7.384  40.419  0.00  0.00    +0.000 C 
ATOM      4  O   UNL     1      18.976   6.964  40.007  0.00  0.00    +0.000 OA
ATOM      5  N   UNL     1      17.397   8.726  40.361  0.00  0.00    +0.000 N 
ATOM      6  C   UNL     1      16.129   8.806  40.910  0.00  0.00    +0.000 C 
ATOM      7  O   UNL     1      15.182   9.566  40.791  0.00  0.00    +0.000 OA
ENDROOT
BRANCH   1   8
ATOM      8  C   UNL     1      17.259   7.977  42.870  0.00  0.00    +0.000 C 
BRANCH   8  10
ATOM      9  C   UNL     1      16.304   9.563  44.496  0.00  0.00    +0.000 C 
ATOM     10  C   UNL     1      16.737   8.141  44.253  0.00  0.00    +0.000 C 
ATOM     11  C   UNL     1      15.518   7.261  44.412  0.00  0.00    +0.000 C 
ENDBRANCH   8  10
ENDBRANCH   1   8
BRANCH   5  12
ATOM     12  C   UNL     1      18.089   9.887  39.817  0.00  0.00    +0.000 C 
BRANCH  12  13
ATOM     13  C   UNL     1      17.896   9.974  38.356  0.00  0.00    +0.000 A 
ATOM     14  C   UNL     1      16.770  10.600  37.861  0.00  0.00    +0.000 A 
ATOM     15  C   UNL     1      16.628  10.660  36.490  0.00  0.00    +0.000 A 
ATOM     16  C   UNL     1      17.559  10.126  35.634  0.00  0.00    +0.000 A 
ATOM     17 CL   UNL     1      17.397  10.192  33.894  0.00  0.00    +0.000 Cl
ATOM     18  C   UNL     1      18.673   9.507  36.160  0.00  0.00    +0.000 A 
ATOM     19  C   UNL     1      18.842   9.431  37.528  0.00  0.00    +0.000 A 
ENDBRANCH  12  13
ENDBRANCH   5  12
TORSDOF 4
ENDMDL
MODEL 10
REMARK VINA RESULT:      -4.9      1.811      2.751
REMARK  Name = 
REMARK  4 active torsions:
REMARK  status: ('A' for Active; 'I' for Inactive)
REMARK    1  A    between atoms: C_2  and  C_4
REMARK    2  A    between atoms: C_4  and  C_5
REMARK    3  A    between atoms: N_9  and  C_10
REMARK    4  A    between atoms: C_10  and  C_11
REMARK                            x       y       z     vdW  Elec       q    Type
REMARK                         _______ _______ _______ _____ _____    ______ ____
ROOT
ATOM      1  C   UNL     1      26.714  25.028  24.730  0.00  0.00    +0.000 C 
ATOM      2  N   UNL     1      26.585  24.486  23.255  0.00  0.00    +0.000 NA
ATOM      3  C   UNL     1      27.802  23.852  22.965  0.00  0.00    +0.000 C 
ATOM      4  O   UNL     1      27.961  22.940  22.106  0.00  0.00    +0.000 OA
ATOM      5  N   UNL     1      28.814  24.403  23.795  0.00  0.00    +0.000 N 
ATOM      6  C   UNL     1      28.267  25.377  24.613  0.00  0.00    +0.000 C 
ATOM      7  O   UNL     1      28.698  26.355  25.201  0.00  0.00    +0.000 OA
ENDROOT
BRANCH   1   8
ATOM      8  C   UNL     1      26.913  23.536  25.380  0.00  0.00    +0.000 C 
BRANCH   8  10
ATOM      9  C   UNL     1      27.361  23.754  27.793  0.00  0.00    +0.000 C 
ATOM     10  C   UNL     1      26.306  23.545  26.738  0.00  0.00    +0.000 C 
ATOM     11  C   UNL     1      25.341  24.704  26.824  0.00  0.00    +0.000 C 
ENDBRANCH   8  10
ENDBRANCH   1   8
BRANCH   5  12
ATOM     12  C   UNL     1      30.228  24.056  23.832  0.00  0.00    +0.000 C 
BRANCH  12  13
ATOM     13  C   UNL     1      30.601  23.518  25.156  0.00  0.00    +0.000 A 
ATOM     14  C   UNL     1      30.059  22.321  25.574  0.00  0.00    +0.000 A 
ATOM     15  C   UNL     1      30.434  21.854  26.817  0.00  0.00    +0.000 A 
ATOM     16  C   UNL     1      31.312  22.537  27.621  0.00  0.00    +0.000 A 
ATOM     17 CL   UNL     1      31.799  21.962  29.199  0.00  0.00    +0.000 Cl
ATOM     18  C   UNL     1      31.837  23.731  27.174  0.00  0.00    +0.000 A 
ATOM     19  C   UNL     1      31.480  24.224  25.934  0.00  0.00    +0.000 A 
ENDBRANCH  12  13
ENDBRANCH   5  12
TORSDOF 4
ENDMDL
