MODEL 1
REMARK VINA RESULT:      -6.2      0.000      0.000
REMARK  Name = 
REMARK  4 active torsions:
REMARK  status: ('A' for Active; 'I' for Inactive)
REMARK    1  A    between atoms: N_2  and  C_4
REMARK    2  A    between atoms: C_7  and  C_8
REMARK    3  A    between atoms: C_8  and  N_9
REMARK    4  A    between atoms: C_15  and  C_16
REMARK                            x       y       z     vdW  Elec       q    Type
REMARK                         _______ _______ _______ _____ _____    ______ ____
ROOT
ATOM      1  N   UNL     1      28.233  24.594  24.831  0.00  0.00    +0.000 N 
ATOM      2  C   UNL     1      28.910  23.399  24.850  0.00  0.00    +0.000 C 
ATOM      3  C   UNL     1      30.341  23.352  24.543  0.00  0.00    +0.000 C 
ATOM      4  C   UNL     1      30.956  24.688  24.502  0.00  0.00    +0.000 C 
ATOM      5  C   UNL     1      30.148  25.863  24.365  0.00  0.00    +0.000 C 
ATOM      6  C   UNL     1      28.706  25.534  23.682  0.00  0.00    +0.000 C 
ATOM      7  C   UNL     1      29.287  24.316  22.640  0.00  0.00    +0.000 C 
ATOM      8  C   UNL     1      27.952  23.412  22.650  0.00  0.00    +0.000 C 
ATOM      9  C   UNL     1      26.780  24.233  22.989  0.00  0.00    +0.000 C 
ATOM     10  C   UNL     1      26.810  24.461  24.499  0.00  0.00    +0.000 C 
ENDROOT
BRANCH   7  11
ATOM     11  C   UNL     1      28.848  25.137  21.297  0.00  0.00    +0.000 C 
ATOM     12  O   UNL     1      29.810  24.793  20.338  0.00  0.00    +0.000 OA
ENDBRANCH   7  11
BRANCH   1  13
ATOM     13  C   UNL     1      28.360  25.401  26.053  0.00  0.00    +0.000 C 
BRANCH  13  17
ATOM     14  C   UNL     1      27.353  22.852  29.348  0.00  0.00    +0.000 A 
ATOM     15  C   UNL     1      26.377  23.424  28.543  0.00  0.00    +0.000 A 
ATOM     16  C   UNL     1      26.676  24.247  27.477  0.00  0.00    +0.000 A 
ATOM     17  C   UNL     1      27.986  24.532  27.175  0.00  0.00    +0.000 A 
ATOM     18  C   UNL     1      28.971  23.977  27.957  0.00  0.00    +0.000 A 
ATOM     19  C   UNL     1      28.660  23.155  29.021  0.00  0.00    +0.000 A 
BRANCH  14  21
ATOM     20  O   UNL     1      27.953  21.551  31.124  0.00  0.00    +0.000 OA
ATOM     21  N   UNL     1      27.042  22.013  30.435  0.00  0.00    +0.000 N 
ATOM     22  O   UNL     1      25.747  21.714  30.718  0.00  0.00    +0.000 OA
ENDBRANCH  14  21
ENDBRANCH  13  17
ENDBRANCH   1  13
TORSDOF 4
ENDMDL
MODEL 2
REMARK VINA RESULT:      -6.1      1.596      2.788
REMARK  Name = 
REMARK  4 active torsions:
REMARK  status: ('A' for Active; 'I' for Inactive)
REMARK    1  A    between atoms: N_2  and  C_4
REMARK    2  A    between atoms: C_7  and  C_8
REMARK    3  A    between atoms: C_8  and  N_9
REMARK    4  A    between atoms: C_15  and  C_16
REMARK                            x       y       z     vdW  Elec       q    Type
REMARK                         _______ _______ _______ _____ _____    ______ ____
ROOT
ATOM      1  N   UNL     1      27.960  23.423  25.196  0.00  0.00    +0.000 N 
ATOM      2  C   UNL     1      28.167  24.747  25.498  0.00  0.00    +0.000 C 
ATOM      3  C   UNL     1      27.345  25.786  24.875  0.00  0.00    +0.000 C 
ATOM      4  C   UNL     1      26.178  25.238  24.168  0.00  0.00    +0.000 C 
ATOM      5  C   UNL     1      26.125  23.853  23.804  0.00  0.00    +0.000 C 
ATOM      6  C   UNL     1      27.612  23.196  23.695  0.00  0.00    +0.000 C 
ATOM      7  C   UNL     1      28.373  24.596  23.089  0.00  0.00    +0.000 C 
ATOM      8  C   UNL     1      29.804  24.347  23.788  0.00  0.00    +0.000 C 
ATOM      9  C   UNL     1      29.991  22.917  24.075  0.00  0.00    +0.000 C 
ATOM     10  C   UNL     1      29.166  22.594  25.320  0.00  0.00    +0.000 C 
ENDROOT
BRANCH   7  11
ATOM     11  C   UNL     1      28.806  23.860  21.695  0.00  0.00    +0.000 C 
ATOM     12  O   UNL     1      29.730  24.733  21.104  0.00  0.00    +0.000 OA
ENDBRANCH   7  11
BRANCH   1  13
ATOM     13  C   UNL     1      26.867  22.779  25.938  0.00  0.00    +0.000 C 
BRANCH  13  17
ATOM     14  C   UNL     1      27.117  24.133  29.997  0.00  0.00    +0.000 A 
ATOM     15  C   UNL     1      28.085  23.307  29.442  0.00  0.00    +0.000 A 
ATOM     16  C   UNL     1      28.027  22.859  28.138  0.00  0.00    +0.000 A 
ATOM     17  C   UNL     1      26.978  23.227  27.331  0.00  0.00    +0.000 A 
ATOM     18  C   UNL     1      26.006  24.045  27.857  0.00  0.00    +0.000 A 
ATOM     19  C   UNL     1      26.075  24.488  29.162  0.00  0.00    +0.000 A 
BRANCH  14  21
ATOM     20  O   UNL     1      28.275  24.672  31.887  0.00  0.00    +0.000 OA
ATOM     21  N   UNL     1      27.181  24.588  31.328  0.00  0.00    +0.000 N 
ATOM     22  O   UNL     1      26.043  24.930  31.987  0.00  0.00    +0.000 OA
ENDBRANCH  14  21
ENDBRANCH  13  17
ENDBRANCH   1  13
TORSDOF 4
ENDMDL
MODEL 3
REMARK VINA RESULT:      -6.0      1.728      6.724
REMARK  Name = 
REMARK  4 active torsions:
REMARK  status: ('A' for Active; 'I' for Inactive)
REMARK    1  A    between atoms: N_2  and  C_4
REMARK    2  A    between atoms: C_7  and  C_8
REMARK    3  A    between atoms: C_8  and  N_9
REMARK    4  A    between atoms: C_15  and  C_16
REMARK                            x       y       z     vdW  Elec       q    Type
REMARK                         _______ _______ _______ _____ _____    ______ ____
ROOT
ATOM      1  N   UNL     1      27.299  23.647  26.501  0.00  0.00    +0.000 N 
ATOM      2  C   UNL     1      28.056  24.762  26.768  0.00  0.00    +0.000 C 
ATOM      3  C   UNL     1      29.164  24.695  27.723  0.00  0.00    +0.000 C 
ATOM      4  C   UNL     1      29.503  23.314  28.101  0.00  0.00    +0.000 C 
ATOM      5  C   UNL     1      28.579  22.243  27.874  0.00  0.00    +0.000 C 
ATOM      6  C   UNL     1      27.044  22.777  27.768  0.00  0.00    +0.000 C 
ATOM      7  C   UNL     1      27.218  24.024  28.918  0.00  0.00    +0.000 C 
ATOM      8  C   UNL     1      26.179  25.051  28.236  0.00  0.00    +0.000 C 
ATOM      9  C   UNL     1      25.210  24.322  27.404  0.00  0.00    +0.000 C 
ATOM     10  C   UNL     1      25.920  23.952  26.103  0.00  0.00    +0.000 C 
ENDROOT
BRANCH   7  11
ATOM     11  C   UNL     1      26.092  23.379  29.912  0.00  0.00    +0.000 C 
ATOM     12  O   UNL     1      25.927  24.331  30.928  0.00  0.00    +0.000 OA
ENDBRANCH   7  11
BRANCH   1  13
ATOM     13  C   UNL     1      27.880  22.720  25.520  0.00  0.00    +0.000 C 
BRANCH  13  17
ATOM     14  C   UNL     1      28.739  25.005  21.996  0.00  0.00    +0.000 A 
ATOM     15  C   UNL     1      27.454  24.567  22.287  0.00  0.00    +0.000 A 
ATOM     16  C   UNL     1      27.153  23.831  23.415  0.00  0.00    +0.000 A 
ATOM     17  C   UNL     1      28.146  23.501  24.305  0.00  0.00    +0.000 A 
ATOM     18  C   UNL     1      29.426  23.923  24.040  0.00  0.00    +0.000 A 
ATOM     19  C   UNL     1      29.716  24.659  22.909  0.00  0.00    +0.000 A 
BRANCH  14  21
ATOM     20  O   UNL     1      29.831  25.302  20.015  0.00  0.00    +0.000 OA
ATOM     21  N   UNL     1      29.041  25.756  20.844  0.00  0.00    +0.000 N 
ATOM     22  O   UNL     1      28.465  26.971  20.652  0.00  0.00    +0.000 OA
ENDBRANCH  14  21
ENDBRANCH  13  17
ENDBRANCH   1  13
TORSDOF 4
ENDMDL
MODEL 4
REMARK VINA RESULT:      -6.0     20.327     23.980
REMARK  Name = 
REMARK  4 active torsions:
REMARK  status: ('A' for Active; 'I' for Inactive)
REMARK    1  A    between atoms: N_2  and  C_4
REMARK    2  A    between atoms: C_7  and  C_8
REMARK    3  A    between atoms: C_8  and  N_9
REMARK    4  A    between atoms: C_15  and  C_16
REMARK                            x       y       z     vdW  Elec       q    Type
REMARK                         _______ _______ _______ _____ _____    ______ ____
ROOT
ATOM      1  N   UNL     1      18.046   8.377  40.614  0.00  0.00    +0.000 N 
ATOM      2  C   UNL     1      16.674   8.399  40.685  0.00  0.00    +0.000 C 
ATOM      3  C   UNL     1      16.001   8.970  41.853  0.00  0.00    +0.000 C 
ATOM      4  C   UNL     1      16.919   9.714  42.728  0.00  0.00    +0.000 C 
ATOM      5  C   UNL     1      18.336   9.522  42.638  0.00  0.00    +0.000 C 
ATOM      6  C   UNL     1      18.713   8.076  41.989  0.00  0.00    +0.000 C 
ATOM      7  C   UNL     1      17.402   7.233  42.679  0.00  0.00    +0.000 C 
ATOM      8  C   UNL     1      17.194   6.190  41.467  0.00  0.00    +0.000 C 
ATOM      9  C   UNL     1      18.440   6.037  40.704  0.00  0.00    +0.000 C 
ATOM     10  C   UNL     1      18.577   7.269  39.810  0.00  0.00    +0.000 C 
ENDROOT
BRANCH   7  11
ATOM     11  C   UNL     1      18.380   6.227  43.518  0.00  0.00    +0.000 C 
ATOM     12  O   UNL     1      17.527   5.233  44.014  0.00  0.00    +0.000 OA
ENDBRANCH   7  11
BRANCH   1  13
ATOM     13  C   UNL     1      18.666   9.629  40.160  0.00  0.00    +0.000 C 
BRANCH  13  17
ATOM     14  C   UNL     1      17.413  10.251  36.109  0.00  0.00    +0.000 A 
ATOM     15  C   UNL     1      16.595  10.574  37.183  0.00  0.00    +0.000 A 
ATOM     16  C   UNL     1      16.977  10.383  38.496  0.00  0.00    +0.000 A 
ATOM     17  C   UNL     1      18.211   9.853  38.783  0.00  0.00    +0.000 A 
ATOM     18  C   UNL     1      19.039   9.525  37.736  0.00  0.00    +0.000 A 
ATOM     19  C   UNL     1      18.648   9.720  36.427  0.00  0.00    +0.000 A 
BRANCH  14  21
ATOM     20  O   UNL     1      17.743  10.041  33.861  0.00  0.00    +0.000 OA
ATOM     21  N   UNL     1      17.019  10.448  34.771  0.00  0.00    +0.000 N 
ATOM     22  O   UNL     1      15.851  11.083  34.491  0.00  0.00    +0.000 OA
ENDBRANCH  14  21
ENDBRANCH  13  17
ENDBRANCH   1  13
TORSDOF 4
ENDMDL
MODEL 5
REMARK VINA RESULT:      -6.0      1.955      2.603
REMARK  Name = 
REMARK  4 active torsions:
REMARK  status: ('A' for Active; 'I' for Inactive)
REMARK    1  A    between atoms: N_2  and  C_4
REMARK    2  A    between atoms: C_7  and  C_8
REMARK    3  A    between atoms: C_8  and  N_9
REMARK    4  A    between atoms: C_15  and  C_16
REMARK                            x       y       z     vdW  Elec       q    Type
REMARK                         _______ _______ _______ _____ _____    ______ ____
ROOT
ATOM      1  N   UNL     1      29.609  24.312  25.744  0.00  0.00    +0.000 N 
ATOM      2  C   UNL     1      29.794  22.951  25.682  0.00  0.00    +0.000 C 
ATOM      3  C   UNL     1      30.885  22.387  24.886  0.00  0.00    +0.000 C 
ATOM      4  C   UNL     1      31.846  23.407  24.439  0.00  0.00    +0.000 C 
ATOM      5  C   UNL     1      31.497  24.797  24.443  0.00  0.00    +0.000 C 
ATOM      6  C   UNL     1      29.884  25.018  24.384  0.00  0.00    +0.000 C 
ATOM      7  C   UNL     1      29.566  23.676  23.382  0.00  0.00    +0.000 C 
ATOM      8  C   UNL     1      28.120  23.320  24.002  0.00  0.00    +0.000 C 
ATOM      9  C   UNL     1      27.524  24.511  24.625  0.00  0.00    +0.000 C 
ATOM     10  C   UNL     1      28.215  24.707  25.975  0.00  0.00    +0.000 C 
ENDROOT
BRANCH   7  11
ATOM     11  C   UNL     1      28.944  24.605  22.190  0.00  0.00    +0.000 C 
ATOM     12  O   UNL     1      29.686  24.267  21.050  0.00  0.00    +0.000 OA
ENDBRANCH   7  11
BRANCH   1  13
ATOM     13  C   UNL     1      30.465  25.012  26.712  0.00  0.00    +0.000 C 
BRANCH  13  17
ATOM     14  C   UNL     1      30.731  22.521  30.189  0.00  0.00    +0.000 A 
ATOM     15  C   UNL     1      29.604  23.288  29.926  0.00  0.00    +0.000 A 
ATOM     16  C   UNL     1      29.495  24.097  28.813  0.00  0.00    +0.000 A 
ATOM     17  C   UNL     1      30.528  24.168  27.911  0.00  0.00    +0.000 A 
ATOM     18  C   UNL     1      31.655  23.417  28.149  0.00  0.00    +0.000 A 
ATOM     19  C   UNL     1      31.753  22.611  29.265  0.00  0.00    +0.000 A 
BRANCH  14  21
ATOM     20  O   UNL     1      30.003  21.796  32.227  0.00  0.00    +0.000 OA
ATOM     21  N   UNL     1      30.837  21.697  31.326  0.00  0.00    +0.000 N 
ATOM     22  O   UNL     1      31.855  20.801  31.426  0.00  0.00    +0.000 OA
ENDBRANCH  14  21
ENDBRANCH  13  17
ENDBRANCH   1  13
TORSDOF 4
ENDMDL
MODEL 6
REMARK VINA RESULT:      -5.6      2.454      6.768
REMARK  Name = 
REMARK  4 active torsions:
REMARK  status: ('A' for Active; 'I' for Inactive)
REMARK    1  A    between atoms: N_2  and  C_4
REMARK    2  A    between atoms: C_7  and  C_8
REMARK    3  A    between atoms: C_8  and  N_9
REMARK    4  A    between atoms: C_15  and  C_16
REMARK                            x       y       z     vdW  Elec       q    Type
REMARK                         _______ _______ _______ _____ _____    ______ ____
ROOT
ATOM      1  N   UNL     1      29.713  22.992  28.032  0.00  0.00    +0.000 N 
ATOM      2  C   UNL     1      29.933  24.319  27.754  0.00  0.00    +0.000 C 
ATOM      3  C   UNL     1      31.237  24.927  28.026  0.00  0.00    +0.000 C 
ATOM      4  C   UNL     1      32.273  23.930  28.338  0.00  0.00    +0.000 C 
ATOM      5  C   UNL     1      31.916  22.598  28.727  0.00  0.00    +0.000 C 
ATOM      6  C   UNL     1      30.410  22.529  29.345  0.00  0.00    +0.000 C 
ATOM      7  C   UNL     1      30.467  24.055  30.102  0.00  0.00    +0.000 C 
ATOM      8  C   UNL     1      28.904  24.410  29.921  0.00  0.00    +0.000 C 
ATOM      9  C   UNL     1      28.113  23.179  29.776  0.00  0.00    +0.000 C 
ATOM     10  C   UNL     1      28.314  22.679  28.346  0.00  0.00    +0.000 C 
ENDROOT
BRANCH   7  11
ATOM     11  C   UNL     1      30.258  23.418  31.593  0.00  0.00    +0.000 C 
ATOM     12  O   UNL     1      31.267  23.999  32.373  0.00  0.00    +0.000 OA
ENDBRANCH   7  11
BRANCH   1  13
ATOM     13  C   UNL     1      30.186  22.054  27.004  0.00  0.00    +0.000 C 
BRANCH  13  17
ATOM     14  C   UNL     1      29.166  23.735  23.195  0.00  0.00    +0.000 A 
ATOM     15  C   UNL     1      28.202  23.201  24.039  0.00  0.00    +0.000 A 
ATOM     16  C   UNL     1      28.506  22.654  25.269  0.00  0.00    +0.000 A 
ATOM     17  C   UNL     1      29.808  22.624  25.705  0.00  0.00    +0.000 A 
ATOM     18  C   UNL     1      30.782  23.147  24.888  0.00  0.00    +0.000 A 
ATOM     19  C   UNL     1      30.467  23.691  23.659  0.00  0.00    +0.000 A 
BRANCH  14  21
ATOM     20  O   UNL     1      29.694  24.277  21.042  0.00  0.00    +0.000 OA
ATOM     21  N   UNL     1      28.851  24.291  21.941  0.00  0.00    +0.000 N 
ATOM     22  O   UNL     1      27.627  24.840  21.726  0.00  0.00    +0.000 OA
ENDBRANCH  14  21
ENDBRANCH  13  17
ENDBRANCH   1  13
TORSDOF 4
ENDMDL
MODEL 7
REMARK VINA RESULT:      -5.5     28.776     30.563
REMARK  Name = 
REMARK  4 active torsions:
REMARK  status: ('A' for Active; 'I' for Inactive)
REMARK    1  A    between atoms: N_2  and  C_4
REMARK    2  A    between atoms: C_7  and  C_8
REMARK    3  A    between atoms: C_8  and  N_9
REMARK    4  A    between atoms: C_15  and  C_16
REMARK                            x       y       z     vdW  Elec       q    Type
REMARK                         _______ _______ _______ _____ _____    ______ ____
ROOT
ATOM      1  N   UNL     1      33.232  -6.320  31.471  0.00  0.00    +0.000 N 
ATOM      2  C   UNL     1      32.062  -5.750  31.029  0.00  0.00    +0.000 C 
ATOM      3  C   UNL     1      30.823  -6.529  31.001  0.00  0.00    +0.000 C 
ATOM      4  C   UNL     1      30.939  -7.804  31.725  0.00  0.00    +0.000 C 
ATOM      5  C   UNL     1      32.224  -8.359  32.034  0.00  0.00    +0.000 C 
ATOM      6  C   UNL     1      33.381  -7.806  31.030  0.00  0.00    +0.000 C 
ATOM      7  C   UNL     1      32.382  -7.717  29.651  0.00  0.00    +0.000 C 
ATOM      8  C   UNL     1      33.105  -6.442  28.981  0.00  0.00    +0.000 C 
ATOM      9  C   UNL     1      34.491  -6.329  29.458  0.00  0.00    +0.000 C 
ATOM     10  C   UNL     1      34.436  -5.738  30.866  0.00  0.00    +0.000 C 
ENDROOT
BRANCH   7  11
ATOM     11  C   UNL     1      33.285  -8.799  28.822  0.00  0.00    +0.000 C 
ATOM     12  O   UNL     1      32.426  -9.298  27.835  0.00  0.00    +0.000 OA
ENDBRANCH   7  11
BRANCH   1  13
ATOM     13  C   UNL     1      33.401  -6.342  32.931  0.00  0.00    +0.000 C 
BRANCH  13  17
ATOM     14  C   UNL     1      32.611  -2.384  34.374  0.00  0.00    +0.000 A 
ATOM     15  C   UNL     1      33.572  -2.628  33.403  0.00  0.00    +0.000 A 
ATOM     16  C   UNL     1      33.844  -3.893  32.922  0.00  0.00    +0.000 A 
ATOM     17  C   UNL     1      33.151  -4.976  33.407  0.00  0.00    +0.000 A 
ATOM     18  C   UNL     1      32.194  -4.760  34.369  0.00  0.00    +0.000 A 
ATOM     19  C   UNL     1      31.930  -3.491  34.843  0.00  0.00    +0.000 A 
BRANCH  14  21
ATOM     20  O   UNL     1      31.939  -0.952  36.019  0.00  0.00    +0.000 OA
ATOM     21  N   UNL     1      32.337  -1.091  34.862  0.00  0.00    +0.000 N 
ATOM     22  O   UNL     1      32.510  -0.009  34.058  0.00  0.00    +0.000 OA
ENDBRANCH  14  21
ENDBRANCH  13  17
ENDBRANCH   1  13
TORSDOF 4
ENDMDL
MODEL 8
REMARK VINA RESULT:      -5.4      2.317      3.567
REMARK  Name = 
REMARK  4 active torsions:
REMARK  status: ('A' for Active; 'I' for Inactive)
REMARK    1  A    between atoms: N_2  and  C_4
REMARK    2  A    between atoms: C_7  and  C_8
REMARK    3  A    between atoms: C_8  and  N_9
REMARK    4  A    between atoms: C_15  and  C_16
REMARK                            x       y       z     vdW  Elec       q    Type
REMARK                         _______ _______ _______ _____ _____    ______ ____
ROOT
ATOM      1  N   UNL     1      28.361  23.459  25.245  0.00  0.00    +0.000 N 
ATOM      2  C   UNL     1      28.216  24.720  25.771  0.00  0.00    +0.000 C 
ATOM      3  C   UNL     1      26.894  25.344  25.849  0.00  0.00    +0.000 C 
ATOM      4  C   UNL     1      25.803  24.396  25.576  0.00  0.00    +0.000 C 
ATOM      5  C   UNL     1      26.061  23.151  24.914  0.00  0.00    +0.000 C 
ATOM      6  C   UNL     1      27.425  23.207  24.026  0.00  0.00    +0.000 C 
ATOM      7  C   UNL     1      27.253  24.836  23.552  0.00  0.00    +0.000 C 
ATOM      8  C   UNL     1      28.827  25.180  23.496  0.00  0.00    +0.000 C 
ATOM      9  C   UNL     1      29.612  23.954  23.289  0.00  0.00    +0.000 C 
ATOM     10  C   UNL     1      29.672  23.224  24.630  0.00  0.00    +0.000 C 
ENDROOT
BRANCH   7  11
ATOM     11  C   UNL     1      27.172  24.454  21.964  0.00  0.00    +0.000 C 
ATOM     12  O   UNL     1      27.300  25.679  21.297  0.00  0.00    +0.000 OA
ENDBRANCH   7  11
BRANCH   1  13
ATOM     13  C   UNL     1      28.071  22.359  26.175  0.00  0.00    +0.000 C 
BRANCH  13  17
ATOM     14  C   UNL     1      30.889  22.658  29.391  0.00  0.00    +0.000 A 
ATOM     15  C   UNL     1      31.251  22.159  28.147  0.00  0.00    +0.000 A 
ATOM     16  C   UNL     1      30.362  22.053  27.097  0.00  0.00    +0.000 A 
ATOM     17  C   UNL     1      29.057  22.450  27.259  0.00  0.00    +0.000 A 
ATOM     18  C   UNL     1      28.674  22.948  28.481  0.00  0.00    +0.000 A 
ATOM     19  C   UNL     1      29.571  23.050  29.525  0.00  0.00    +0.000 A 
BRANCH  14  21
ATOM     20  O   UNL     1      32.908  22.234  30.366  0.00  0.00    +0.000 OA
ATOM     21  N   UNL     1      31.800  22.764  30.460  0.00  0.00    +0.000 N 
ATOM     22  O   UNL     1      31.455  23.444  31.584  0.00  0.00    +0.000 OA
ENDBRANCH  14  21
ENDBRANCH  13  17
ENDBRANCH   1  13
TORSDOF 4
ENDMDL
MODEL 9
REMARK VINA RESULT:      -5.4     17.587     19.438
REMARK  Name = 
REMARK  4 active torsions:
REMARK  status: ('A' for Active; 'I' for Inactive)
REMARK    1  A    between atoms: N_2  and  C_4
REMARK    2  A    between atoms: C_7  and  C_8
REMARK    3  A    between atoms: C_8  and  N_9
REMARK    4  A    between atoms: C_15  and  C_16
REMARK                            x       y       z     vdW  Elec       q    Type
REMARK                         _______ _______ _______ _____ _____    ______ ____
ROOT
ATOM      1  N   UNL     1      22.572  10.870  38.201  0.00  0.00    +0.000 N 
ATOM      2  C   UNL     1      22.683  11.010  36.838  0.00  0.00    +0.000 C 
ATOM      3  C   UNL     1      23.478  10.061  36.057  0.00  0.00    +0.000 C 
ATOM      4  C   UNL     1      23.866   8.874  36.834  0.00  0.00    +0.000 C 
ATOM      5  C   UNL     1      23.816   8.885  38.266  0.00  0.00    +0.000 C 
ATOM      6  C   UNL     1      23.899  10.397  38.865  0.00  0.00    +0.000 C 
ATOM      7  C   UNL     1      24.958  10.995  37.670  0.00  0.00    +0.000 C 
ATOM      8  C   UNL     1      24.381  12.500  37.648  0.00  0.00    +0.000 C 
ATOM      9  C   UNL     1      23.724  12.816  38.925  0.00  0.00    +0.000 C 
ATOM     10  C   UNL     1      22.355  12.137  38.908  0.00  0.00    +0.000 C 
ENDROOT
BRANCH   7  11
ATOM     11  C   UNL     1      26.126  11.346  38.759  0.00  0.00    +0.000 C 
ATOM     12  O   UNL     1      27.236  10.600  38.341  0.00  0.00    +0.000 OA
ENDBRANCH   7  11
BRANCH   1  13
ATOM     13  C   UNL     1      21.562   9.901  38.647  0.00  0.00    +0.000 C 
BRANCH  13  17
ATOM     14  C   UNL     1      17.931  10.837  36.570  0.00  0.00    +0.000 A 
ATOM     15  C   UNL     1      18.309  11.514  37.721  0.00  0.00    +0.000 A 
ATOM     16  C   UNL     1      19.473  11.231  38.407  0.00  0.00    +0.000 A 
ATOM     17  C   UNL     1      20.313  10.242  37.956  0.00  0.00    +0.000 A 
ATOM     18  C   UNL     1      19.961   9.557  36.817  0.00  0.00    +0.000 A 
ATOM     19  C   UNL     1      18.795   9.848  36.139  0.00  0.00    +0.000 A 
BRANCH  14  21
ATOM     20  O   UNL     1      15.682  11.213  36.494  0.00  0.00    +0.000 OA
ATOM     21  N   UNL     1      16.743  11.129  35.874  0.00  0.00    +0.000 N 
ATOM     22  O   UNL     1      16.769  11.315  34.528  0.00  0.00    +0.000 OA
ENDBRANCH  14  21
ENDBRANCH  13  17
ENDBRANCH   1  13
TORSDOF 4
ENDMDL
MODEL 10
REMARK VINA RESULT:      -5.4     32.305     33.455
REMARK  Name = 
REMARK  4 active torsions:
REMARK  status: ('A' for Active; 'I' for Inactive)
REMARK    1  A    between atoms: N_2  and  C_4
REMARK    2  A    between atoms: C_7  and  C_8
REMARK    3  A    between atoms: C_8  and  N_9
REMARK    4  A    between atoms: C_15  and  C_16
REMARK                            x       y       z     vdW  Elec       q    Type
REMARK                         _______ _______ _______ _____ _____    ______ ____
ROOT
ATOM      1  N   UNL     1      22.379  -8.906  23.537  0.00  0.00    +0.000 N 
ATOM      2  C   UNL     1      21.187  -9.496  23.190  0.00  0.00    +0.000 C 
ATOM      3  C   UNL     1      21.023 -10.947  23.287  0.00  0.00    +0.000 C 
ATOM      4  C   UNL     1      22.121 -11.594  24.022  0.00  0.00    +0.000 C 
ATOM      5  C   UNL     1      23.367 -10.916  24.225  0.00  0.00    +0.000 C 
ATOM      6  C   UNL     1      23.615  -9.753  23.112  0.00  0.00    +0.000 C 
ATOM      7  C   UNL     1      22.867 -10.587  21.827  0.00  0.00    +0.000 C 
ATOM      8  C   UNL     1      22.293  -9.284  21.070  0.00  0.00    +0.000 C 
ATOM      9  C   UNL     1      23.088  -8.097  21.420  0.00  0.00    +0.000 C 
ATOM     10  C   UNL     1      22.650  -7.656  22.816  0.00  0.00    +0.000 C 
ENDROOT
BRANCH   7  11
ATOM     11  C   UNL     1      24.240 -10.627  20.941  0.00  0.00    +0.000 C 
ATOM     12  O   UNL     1      24.016 -11.624  19.982  0.00  0.00    +0.000 OA
ENDBRANCH   7  11
BRANCH   1  13
ATOM     13  C   UNL     1      22.561  -8.670  24.976  0.00  0.00    +0.000 C 
BRANCH  13  17
ATOM     14  C   UNL     1      19.136  -6.475  26.327  0.00  0.00    +0.000 A 
ATOM     15  C   UNL     1      20.196  -5.850  25.682  0.00  0.00    +0.000 A 
ATOM     16  C   UNL     1      21.308  -6.536  25.238  0.00  0.00    +0.000 A 
ATOM     17  C   UNL     1      21.401  -7.893  25.428  0.00  0.00    +0.000 A 
ATOM     18  C   UNL     1      20.364  -8.535  26.063  0.00  0.00    +0.000 A 
ATOM     19  C   UNL     1      19.256  -7.839  26.503  0.00  0.00    +0.000 A 
BRANCH  14  21
ATOM     20  O   UNL     1      17.988  -4.541  26.713  0.00  0.00    +0.000 OA
ATOM     21  N   UNL     1      18.003  -5.771  26.778  0.00  0.00    +0.000 N 
ATOM     22  O   UNL     1      16.938  -6.447  27.283  0.00  0.00    +0.000 OA
ENDBRANCH  14  21
ENDBRANCH  13  17
ENDBRANCH   1  13
TORSDOF 4
ENDMDL
