MODEL 1
REMARK VINA RESULT:      -5.8      0.000      0.000
REMARK  Name = 
REMARK  3 active torsions:
REMARK  status: ('A' for Active; 'I' for Inactive)
REMARK    1  A    between atoms: C_4  and  N_5
REMARK    2  A    between atoms: N_11  and  C_12
REMARK    3  A    between atoms: C_12  and  C_13
REMARK                            x       y       z     vdW  Elec       q    Type
REMARK                         _______ _______ _______ _____ _____    ______ ____
ROOT
ATOM      1  N   UNL     1      26.030  24.174  30.983  0.00  0.00    +0.000 NA
ATOM      2  C   UNL     1      25.891  24.222  29.548  0.00  0.00    +0.000 A 
ATOM      3  N   UNL     1      24.975  24.976  28.952  0.00  0.00    +0.000 NA
ATOM      4  C   UNL     1      24.836  25.029  27.602  0.00  0.00    +0.000 A 
ATOM      5  C   UNL     1      25.729  24.229  26.886  0.00  0.00    +0.000 A 
ATOM      6  N   UNL     1      25.846  24.064  25.557  0.00  0.00    +0.000 NA
ATOM      7  C   UNL     1      26.854  23.192  25.376  0.00  0.00    +0.000 A 
ATOM      8  N   UNL     1      27.375  22.804  26.549  0.00  0.00    +0.000 N 
ATOM      9  C   UNL     1      26.678  23.447  27.498  0.00  0.00    +0.000 A 
ATOM     10  N   UNL     1      26.730  23.468  28.842  0.00  0.00    +0.000 NA
ENDROOT
BRANCH   4  11
ATOM     11  N   UNL     1      23.874  25.820  26.950  0.00  0.00    +0.000 N 
ATOM     12  C   UNL     1      22.453  26.328  26.922  0.00  0.00    +0.000 C 
ATOM     13  C   UNL     1      23.401  26.698  25.933  0.00  0.00    +0.000 C 
ENDBRANCH   4  11
BRANCH   8  14
ATOM     14  C   UNL     1      28.455  21.889  26.718  0.00  0.00    +0.000 C 
BRANCH  14  15
ATOM     15  C   UNL     1      29.710  22.574  26.285  0.00  0.00    +0.000 A 
ATOM     16  C   UNL     1      30.195  22.415  24.999  0.00  0.00    +0.000 A 
ATOM     17  C   UNL     1      31.354  23.047  24.598  0.00  0.00    +0.000 A 
ATOM     18  C   UNL     1      32.076  23.861  25.455  0.00  0.00    +0.000 A 
ATOM     19  C   UNL     1      31.597  24.027  26.744  0.00  0.00    +0.000 A 
ATOM     20  C   UNL     1      30.433  23.385  27.133  0.00  0.00    +0.000 A 
ENDBRANCH  14  15
ENDBRANCH   8  14
TORSDOF 3
ENDMDL
MODEL 2
REMARK VINA RESULT:      -5.8     31.630     33.429
REMARK  Name = 
REMARK  3 active torsions:
REMARK  status: ('A' for Active; 'I' for Inactive)
REMARK    1  A    between atoms: C_4  and  N_5
REMARK    2  A    between atoms: N_11  and  C_12
REMARK    3  A    between atoms: C_12  and  C_13
REMARK                            x       y       z     vdW  Elec       q    Type
REMARK                         _______ _______ _______ _____ _____    ______ ____
ROOT
ATOM      1  N   UNL     1      18.192  -4.517  26.593  0.00  0.00    +0.000 NA
ATOM      2  C   UNL     1      18.991  -5.673  26.271  0.00  0.00    +0.000 A 
ATOM      3  N   UNL     1      20.140  -5.576  25.611  0.00  0.00    +0.000 NA
ATOM      4  C   UNL     1      20.900  -6.658  25.303  0.00  0.00    +0.000 A 
ATOM      5  C   UNL     1      20.385  -7.883  25.731  0.00  0.00    +0.000 A 
ATOM      6  N   UNL     1      20.893  -9.118  25.583  0.00  0.00    +0.000 NA
ATOM      7  C   UNL     1      20.018  -9.955  26.170  0.00  0.00    +0.000 A 
ATOM      8  N   UNL     1      18.977  -9.284  26.683  0.00  0.00    +0.000 N 
ATOM      9  C   UNL     1      19.197  -7.988  26.414  0.00  0.00    +0.000 A 
ATOM     10  N   UNL     1      18.522  -6.853  26.668  0.00  0.00    +0.000 NA
ENDROOT
BRANCH   4  11
ATOM     11  N   UNL     1      22.119  -6.578  24.605  0.00  0.00    +0.000 N 
ATOM     12  C   UNL     1      22.814  -6.471  23.271  0.00  0.00    +0.000 C 
ATOM     13  C   UNL     1      23.537  -6.532  24.490  0.00  0.00    +0.000 C 
ENDBRANCH   4  11
BRANCH   8  14
ATOM     14  C   UNL     1      17.872  -9.864  27.373  0.00  0.00    +0.000 C 
BRANCH  14  15
ATOM     15  C   UNL     1      18.211  -9.909  28.828  0.00  0.00    +0.000 A 
ATOM     16  C   UNL     1      17.229 -10.136  29.776  0.00  0.00    +0.000 A 
ATOM     17  C   UNL     1      17.540 -10.177  31.119  0.00  0.00    +0.000 A 
ATOM     18  C   UNL     1      18.835  -9.995  31.575  0.00  0.00    +0.000 A 
ATOM     19  C   UNL     1      19.825  -9.767  30.632  0.00  0.00    +0.000 A 
ATOM     20  C   UNL     1      19.498  -9.728  29.287  0.00  0.00    +0.000 A 
ENDBRANCH  14  15
ENDBRANCH   8  14
TORSDOF 3
ENDMDL
MODEL 3
REMARK VINA RESULT:      -5.7      1.626      2.089
REMARK  Name = 
REMARK  3 active torsions:
REMARK  status: ('A' for Active; 'I' for Inactive)
REMARK    1  A    between atoms: C_4  and  N_5
REMARK    2  A    between atoms: N_11  and  C_12
REMARK    3  A    between atoms: C_12  and  C_13
REMARK                            x       y       z     vdW  Elec       q    Type
REMARK                         _______ _______ _______ _____ _____    ______ ____
ROOT
ATOM      1  N   UNL     1      26.311  22.998  30.791  0.00  0.00    +0.000 NA
ATOM      2  C   UNL     1      25.995  23.860  29.679  0.00  0.00    +0.000 A 
ATOM      3  N   UNL     1      25.525  25.091  29.852  0.00  0.00    +0.000 NA
ATOM      4  C   UNL     1      25.225  25.911  28.812  0.00  0.00    +0.000 A 
ATOM      5  C   UNL     1      25.447  25.365  27.546  0.00  0.00    +0.000 A 
ATOM      6  N   UNL     1      25.252  25.916  26.336  0.00  0.00    +0.000 NA
ATOM      7  C   UNL     1      25.616  24.983  25.438  0.00  0.00    +0.000 A 
ATOM      8  N   UNL     1      26.035  23.864  26.045  0.00  0.00    +0.000 N 
ATOM      9  C   UNL     1      25.933  24.094  27.364  0.00  0.00    +0.000 A 
ATOM     10  N   UNL     1      26.198  23.364  28.461  0.00  0.00    +0.000 NA
ENDROOT
BRANCH   4  11
ATOM     11  N   UNL     1      24.726  27.217  28.972  0.00  0.00    +0.000 N 
ATOM     12  C   UNL     1      25.017  28.652  29.334  0.00  0.00    +0.000 C 
ATOM     13  C   UNL     1      23.718  28.221  28.957  0.00  0.00    +0.000 C 
ENDBRANCH   4  11
BRANCH   8  14
ATOM     14  C   UNL     1      26.493  22.683  25.390  0.00  0.00    +0.000 C 
BRANCH  14  15
ATOM     15  C   UNL     1      27.962  22.825  25.161  0.00  0.00    +0.000 A 
ATOM     16  C   UNL     1      28.447  23.302  23.956  0.00  0.00    +0.000 A 
ATOM     17  C   UNL     1      29.804  23.433  23.743  0.00  0.00    +0.000 A 
ATOM     18  C   UNL     1      30.732  23.097  24.715  0.00  0.00    +0.000 A 
ATOM     19  C   UNL     1      30.255  22.618  25.925  0.00  0.00    +0.000 A 
ATOM     20  C   UNL     1      28.890  22.492  26.125  0.00  0.00    +0.000 A 
ENDBRANCH  14  15
ENDBRANCH   8  14
TORSDOF 3
ENDMDL
MODEL 4
REMARK VINA RESULT:      -5.7     15.821     18.492
REMARK  Name = 
REMARK  3 active torsions:
REMARK  status: ('A' for Active; 'I' for Inactive)
REMARK    1  A    between atoms: C_4  and  N_5
REMARK    2  A    between atoms: N_11  and  C_12
REMARK    3  A    between atoms: C_12  and  C_13
REMARK                            x       y       z     vdW  Elec       q    Type
REMARK                         _______ _______ _______ _____ _____    ______ ____
ROOT
ATOM      1  N   UNL     1      34.023  23.660   8.388  0.00  0.00    +0.000 NA
ATOM      2  C   UNL     1      32.937  22.719   8.508  0.00  0.00    +0.000 A 
ATOM      3  N   UNL     1      32.524  21.982   7.483  0.00  0.00    +0.000 NA
ATOM      4  C   UNL     1      31.502  21.093   7.586  0.00  0.00    +0.000 A 
ATOM      5  C   UNL     1      30.916  21.011   8.851  0.00  0.00    +0.000 A 
ATOM      6  N   UNL     1      29.900  20.238   9.269  0.00  0.00    +0.000 NA
ATOM      7  C   UNL     1      29.716  20.533  10.569  0.00  0.00    +0.000 A 
ATOM      8  N   UNL     1      30.586  21.466  10.980  0.00  0.00    +0.000 N 
ATOM      9  C   UNL     1      31.340  21.771   9.913  0.00  0.00    +0.000 A 
ATOM     10  N   UNL     1      32.361  22.622   9.704  0.00  0.00    +0.000 NA
ENDROOT
BRANCH   4  11
ATOM     11  N   UNL     1      31.049  20.304   6.514  0.00  0.00    +0.000 N 
ATOM     12  C   UNL     1      31.104  18.974   5.804  0.00  0.00    +0.000 C 
ATOM     13  C   UNL     1      30.289  20.039   5.340  0.00  0.00    +0.000 C 
ENDBRANCH   4  11
BRANCH   8  14
ATOM     14  C   UNL     1      30.666  22.005  12.298  0.00  0.00    +0.000 C 
BRANCH  14  15
ATOM     15  C   UNL     1      29.376  22.700  12.590  0.00  0.00    +0.000 A 
ATOM     16  C   UNL     1      29.236  23.485  13.720  0.00  0.00    +0.000 A 
ATOM     17  C   UNL     1      28.045  24.128  13.991  0.00  0.00    +0.000 A 
ATOM     18  C   UNL     1      26.948  24.016  13.152  0.00  0.00    +0.000 A 
ATOM     19  C   UNL     1      27.080  23.232  12.018  0.00  0.00    +0.000 A 
ATOM     20  C   UNL     1      28.282  22.593  11.759  0.00  0.00    +0.000 A 
ENDBRANCH  14  15
ENDBRANCH   8  14
TORSDOF 3
ENDMDL
MODEL 5
REMARK VINA RESULT:      -5.5      2.507      5.112
REMARK  Name = 
REMARK  3 active torsions:
REMARK  status: ('A' for Active; 'I' for Inactive)
REMARK    1  A    between atoms: C_4  and  N_5
REMARK    2  A    between atoms: N_11  and  C_12
REMARK    3  A    between atoms: C_12  and  C_13
REMARK                            x       y       z     vdW  Elec       q    Type
REMARK                         _______ _______ _______ _____ _____    ______ ____
ROOT
ATOM      1  N   UNL     1      25.732  24.026  30.637  0.00  0.00    +0.000 NA
ATOM      2  C   UNL     1      26.811  23.626  29.769  0.00  0.00    +0.000 A 
ATOM      3  N   UNL     1      28.046  23.433  30.220  0.00  0.00    +0.000 NA
ATOM      4  C   UNL     1      29.069  23.056  29.411  0.00  0.00    +0.000 A 
ATOM      5  C   UNL     1      28.728  22.884  28.068  0.00  0.00    +0.000 A 
ATOM      6  N   UNL     1      29.503  22.520  27.033  0.00  0.00    +0.000 NA
ATOM      7  C   UNL     1      28.700  22.500  25.953  0.00  0.00    +0.000 A 
ATOM      8  N   UNL     1      27.445  22.840  26.278  0.00  0.00    +0.000 N 
ATOM      9  C   UNL     1      27.452  23.082  27.598  0.00  0.00    +0.000 A 
ATOM     10  N   UNL     1      26.512  23.455  28.483  0.00  0.00    +0.000 NA
ENDROOT
BRANCH   4  11
ATOM     11  N   UNL     1      30.383  22.847  29.867  0.00  0.00    +0.000 N 
ATOM     12  C   UNL     1      31.348  21.942  30.592  0.00  0.00    +0.000 C 
ATOM     13  C   UNL     1      31.752  23.190  30.051  0.00  0.00    +0.000 C 
ENDBRANCH   4  11
BRANCH   8  14
ATOM     14  C   UNL     1      26.344  22.918  25.374  0.00  0.00    +0.000 C 
BRANCH  14  15
ATOM     15  C   UNL     1      26.697  23.897  24.303  0.00  0.00    +0.000 A 
ATOM     16  C   UNL     1      26.790  25.249  24.584  0.00  0.00    +0.000 A 
ATOM     17  C   UNL     1      27.117  26.155  23.596  0.00  0.00    +0.000 A 
ATOM     18  C   UNL     1      27.363  25.757  22.292  0.00  0.00    +0.000 A 
ATOM     19  C   UNL     1      27.271  24.405  22.002  0.00  0.00    +0.000 A 
ATOM     20  C   UNL     1      26.943  23.507  23.004  0.00  0.00    +0.000 A 
ENDBRANCH  14  15
ENDBRANCH   8  14
TORSDOF 3
ENDMDL
MODEL 6
REMARK VINA RESULT:      -5.4     33.043     34.511
REMARK  Name = 
REMARK  3 active torsions:
REMARK  status: ('A' for Active; 'I' for Inactive)
REMARK    1  A    between atoms: C_4  and  N_5
REMARK    2  A    between atoms: N_11  and  C_12
REMARK    3  A    between atoms: C_12  and  C_13
REMARK                            x       y       z     vdW  Elec       q    Type
REMARK                         _______ _______ _______ _____ _____    ______ ____
ROOT
ATOM      1  N   UNL     1      17.514 -10.565  21.575  0.00  0.00    +0.000 NA
ATOM      2  C   UNL     1      16.504  -9.973  22.417  0.00  0.00    +0.000 A 
ATOM      3  N   UNL     1      15.285  -9.695  21.969  0.00  0.00    +0.000 NA
ATOM      4  C   UNL     1      14.327  -9.138  22.754  0.00  0.00    +0.000 A 
ATOM      5  C   UNL     1      14.719  -8.878  24.069  0.00  0.00    +0.000 A 
ATOM      6  N   UNL     1      14.012  -8.340  25.077  0.00  0.00    +0.000 NA
ATOM      7  C   UNL     1      14.840  -8.304  26.137  0.00  0.00    +0.000 A 
ATOM      8  N   UNL     1      16.044  -8.804  25.827  0.00  0.00    +0.000 N 
ATOM      9  C   UNL     1      15.978  -9.165  24.537  0.00  0.00    +0.000 A 
ATOM     10  N   UNL     1      16.852  -9.716  23.676  0.00  0.00    +0.000 NA
ENDROOT
BRANCH   4  11
ATOM     11  N   UNL     1      13.031  -8.834  22.301  0.00  0.00    +0.000 N 
ATOM     12  C   UNL     1      11.779  -9.320  21.615  0.00  0.00    +0.000 C 
ATOM     13  C   UNL     1      11.905  -7.989  22.091  0.00  0.00    +0.000 C 
ENDBRANCH   4  11
BRANCH   8  14
ATOM     14  C   UNL     1      17.153  -8.914  26.717  0.00  0.00    +0.000 C 
BRANCH  14  15
ATOM     15  C   UNL     1      18.038  -7.731  26.498  0.00  0.00    +0.000 A 
ATOM     16  C   UNL     1      17.700  -6.490  27.008  0.00  0.00    +0.000 A 
ATOM     17  C   UNL     1      18.517  -5.397  26.805  0.00  0.00    +0.000 A 
ATOM     18  C   UNL     1      19.699  -5.491  26.090  0.00  0.00    +0.000 A 
ATOM     19  C   UNL     1      20.046  -6.730  25.576  0.00  0.00    +0.000 A 
ATOM     20  C   UNL     1      19.216  -7.819  25.787  0.00  0.00    +0.000 A 
ENDBRANCH  14  15
ENDBRANCH   8  14
TORSDOF 3
ENDMDL
MODEL 7
REMARK VINA RESULT:      -5.4     32.132     33.950
REMARK  Name = 
REMARK  3 active torsions:
REMARK  status: ('A' for Active; 'I' for Inactive)
REMARK    1  A    between atoms: C_4  and  N_5
REMARK    2  A    between atoms: N_11  and  C_12
REMARK    3  A    between atoms: C_12  and  C_13
REMARK                            x       y       z     vdW  Elec       q    Type
REMARK                         _______ _______ _______ _____ _____    ______ ____
ROOT
ATOM      1  N   UNL     1      18.253  -4.575  26.541  0.00  0.00    +0.000 NA
ATOM      2  C   UNL     1      19.076  -5.738  26.324  0.00  0.00    +0.000 A 
ATOM      3  N   UNL     1      20.158  -5.704  25.555  0.00  0.00    +0.000 NA
ATOM      4  C   UNL     1      20.940  -6.794  25.344  0.00  0.00    +0.000 A 
ATOM      5  C   UNL     1      20.521  -7.956  25.996  0.00  0.00    +0.000 A 
ATOM      6  N   UNL     1      21.073  -9.182  25.988  0.00  0.00    +0.000 NA
ATOM      7  C   UNL     1      20.292  -9.948  26.772  0.00  0.00    +0.000 A 
ATOM      8  N   UNL     1      19.268  -9.241  27.272  0.00  0.00    +0.000 N 
ATOM      9  C   UNL     1      19.403  -7.995  26.792  0.00  0.00    +0.000 A 
ATOM     10  N   UNL     1      18.698  -6.859  26.934  0.00  0.00    +0.000 NA
ENDROOT
BRANCH   4  11
ATOM     11  N   UNL     1      22.090  -6.781  24.534  0.00  0.00    +0.000 N 
ATOM     12  C   UNL     1      23.555  -6.443  24.413  0.00  0.00    +0.000 C 
ATOM     13  C   UNL     1      22.825  -7.011  23.336  0.00  0.00    +0.000 C 
ENDBRANCH   4  11
BRANCH   8  14
ATOM     14  C   UNL     1      18.254  -9.746  28.139  0.00  0.00    +0.000 C 
BRANCH  14  15
ATOM     15  C   UNL     1      17.178 -10.341  27.290  0.00  0.00    +0.000 A 
ATOM     16  C   UNL     1      17.175 -11.693  26.997  0.00  0.00    +0.000 A 
ATOM     17  C   UNL     1      16.182 -12.243  26.213  0.00  0.00    +0.000 A 
ATOM     18  C   UNL     1      15.154 -11.476  25.691  0.00  0.00    +0.000 A 
ATOM     19  C   UNL     1      15.149 -10.121  25.980  0.00  0.00    +0.000 A 
ATOM     20  C   UNL     1      16.153  -9.582  26.768  0.00  0.00    +0.000 A 
ENDBRANCH  14  15
ENDBRANCH   8  14
TORSDOF 3
ENDMDL
MODEL 8
REMARK VINA RESULT:      -5.4     31.578     33.162
REMARK  Name = 
REMARK  3 active torsions:
REMARK  status: ('A' for Active; 'I' for Inactive)
REMARK    1  A    between atoms: C_4  and  N_5
REMARK    2  A    between atoms: N_11  and  C_12
REMARK    3  A    between atoms: C_12  and  C_13
REMARK                            x       y       z     vdW  Elec       q    Type
REMARK                         _______ _______ _______ _____ _____    ______ ____
ROOT
ATOM      1  N   UNL     1      17.612  -5.865  26.456  0.00  0.00    +0.000 NA
ATOM      2  C   UNL     1      18.416  -7.039  26.689  0.00  0.00    +0.000 A 
ATOM      3  N   UNL     1      18.393  -7.693  27.845  0.00  0.00    +0.000 NA
ATOM      4  C   UNL     1      19.146  -8.800  28.075  0.00  0.00    +0.000 A 
ATOM      5  C   UNL     1      19.948  -9.201  27.004  0.00  0.00    +0.000 A 
ATOM      6  N   UNL     1      20.793 -10.241  26.918  0.00  0.00    +0.000 NA
ATOM      7  C   UNL     1      21.322 -10.192  25.681  0.00  0.00    +0.000 A 
ATOM      8  N   UNL     1      20.834  -9.153  24.988  0.00  0.00    +0.000 N 
ATOM      9  C   UNL     1      19.974  -8.528  25.807  0.00  0.00    +0.000 A 
ATOM     10  N   UNL     1      19.190  -7.442  25.684  0.00  0.00    +0.000 NA
ENDROOT
BRANCH   4  11
ATOM     11  N   UNL     1      19.137  -9.507  29.291  0.00  0.00    +0.000 N 
ATOM     12  C   UNL     1      18.324 -10.241  30.328  0.00  0.00    +0.000 C 
ATOM     13  C   UNL     1      19.729 -10.082  30.450  0.00  0.00    +0.000 C 
ENDBRANCH   4  11
BRANCH   8  14
ATOM     14  C   UNL     1      21.181  -8.811  23.648  0.00  0.00    +0.000 C 
BRANCH  14  15
ATOM     15  C   UNL     1      22.496  -8.101  23.681  0.00  0.00    +0.000 A 
ATOM     16  C   UNL     1      23.624  -8.677  23.123  0.00  0.00    +0.000 A 
ATOM     17  C   UNL     1      24.838  -8.023  23.153  0.00  0.00    +0.000 A 
ATOM     18  C   UNL     1      24.982  -6.775  23.737  0.00  0.00    +0.000 A 
ATOM     19  C   UNL     1      23.858  -6.192  24.298  0.00  0.00    +0.000 A 
ATOM     20  C   UNL     1      22.645  -6.860  24.261  0.00  0.00    +0.000 A 
ENDBRANCH  14  15
ENDBRANCH   8  14
TORSDOF 3
ENDMDL
MODEL 9
REMARK VINA RESULT:      -5.3     31.852     33.740
REMARK  Name = 
REMARK  3 active torsions:
REMARK  status: ('A' for Active; 'I' for Inactive)
REMARK    1  A    between atoms: C_4  and  N_5
REMARK    2  A    between atoms: N_11  and  C_12
REMARK    3  A    between atoms: C_12  and  C_13
REMARK                            x       y       z     vdW  Elec       q    Type
REMARK                         _______ _______ _______ _____ _____    ______ ____
ROOT
ATOM      1  N   UNL     1      21.694 -11.219  27.130  0.00  0.00    +0.000 NA
ATOM      2  C   UNL     1      21.460  -9.899  26.599  0.00  0.00    +0.000 A 
ATOM      3  N   UNL     1      22.308  -9.314  25.761  0.00  0.00    +0.000 NA
ATOM      4  C   UNL     1      22.097  -8.071  25.255  0.00  0.00    +0.000 A 
ATOM      5  C   UNL     1      20.919  -7.453  25.680  0.00  0.00    +0.000 A 
ATOM      6  N   UNL     1      20.432  -6.242  25.364  0.00  0.00    +0.000 NA
ATOM      7  C   UNL     1      19.271  -6.119  26.033  0.00  0.00    +0.000 A 
ATOM      8  N   UNL     1      19.014  -7.215  26.760  0.00  0.00    +0.000 N 
ATOM      9  C   UNL     1      20.039  -8.055  26.546  0.00  0.00    +0.000 A 
ATOM     10  N   UNL     1      20.343  -9.288  26.988  0.00  0.00    +0.000 NA
ENDROOT
BRANCH   4  11
ATOM     11  N   UNL     1      22.982  -7.433  24.368  0.00  0.00    +0.000 N 
ATOM     12  C   UNL     1      24.001  -6.340  24.157  0.00  0.00    +0.000 C 
ATOM     13  C   UNL     1      23.629  -7.230  23.116  0.00  0.00    +0.000 C 
ENDBRANCH   4  11
BRANCH   8  14
ATOM     14  C   UNL     1      17.869  -7.416  27.585  0.00  0.00    +0.000 C 
BRANCH  14  15
ATOM     15  C   UNL     1      16.931  -8.323  26.856  0.00  0.00    +0.000 A 
ATOM     16  C   UNL     1      16.218  -7.870  25.761  0.00  0.00    +0.000 A 
ATOM     17  C   UNL     1      15.351  -8.706  25.087  0.00  0.00    +0.000 A 
ATOM     18  C   UNL     1      15.158 -10.022  25.473  0.00  0.00    +0.000 A 
ATOM     19  C   UNL     1      15.868 -10.484  26.570  0.00  0.00    +0.000 A 
ATOM     20  C   UNL     1      16.734  -9.633  27.236  0.00  0.00    +0.000 A 
ENDBRANCH  14  15
ENDBRANCH   8  14
TORSDOF 3
ENDMDL
MODEL 10
REMARK VINA RESULT:      -5.3      2.385      3.542
REMARK  Name = 
REMARK  3 active torsions:
REMARK  status: ('A' for Active; 'I' for Inactive)
REMARK    1  A    between atoms: C_4  and  N_5
REMARK    2  A    between atoms: N_11  and  C_12
REMARK    3  A    between atoms: C_12  and  C_13
REMARK                            x       y       z     vdW  Elec       q    Type
REMARK                         _______ _______ _______ _____ _____    ______ ____
ROOT
ATOM      1  N   UNL     1      27.425  28.376  23.221  0.00  0.00    +0.000 NA
ATOM      2  C   UNL     1      26.809  27.215  23.812  0.00  0.00    +0.000 A 
ATOM      3  N   UNL     1      25.702  27.298  24.543  0.00  0.00    +0.000 NA
ATOM      4  C   UNL     1      25.113  26.211  25.104  0.00  0.00    +0.000 A 
ATOM      5  C   UNL     1      25.757  24.997  24.856  0.00  0.00    +0.000 A 
ATOM      6  N   UNL     1      25.428  23.760  25.266  0.00  0.00    +0.000 NA
ATOM      7  C   UNL     1      26.365  22.937  24.761  0.00  0.00    +0.000 A 
ATOM      8  N   UNL     1      27.273  23.619  24.047  0.00  0.00    +0.000 N 
ATOM      9  C   UNL     1      26.901  24.907  24.101  0.00  0.00    +0.000 A 
ATOM     10  N   UNL     1      27.403  26.045  23.591  0.00  0.00    +0.000 NA
ENDROOT
BRANCH   4  11
ATOM     11  N   UNL     1      23.943  26.276  25.881  0.00  0.00    +0.000 N 
ATOM     12  C   UNL     1      22.457  26.537  25.921  0.00  0.00    +0.000 C 
ATOM     13  C   UNL     1      23.189  26.186  27.085  0.00  0.00    +0.000 C 
ENDBRANCH   4  11
BRANCH   8  14
ATOM     14  C   UNL     1      28.398  23.054  23.377  0.00  0.00    +0.000 C 
BRANCH  14  15
ATOM     15  C   UNL     1      29.595  23.241  24.250  0.00  0.00    +0.000 A 
ATOM     16  C   UNL     1      30.585  24.146  23.910  0.00  0.00    +0.000 A 
ATOM     17  C   UNL     1      31.691  24.319  24.716  0.00  0.00    +0.000 A 
ATOM     18  C   UNL     1      31.859  23.604  25.890  0.00  0.00    +0.000 A 
ATOM     19  C   UNL     1      30.873  22.695  26.238  0.00  0.00    +0.000 A 
ATOM     20  C   UNL     1      29.768  22.531  25.419  0.00  0.00    +0.000 A 
ENDBRANCH  14  15
ENDBRANCH   8  14
TORSDOF 3
ENDMDL
