MODEL 1
REMARK VINA RESULT:      -7.9      0.000      0.000
REMARK  Name = 
REMARK  8 active torsions:
REMARK  status: ('A' for Active; 'I' for Inactive)
REMARK    1  A    between atoms: O_2  and  C_3
REMARK    2  A    between atoms: C_7  and  N_8
REMARK    3  A    between atoms: N_8  and  C_9
REMARK    4  A    between atoms: C_10  and  S_11
REMARK    5  A    between atoms: S_11  and  C_12
REMARK    6  A    between atoms: N_21  and  C_22
REMARK    7  A    between atoms: C_22  and  C_23
REMARK    8  A    between atoms: C_23  and  C_24
REMARK                            x       y       z     vdW  Elec       q    Type
REMARK                         _______ _______ _______ _____ _____    ______ ____
ROOT
ATOM      1  C   UNL     1      37.242   1.755  15.066  0.00  0.00    +0.000 C 
ATOM      2  C   UNL     1      38.365   2.082  14.383  0.00  0.00    +0.000 C 
ATOM      3  C   UNL     1      38.786   3.371  14.872  0.00  0.00    +0.000 C 
ATOM      4  O   UNL     1      39.780   4.055  14.521  0.00  0.00    +0.000 OA
ATOM      5  N   UNL     1      37.876   3.849  15.900  0.00  0.00    +0.000 N 
ATOM      6  C   UNL     1      36.919   2.809  15.994  0.00  0.00    +0.000 C 
ATOM      7  O   UNL     1      35.950   2.880  16.808  0.00  0.00    +0.000 OA
ENDROOT
BRANCH   1   8
ATOM      8  N   UNL     1      36.510   0.566  14.888  0.00  0.00    +0.000 NA
BRANCH   8  13
ATOM      9  C   UNL     1      37.932  -2.276  16.844  0.00  0.00    +0.000 A 
ATOM     10  C   UNL     1      37.818  -3.261  15.888  0.00  0.00    +0.000 A 
ATOM     11  C   UNL     1      37.294  -3.033  14.630  0.00  0.00    +0.000 A 
ATOM     12  C   UNL     1      36.873  -1.742  14.346  0.00  0.00    +0.000 A 
ATOM     13  C   UNL     1      36.968  -0.724  15.274  0.00  0.00    +0.000 A 
ATOM     14  C   UNL     1      37.497  -1.014  16.503  0.00  0.00    +0.000 A 
BRANCH   9  16
ATOM     15  C   UNL     1      37.829  -2.195  19.256  0.00  0.00    +0.000 C 
ATOM     16  O   UNL     1      38.464  -2.594  18.063  0.00  0.00    +0.000 OA
ENDBRANCH   9  16
ENDBRANCH   8  13
ENDBRANCH   1   8
BRANCH   2  17
ATOM     17  S   UNL     1      39.120   1.075  13.142  0.00  0.00    +0.000 S 
BRANCH  17  18
ATOM     18  C   UNL     1      40.514   0.142  13.668  0.00  0.00    +0.000 A 
ATOM     19  C   UNL     1      41.772   0.753  13.515  0.00  0.00    +0.000 A 
ATOM     20  C   UNL     1      42.921   0.118  13.889  0.00  0.00    +0.000 A 
ATOM     21  C   UNL     1      42.944  -1.136  14.434  0.00  0.00    +0.000 A 
ATOM     22  C   UNL     1      44.183  -1.832  14.844  0.00  0.00    +0.000 C 
ATOM     23  C   UNL     1      41.694  -1.746  14.588  0.00  0.00    +0.000 A 
ATOM     24  C   UNL     1      40.540  -1.105  14.209  0.00  0.00    +0.000 A 
ENDBRANCH  17  18
ENDBRANCH   2  17
BRANCH   5  25
ATOM     25  C   UNL     1      37.965   5.100  16.628  0.00  0.00    +0.000 C 
BRANCH  25  26
ATOM     26  C   UNL     1      38.866   4.840  17.824  0.00  0.00    +0.000 C 
BRANCH  26  27
ATOM     27  C   UNL     1      39.021   6.061  18.661  0.00  0.00    +0.000 A 
ATOM     28  C   UNL     1      40.071   6.095  19.566  0.00  0.00    +0.000 A 
ATOM     29  C   UNL     1      40.195   7.236  20.330  0.00  0.00    +0.000 A 
ATOM     30  C   UNL     1      39.350   8.313  20.241  0.00  0.00    +0.000 A 
ATOM     31  C   UNL     1      38.302   8.261  19.328  0.00  0.00    +0.000 A 
ATOM     32  C   UNL     1      38.163   7.133  18.558  0.00  0.00    +0.000 A 
ENDBRANCH  26  27
ENDBRANCH  25  26
ENDBRANCH   5  25
TORSDOF 8
ENDMDL
MODEL 2
REMARK VINA RESULT:      -7.8      1.589      4.012
REMARK  Name = 
REMARK  8 active torsions:
REMARK  status: ('A' for Active; 'I' for Inactive)
REMARK    1  A    between atoms: O_2  and  C_3
REMARK    2  A    between atoms: C_7  and  N_8
REMARK    3  A    between atoms: N_8  and  C_9
REMARK    4  A    between atoms: C_10  and  S_11
REMARK    5  A    between atoms: S_11  and  C_12
REMARK    6  A    between atoms: N_21  and  C_22
REMARK    7  A    between atoms: C_22  and  C_23
REMARK    8  A    between atoms: C_23  and  C_24
REMARK                            x       y       z     vdW  Elec       q    Type
REMARK                         _______ _______ _______ _____ _____    ______ ____
ROOT
ATOM      1  C   UNL     1      37.782   1.894  14.363  0.00  0.00    +0.000 C 
ATOM      2  C   UNL     1      37.026   1.635  15.456  0.00  0.00    +0.000 C 
ATOM      3  C   UNL     1      37.046   2.828  16.265  0.00  0.00    +0.000 C 
ATOM      4  O   UNL     1      36.480   3.037  17.366  0.00  0.00    +0.000 OA
ATOM      5  N   UNL     1      37.853   3.859  15.632  0.00  0.00    +0.000 N 
ATOM      6  C   UNL     1      38.299   3.236  14.441  0.00  0.00    +0.000 C 
ATOM      7  O   UNL     1      39.044   3.850  13.619  0.00  0.00    +0.000 OA
ENDROOT
BRANCH   1   8
ATOM      8  N   UNL     1      38.021   0.983  13.316  0.00  0.00    +0.000 NA
BRANCH   8  13
ATOM      9  C   UNL     1      40.853  -1.313  14.113  0.00  0.00    +0.000 A 
ATOM     10  C   UNL     1      40.335  -2.472  13.578  0.00  0.00    +0.000 A 
ATOM     11  C   UNL     1      39.097  -2.532  12.968  0.00  0.00    +0.000 A 
ATOM     12  C   UNL     1      38.366  -1.355  12.906  0.00  0.00    +0.000 A 
ATOM     13  C   UNL     1      38.846  -0.171  13.429  0.00  0.00    +0.000 A 
ATOM     14  C   UNL     1      40.080  -0.177  14.021  0.00  0.00    +0.000 A 
BRANCH   9  16
ATOM     15  C   UNL     1      43.201  -1.873  14.009  0.00  0.00    +0.000 C 
ATOM     16  O   UNL     1      42.089  -1.348  14.698  0.00  0.00    +0.000 OA
ENDBRANCH   9  16
ENDBRANCH   8  13
ENDBRANCH   1   8
BRANCH   2  17
ATOM     17  S   UNL     1      36.197   0.106  15.771  0.00  0.00    +0.000 S 
BRANCH  17  18
ATOM     18  C   UNL     1      37.027  -0.996  16.861  0.00  0.00    +0.000 A 
ATOM     19  C   UNL     1      36.650  -0.941  18.216  0.00  0.00    +0.000 A 
ATOM     20  C   UNL     1      37.229  -1.751  19.148  0.00  0.00    +0.000 A 
ATOM     21  C   UNL     1      38.204  -2.663  18.851  0.00  0.00    +0.000 A 
ATOM     22  C   UNL     1      38.837  -3.546  19.854  0.00  0.00    +0.000 C 
ATOM     23  C   UNL     1      38.581  -2.720  17.505  0.00  0.00    +0.000 A 
ATOM     24  C   UNL     1      37.995  -1.903  16.568  0.00  0.00    +0.000 A 
ENDBRANCH  17  18
ENDBRANCH   2  17
BRANCH   5  25
ATOM     25  C   UNL     1      38.112   5.193  16.138  0.00  0.00    +0.000 C 
BRANCH  25  26
ATOM     26  C   UNL     1      39.260   5.064  17.126  0.00  0.00    +0.000 C 
BRANCH  26  27
ATOM     27  C   UNL     1      39.151   6.071  18.217  0.00  0.00    +0.000 A 
ATOM     28  C   UNL     1      38.129   7.005  18.133  0.00  0.00    +0.000 A 
ATOM     29  C   UNL     1      38.047   7.928  19.154  0.00  0.00    +0.000 A 
ATOM     30  C   UNL     1      38.907   7.968  20.222  0.00  0.00    +0.000 A 
ATOM     31  C   UNL     1      39.927   7.024  20.289  0.00  0.00    +0.000 A 
ATOM     32  C   UNL     1      40.024   6.097  19.282  0.00  0.00    +0.000 A 
ENDBRANCH  26  27
ENDBRANCH  25  26
ENDBRANCH   5  25
TORSDOF 8
ENDMDL
MODEL 3
REMARK VINA RESULT:      -7.8      2.122      2.697
REMARK  Name = 
REMARK  8 active torsions:
REMARK  status: ('A' for Active; 'I' for Inactive)
REMARK    1  A    between atoms: O_2  and  C_3
REMARK    2  A    between atoms: C_7  and  N_8
REMARK    3  A    between atoms: N_8  and  C_9
REMARK    4  A    between atoms: C_10  and  S_11
REMARK    5  A    between atoms: S_11  and  C_12
REMARK    6  A    between atoms: N_21  and  C_22
REMARK    7  A    between atoms: C_22  and  C_23
REMARK    8  A    between atoms: C_23  and  C_24
REMARK                            x       y       z     vdW  Elec       q    Type
REMARK                         _______ _______ _______ _____ _____    ______ ____
ROOT
ATOM      1  C   UNL     1      36.606   1.706  15.261  0.00  0.00    +0.000 C 
ATOM      2  C   UNL     1      36.946   1.923  13.968  0.00  0.00    +0.000 C 
ATOM      3  C   UNL     1      37.551   3.230  13.913  0.00  0.00    +0.000 C 
ATOM      4  O   UNL     1      38.014   3.838  12.916  0.00  0.00    +0.000 OA
ATOM      5  N   UNL     1      37.579   3.835  15.235  0.00  0.00    +0.000 N 
ATOM      6  C   UNL     1      36.977   2.849  16.055  0.00  0.00    +0.000 C 
ATOM      7  O   UNL     1      36.828   3.033  17.301  0.00  0.00    +0.000 OA
ENDROOT
BRANCH   1   8
ATOM      8  N   UNL     1      35.985   0.538  15.744  0.00  0.00    +0.000 NA
BRANCH   8  13
ATOM      9  C   UNL     1      37.956  -1.935  17.724  0.00  0.00    +0.000 A 
ATOM     10  C   UNL     1      37.371  -1.728  18.953  0.00  0.00    +0.000 A 
ATOM     11  C   UNL     1      36.359  -0.812  19.160  0.00  0.00    +0.000 A 
ATOM     12  C   UNL     1      35.932  -0.082  18.060  0.00  0.00    +0.000 A 
ATOM     13  C   UNL     1      36.490  -0.257  16.810  0.00  0.00    +0.000 A 
ATOM     14  C   UNL     1      37.491  -1.181  16.669  0.00  0.00    +0.000 A 
BRANCH   9  16
ATOM     15  C   UNL     1      39.467  -3.229  16.351  0.00  0.00    +0.000 C 
ATOM     16  O   UNL     1      38.953  -2.865  17.613  0.00  0.00    +0.000 OA
ENDBRANCH   9  16
ENDBRANCH   8  13
ENDBRANCH   1   8
BRANCH   2  17
ATOM     17  S   UNL     1      36.674   0.780  12.647  0.00  0.00    +0.000 S 
BRANCH  17  18
ATOM     18  C   UNL     1      37.929  -0.430  12.422  0.00  0.00    +0.000 A 
ATOM     19  C   UNL     1      38.913  -0.141  11.458  0.00  0.00    +0.000 A 
ATOM     20  C   UNL     1      39.933  -1.010  11.202  0.00  0.00    +0.000 A 
ATOM     21  C   UNL     1      40.081  -2.208  11.846  0.00  0.00    +0.000 A 
ATOM     22  C   UNL     1      41.183  -3.156  11.576  0.00  0.00    +0.000 C 
ATOM     23  C   UNL     1      39.104  -2.497  12.804  0.00  0.00    +0.000 A 
ATOM     24  C   UNL     1      38.078  -1.621  13.060  0.00  0.00    +0.000 A 
ENDBRANCH  17  18
ENDBRANCH   2  17
BRANCH   5  25
ATOM     25  C   UNL     1      38.107   5.140  15.584  0.00  0.00    +0.000 C 
BRANCH  25  26
ATOM     26  C   UNL     1      39.596   4.952  15.826  0.00  0.00    +0.000 C 
BRANCH  26  27
ATOM     27  C   UNL     1      40.018   5.572  17.112  0.00  0.00    +0.000 A 
ATOM     28  C   UNL     1      39.142   5.492  18.185  0.00  0.00    +0.000 A 
ATOM     29  C   UNL     1      39.553   6.073  19.366  0.00  0.00    +0.000 A 
ATOM     30  C   UNL     1      40.756   6.711  19.527  0.00  0.00    +0.000 A 
ATOM     31  C   UNL     1      41.621   6.782  18.440  0.00  0.00    +0.000 A 
ATOM     32  C   UNL     1      41.229   6.209  17.257  0.00  0.00    +0.000 A 
ENDBRANCH  26  27
ENDBRANCH  25  26
ENDBRANCH   5  25
TORSDOF 8
ENDMDL
MODEL 4
REMARK VINA RESULT:      -7.8      1.339      1.758
REMARK  Name = 
REMARK  8 active torsions:
REMARK  status: ('A' for Active; 'I' for Inactive)
REMARK    1  A    between atoms: O_2  and  C_3
REMARK    2  A    between atoms: C_7  and  N_8
REMARK    3  A    between atoms: N_8  and  C_9
REMARK    4  A    between atoms: C_10  and  S_11
REMARK    5  A    between atoms: S_11  and  C_12
REMARK    6  A    between atoms: N_21  and  C_22
REMARK    7  A    between atoms: C_22  and  C_23
REMARK    8  A    between atoms: C_23  and  C_24
REMARK                            x       y       z     vdW  Elec       q    Type
REMARK                         _______ _______ _______ _____ _____    ______ ____
ROOT
ATOM      1  C   UNL     1      37.405   2.570  14.845  0.00  0.00    +0.000 C 
ATOM      2  C   UNL     1      38.435   3.078  14.128  0.00  0.00    +0.000 C 
ATOM      3  C   UNL     1      38.872   4.267  14.817  0.00  0.00    +0.000 C 
ATOM      4  O   UNL     1      39.801   5.054  14.508  0.00  0.00    +0.000 OA
ATOM      5  N   UNL     1      38.068   4.490  16.008  0.00  0.00    +0.000 N 
ATOM      6  C   UNL     1      37.158   3.406  15.992  0.00  0.00    +0.000 C 
ATOM      7  O   UNL     1      36.283   3.270  16.900  0.00  0.00    +0.000 OA
ENDROOT
BRANCH   1   8
ATOM      8  N   UNL     1      36.691   1.403  14.511  0.00  0.00    +0.000 NA
BRANCH   8  13
ATOM      9  C   UNL     1      37.933  -1.479  16.531  0.00  0.00    +0.000 A 
ATOM     10  C   UNL     1      37.708  -2.484  15.616  0.00  0.00    +0.000 A 
ATOM     11  C   UNL     1      37.166  -2.256  14.366  0.00  0.00    +0.000 A 
ATOM     12  C   UNL     1      36.845  -0.945  14.046  0.00  0.00    +0.000 A 
ATOM     13  C   UNL     1      37.053   0.093  14.932  0.00  0.00    +0.000 A 
ATOM     14  C   UNL     1      37.594  -0.198  16.156  0.00  0.00    +0.000 A 
BRANCH   9  16
ATOM     15  C   UNL     1      37.694  -1.759  18.918  0.00  0.00    +0.000 C 
ATOM     16  O   UNL     1      38.475  -1.798  17.746  0.00  0.00    +0.000 OA
ENDBRANCH   9  16
ENDBRANCH   8  13
ENDBRANCH   1   8
BRANCH   2  17
ATOM     17  S   UNL     1      39.076   2.370  12.641  0.00  0.00    +0.000 S 
BRANCH  17  18
ATOM     18  C   UNL     1      39.741   0.750  12.798  0.00  0.00    +0.000 A 
ATOM     19  C   UNL     1      40.437   0.470  13.989  0.00  0.00    +0.000 A 
ATOM     20  C   UNL     1      40.993  -0.755  14.215  0.00  0.00    +0.000 A 
ATOM     21  C   UNL     1      40.923  -1.790  13.324  0.00  0.00    +0.000 A 
ATOM     22  C   UNL     1      41.522  -3.121  13.560  0.00  0.00    +0.000 C 
ATOM     23  C   UNL     1      40.232  -1.514  12.139  0.00  0.00    +0.000 A 
ATOM     24  C   UNL     1      39.673  -0.280  11.914  0.00  0.00    +0.000 A 
ENDBRANCH  17  18
ENDBRANCH   2  17
BRANCH   5  25
ATOM     25  C   UNL     1      38.203   5.579  16.956  0.00  0.00    +0.000 C 
BRANCH  25  26
ATOM     26  C   UNL     1      38.889   5.000  18.183  0.00  0.00    +0.000 C 
BRANCH  26  27
ATOM     27  C   UNL     1      40.089   5.799  18.558  0.00  0.00    +0.000 A 
ATOM     28  C   UNL     1      41.003   6.098  17.559  0.00  0.00    +0.000 A 
ATOM     29  C   UNL     1      42.106   6.838  17.930  0.00  0.00    +0.000 A 
ATOM     30  C   UNL     1      42.337   7.282  19.207  0.00  0.00    +0.000 A 
ATOM     31  C   UNL     1      41.409   6.971  20.196  0.00  0.00    +0.000 A 
ATOM     32  C   UNL     1      40.305   6.235  19.846  0.00  0.00    +0.000 A 
ENDBRANCH  26  27
ENDBRANCH  25  26
ENDBRANCH   5  25
TORSDOF 8
ENDMDL
MODEL 5
REMARK VINA RESULT:      -7.8      1.245      1.903
REMARK  Name = 
REMARK  8 active torsions:
REMARK  status: ('A' for Active; 'I' for Inactive)
REMARK    1  A    between atoms: O_2  and  C_3
REMARK    2  A    between atoms: C_7  and  N_8
REMARK    3  A    between atoms: N_8  and  C_9
REMARK    4  A    between atoms: C_10  and  S_11
REMARK    5  A    between atoms: S_11  and  C_12
REMARK    6  A    between atoms: N_21  and  C_22
REMARK    7  A    between atoms: C_22  and  C_23
REMARK    8  A    between atoms: C_23  and  C_24
REMARK                            x       y       z     vdW  Elec       q    Type
REMARK                         _______ _______ _______ _____ _____    ______ ____
ROOT
ATOM      1  C   UNL     1      37.139   2.090  15.001  0.00  0.00    +0.000 C 
ATOM      2  C   UNL     1      38.312   2.299  14.358  0.00  0.00    +0.000 C 
ATOM      3  C   UNL     1      38.854   3.531  14.873  0.00  0.00    +0.000 C 
ATOM      4  O   UNL     1      39.926   4.106  14.562  0.00  0.00    +0.000 OA
ATOM      5  N   UNL     1      37.967   4.097  15.877  0.00  0.00    +0.000 N 
ATOM      6  C   UNL     1      36.901   3.166  15.930  0.00  0.00    +0.000 C 
ATOM      7  O   UNL     1      35.918   3.336  16.713  0.00  0.00    +0.000 OA
ENDROOT
BRANCH   1   8
ATOM      8  N   UNL     1      36.289   0.989  14.787  0.00  0.00    +0.000 NA
BRANCH   8  13
ATOM      9  C   UNL     1      36.858  -2.221  16.603  0.00  0.00    +0.000 A 
ATOM     10  C   UNL     1      35.784  -2.165  17.463  0.00  0.00    +0.000 A 
ATOM     11  C   UNL     1      34.882  -1.119  17.472  0.00  0.00    +0.000 A 
ATOM     12  C   UNL     1      35.093  -0.094  16.562  0.00  0.00    +0.000 A 
ATOM     13  C   UNL     1      36.157  -0.109  15.682  0.00  0.00    +0.000 A 
ATOM     14  C   UNL     1      37.016  -1.174  15.722  0.00  0.00    +0.000 A 
BRANCH   9  16
ATOM     15  C   UNL     1      39.053  -3.138  17.029  0.00  0.00    +0.000 C 
ATOM     16  O   UNL     1      37.701  -3.298  16.665  0.00  0.00    +0.000 OA
ENDBRANCH   9  16
ENDBRANCH   8  13
ENDBRANCH   1   8
BRANCH   2  17
ATOM     17  S   UNL     1      38.995   1.225  13.131  0.00  0.00    +0.000 S 
BRANCH  17  18
ATOM     18  C   UNL     1      40.520   0.461  13.556  0.00  0.00    +0.000 A 
ATOM     19  C   UNL     1      40.439  -0.797  14.180  0.00  0.00    +0.000 A 
ATOM     20  C   UNL     1      41.561  -1.479  14.553  0.00  0.00    +0.000 A 
ATOM     21  C   UNL     1      42.829  -1.006  14.355  0.00  0.00    +0.000 A 
ATOM     22  C   UNL     1      44.051  -1.737  14.754  0.00  0.00    +0.000 C 
ATOM     23  C   UNL     1      42.912   0.245  13.734  0.00  0.00    +0.000 A 
ATOM     24  C   UNL     1      41.781   0.929  13.361  0.00  0.00    +0.000 A 
ENDBRANCH  17  18
ENDBRANCH   2  17
BRANCH   5  25
ATOM     25  C   UNL     1      38.166   5.326  16.621  0.00  0.00    +0.000 C 
BRANCH  25  26
ATOM     26  C   UNL     1      38.733   4.924  17.973  0.00  0.00    +0.000 C 
BRANCH  26  27
ATOM     27  C   UNL     1      39.957   5.706  18.300  0.00  0.00    +0.000 A 
ATOM     28  C   UNL     1      40.149   6.080  19.622  0.00  0.00    +0.000 A 
ATOM     29  C   UNL     1      41.290   6.803  19.902  0.00  0.00    +0.000 A 
ATOM     30  C   UNL     1      42.219   7.163  18.960  0.00  0.00    +0.000 A 
ATOM     31  C   UNL     1      42.009   6.780  17.639  0.00  0.00    +0.000 A 
ATOM     32  C   UNL     1      40.880   6.059  17.342  0.00  0.00    +0.000 A 
ENDBRANCH  26  27
ENDBRANCH  25  26
ENDBRANCH   5  25
TORSDOF 8
ENDMDL
MODEL 6
REMARK VINA RESULT:      -7.7      2.199      3.086
REMARK  Name = 
REMARK  8 active torsions:
REMARK  status: ('A' for Active; 'I' for Inactive)
REMARK    1  A    between atoms: O_2  and  C_3
REMARK    2  A    between atoms: C_7  and  N_8
REMARK    3  A    between atoms: N_8  and  C_9
REMARK    4  A    between atoms: C_10  and  S_11
REMARK    5  A    between atoms: S_11  and  C_12
REMARK    6  A    between atoms: N_21  and  C_22
REMARK    7  A    between atoms: C_22  and  C_23
REMARK    8  A    between atoms: C_23  and  C_24
REMARK                            x       y       z     vdW  Elec       q    Type
REMARK                         _______ _______ _______ _____ _____    ______ ____
ROOT
ATOM      1  C   UNL     1      36.997   2.096  15.041  0.00  0.00    +0.000 C 
ATOM      2  C   UNL     1      38.220   1.985  14.472  0.00  0.00    +0.000 C 
ATOM      3  C   UNL     1      38.921   3.213  14.753  0.00  0.00    +0.000 C 
ATOM      4  O   UNL     1      40.085   3.544  14.417  0.00  0.00    +0.000 OA
ATOM      5  N   UNL     1      38.083   4.112  15.530  0.00  0.00    +0.000 N 
ATOM      6  C   UNL     1      36.883   3.377  15.692  0.00  0.00    +0.000 C 
ATOM      7  O   UNL     1      35.900   3.858  16.332  0.00  0.00    +0.000 OA
ENDROOT
BRANCH   1   8
ATOM      8  N   UNL     1      35.996   1.106  14.999  0.00  0.00    +0.000 NA
BRANCH   8  13
ATOM      9  C   UNL     1      35.151  -2.077  16.753  0.00  0.00    +0.000 A 
ATOM     10  C   UNL     1      35.478  -1.698  18.037  0.00  0.00    +0.000 A 
ATOM     11  C   UNL     1      35.964  -0.443  18.350  0.00  0.00    +0.000 A 
ATOM     12  C   UNL     1      36.118   0.454  17.304  0.00  0.00    +0.000 A 
ATOM     13  C   UNL     1      35.804   0.117  16.003  0.00  0.00    +0.000 A 
ATOM     14  C   UNL     1      35.326  -1.143  15.756  0.00  0.00    +0.000 A 
BRANCH   9  16
ATOM     15  C   UNL     1      34.471  -3.823  15.228  0.00  0.00    +0.000 C 
ATOM     16  O   UNL     1      34.676  -3.342  16.536  0.00  0.00    +0.000 OA
ENDBRANCH   9  16
ENDBRANCH   8  13
ENDBRANCH   1   8
BRANCH   2  17
ATOM     17  S   UNL     1      38.788   0.575  13.569  0.00  0.00    +0.000 S 
BRANCH  17  18
ATOM     18  C   UNL     1      38.635  -0.968  14.399  0.00  0.00    +0.000 A 
ATOM     19  C   UNL     1      39.083  -1.010  15.732  0.00  0.00    +0.000 A 
ATOM     20  C   UNL     1      39.011  -2.156  16.470  0.00  0.00    +0.000 A 
ATOM     21  C   UNL     1      38.509  -3.332  15.985  0.00  0.00    +0.000 A 
ATOM     22  C   UNL     1      38.427  -4.579  16.776  0.00  0.00    +0.000 C 
ATOM     23  C   UNL     1      38.064  -3.293  14.659  0.00  0.00    +0.000 A 
ATOM     24  C   UNL     1      38.138  -2.138  13.920  0.00  0.00    +0.000 A 
ENDBRANCH  17  18
ENDBRANCH   2  17
BRANCH   5  25
ATOM     25  C   UNL     1      38.434   5.436  16.005  0.00  0.00    +0.000 C 
BRANCH  25  26
ATOM     26  C   UNL     1      38.444   5.362  17.523  0.00  0.00    +0.000 C 
BRANCH  26  27
ATOM     27  C   UNL     1      39.744   5.826  18.079  0.00  0.00    +0.000 A 
ATOM     28  C   UNL     1      40.788   6.037  17.190  0.00  0.00    +0.000 A 
ATOM     29  C   UNL     1      41.983   6.467  17.727  0.00  0.00    +0.000 A 
ATOM     30  C   UNL     1      42.185   6.690  19.065  0.00  0.00    +0.000 A 
ATOM     31  C   UNL     1      41.127   6.473  19.942  0.00  0.00    +0.000 A 
ATOM     32  C   UNL     1      39.930   6.046  19.425  0.00  0.00    +0.000 A 
ENDBRANCH  26  27
ENDBRANCH  25  26
ENDBRANCH   5  25
TORSDOF 8
ENDMDL
MODEL 7
REMARK VINA RESULT:      -7.4     25.854     28.593
REMARK  Name = 
REMARK  8 active torsions:
REMARK  status: ('A' for Active; 'I' for Inactive)
REMARK    1  A    between atoms: O_2  and  C_3
REMARK    2  A    between atoms: C_7  and  N_8
REMARK    3  A    between atoms: N_8  and  C_9
REMARK    4  A    between atoms: C_10  and  S_11
REMARK    5  A    between atoms: S_11  and  C_12
REMARK    6  A    between atoms: N_21  and  C_22
REMARK    7  A    between atoms: C_22  and  C_23
REMARK    8  A    between atoms: C_23  and  C_24
REMARK                            x       y       z     vdW  Elec       q    Type
REMARK                         _______ _______ _______ _____ _____    ______ ____
ROOT
ATOM      1  C   UNL     1      28.052  15.438  39.209  0.00  0.00    +0.000 C 
ATOM      2  C   UNL     1      26.702  15.515  39.144  0.00  0.00    +0.000 C 
ATOM      3  C   UNL     1      26.187  14.452  39.970  0.00  0.00    +0.000 C 
ATOM      4  O   UNL     1      24.989  14.150  40.202  0.00  0.00    +0.000 OA
ATOM      5  N   UNL     1      27.276  13.694  40.565  0.00  0.00    +0.000 N 
ATOM      6  C   UNL     1      28.432  14.341  40.064  0.00  0.00    +0.000 C 
ATOM      7  O   UNL     1      29.595  13.944  40.376  0.00  0.00    +0.000 OA
ENDROOT
BRANCH   1   8
ATOM      8  N   UNL     1      28.940  16.301  38.539  0.00  0.00    +0.000 NA
BRANCH   8  13
ATOM      9  C   UNL     1      29.194  17.286  34.949  0.00  0.00    +0.000 A 
ATOM     10  C   UNL     1      29.673  16.098  34.443  0.00  0.00    +0.000 A 
ATOM     11  C   UNL     1      29.917  14.989  35.229  0.00  0.00    +0.000 A 
ATOM     12  C   UNL     1      29.657  15.107  36.586  0.00  0.00    +0.000 A 
ATOM     13  C   UNL     1      29.176  16.279  37.136  0.00  0.00    +0.000 A 
ATOM     14  C   UNL     1      28.955  17.343  36.304  0.00  0.00    +0.000 A 
BRANCH   9  16
ATOM     15  C   UNL     1      29.022  19.664  34.556  0.00  0.00    +0.000 C 
ATOM     16  O   UNL     1      28.981  18.333  34.094  0.00  0.00    +0.000 OA
ENDBRANCH   9  16
ENDBRANCH   8  13
ENDBRANCH   1   8
BRANCH   2  17
ATOM     17  S   UNL     1      25.804  16.715  38.207  0.00  0.00    +0.000 S 
BRANCH  17  18
ATOM     18  C   UNL     1      25.634  16.366  36.492  0.00  0.00    +0.000 A 
ATOM     19  C   UNL     1      25.965  15.061  36.082  0.00  0.00    +0.000 A 
ATOM     20  C   UNL     1      25.871  14.682  34.775  0.00  0.00    +0.000 A 
ATOM     21  C   UNL     1      25.455  15.520  33.776  0.00  0.00    +0.000 A 
ATOM     22  C   UNL     1      25.349  15.118  32.357  0.00  0.00    +0.000 C 
ATOM     23  C   UNL     1      25.126  16.818  34.182  0.00  0.00    +0.000 A 
ATOM     24  C   UNL     1      25.222  17.196  35.499  0.00  0.00    +0.000 A 
ENDBRANCH  17  18
ENDBRANCH   2  17
BRANCH   5  25
ATOM     25  C   UNL     1      27.159  12.553  41.453  0.00  0.00    +0.000 C 
BRANCH  25  26
ATOM     26  C   UNL     1      27.039  11.326  40.564  0.00  0.00    +0.000 C 
BRANCH  26  27
ATOM     27  C   UNL     1      28.070  10.308  40.905  0.00  0.00    +0.000 A 
ATOM     28  C   UNL     1      29.331  10.454  40.347  0.00  0.00    +0.000 A 
ATOM     29  C   UNL     1      30.271   9.500  40.678  0.00  0.00    +0.000 A 
ATOM     30  C   UNL     1      30.023   8.438  41.510  0.00  0.00    +0.000 A 
ATOM     31  C   UNL     1      28.752   8.307  42.060  0.00  0.00    +0.000 A 
ATOM     32  C   UNL     1      27.805   9.248  41.743  0.00  0.00    +0.000 A 
ENDBRANCH  26  27
ENDBRANCH  25  26
ENDBRANCH   5  25
TORSDOF 8
ENDMDL
MODEL 8
REMARK VINA RESULT:      -7.3     26.312     29.963
REMARK  Name = 
REMARK  8 active torsions:
REMARK  status: ('A' for Active; 'I' for Inactive)
REMARK    1  A    between atoms: O_2  and  C_3
REMARK    2  A    between atoms: C_7  and  N_8
REMARK    3  A    between atoms: N_8  and  C_9
REMARK    4  A    between atoms: C_10  and  S_11
REMARK    5  A    between atoms: S_11  and  C_12
REMARK    6  A    between atoms: N_21  and  C_22
REMARK    7  A    between atoms: C_22  and  C_23
REMARK    8  A    between atoms: C_23  and  C_24
REMARK                            x       y       z     vdW  Elec       q    Type
REMARK                         _______ _______ _______ _____ _____    ______ ____
ROOT
ATOM      1  C   UNL     1      25.003  15.023  38.976  0.00  0.00    +0.000 C 
ATOM      2  C   UNL     1      26.154  14.572  39.530  0.00  0.00    +0.000 C 
ATOM      3  C   UNL     1      27.232  15.093  38.728  0.00  0.00    +0.000 C 
ATOM      4  O   UNL     1      28.468  14.929  38.876  0.00  0.00    +0.000 OA
ATOM      5  N   UNL     1      26.711  15.899  37.635  0.00  0.00    +0.000 N 
ATOM      6  C   UNL     1      25.308  15.831  37.823  0.00  0.00    +0.000 C 
ATOM      7  O   UNL     1      24.511  16.429  37.039  0.00  0.00    +0.000 OA
ENDROOT
BRANCH   1   8
ATOM      8  N   UNL     1      23.712  14.739  39.460  0.00  0.00    +0.000 NA
BRANCH   8  13
ATOM      9  C   UNL     1      22.536  17.720  41.372  0.00  0.00    +0.000 A 
ATOM     10  C   UNL     1      21.446  17.150  41.993  0.00  0.00    +0.000 A 
ATOM     11  C   UNL     1      21.081  15.830  41.810  0.00  0.00    +0.000 A 
ATOM     12  C   UNL     1      21.868  15.070  40.958  0.00  0.00    +0.000 A 
ATOM     13  C   UNL     1      22.968  15.600  40.315  0.00  0.00    +0.000 A 
ATOM     14  C   UNL     1      23.278  16.915  40.537  0.00  0.00    +0.000 A 
BRANCH   9  16
ATOM     15  C   UNL     1      23.297  19.873  40.584  0.00  0.00    +0.000 C 
ATOM     16  O   UNL     1      22.822  19.036  41.613  0.00  0.00    +0.000 OA
ENDBRANCH   9  16
ENDBRANCH   8  13
ENDBRANCH   1   8
BRANCH   2  17
ATOM     17  S   UNL     1      26.247  13.544  40.965  0.00  0.00    +0.000 S 
BRANCH  17  18
ATOM     18  C   UNL     1      27.423  12.239  40.887  0.00  0.00    +0.000 A 
ATOM     19  C   UNL     1      26.909  10.929  40.910  0.00  0.00    +0.000 A 
ATOM     20  C   UNL     1      27.732   9.842  40.855  0.00  0.00    +0.000 A 
ATOM     21  C   UNL     1      29.095   9.933  40.774  0.00  0.00    +0.000 A 
ATOM     22  C   UNL     1      29.995   8.761  40.713  0.00  0.00    +0.000 C 
ATOM     23  C   UNL     1      29.608  11.234  40.751  0.00  0.00    +0.000 A 
ATOM     24  C   UNL     1      28.777  12.327  40.808  0.00  0.00    +0.000 A 
ENDBRANCH  17  18
ENDBRANCH   2  17
BRANCH   5  25
ATOM     25  C   UNL     1      27.481  16.588  36.618  0.00  0.00    +0.000 C 
BRANCH  25  26
ATOM     26  C   UNL     1      27.757  15.570  35.523  0.00  0.00    +0.000 C 
BRANCH  26  27
ATOM     27  C   UNL     1      26.707  15.611  34.469  0.00  0.00    +0.000 A 
ATOM     28  C   UNL     1      26.278  14.404  33.938  0.00  0.00    +0.000 A 
ATOM     29  C   UNL     1      25.304  14.466  32.963  0.00  0.00    +0.000 A 
ATOM     30  C   UNL     1      24.754  15.636  32.504  0.00  0.00    +0.000 A 
ATOM     31  C   UNL     1      25.198  16.837  33.048  0.00  0.00    +0.000 A 
ATOM     32  C   UNL     1      26.166  16.795  34.020  0.00  0.00    +0.000 A 
ENDBRANCH  26  27
ENDBRANCH  25  26
ENDBRANCH   5  25
TORSDOF 8
ENDMDL
MODEL 9
REMARK VINA RESULT:      -7.3      2.189      6.620
REMARK  Name = 
REMARK  8 active torsions:
REMARK  status: ('A' for Active; 'I' for Inactive)
REMARK    1  A    between atoms: O_2  and  C_3
REMARK    2  A    between atoms: C_7  and  N_8
REMARK    3  A    between atoms: N_8  and  C_9
REMARK    4  A    between atoms: C_10  and  S_11
REMARK    5  A    between atoms: S_11  and  C_12
REMARK    6  A    between atoms: N_21  and  C_22
REMARK    7  A    between atoms: C_22  and  C_23
REMARK    8  A    between atoms: C_23  and  C_24
REMARK                            x       y       z     vdW  Elec       q    Type
REMARK                         _______ _______ _______ _____ _____    ______ ____
ROOT
ATOM      1  C   UNL     1      36.609   0.819  14.626  0.00  0.00    +0.000 C 
ATOM      2  C   UNL     1      36.928   2.126  14.478  0.00  0.00    +0.000 C 
ATOM      3  C   UNL     1      37.725   2.224  13.281  0.00  0.00    +0.000 C 
ATOM      4  O   UNL     1      38.236   3.248  12.762  0.00  0.00    +0.000 OA
ATOM      5  N   UNL     1      37.897   0.914  12.674  0.00  0.00    +0.000 N 
ATOM      6  C   UNL     1      37.184   0.057  13.546  0.00  0.00    +0.000 C 
ATOM      7  O   UNL     1      37.113  -1.191  13.329  0.00  0.00    +0.000 OA
ENDROOT
BRANCH   1   8
ATOM      8  N   UNL     1      35.834   0.294  15.678  0.00  0.00    +0.000 NA
BRANCH   8  13
ATOM      9  C   UNL     1      37.838  -1.840  17.992  0.00  0.00    +0.000 A 
ATOM     10  C   UNL     1      37.325  -1.386  19.187  0.00  0.00    +0.000 A 
ATOM     11  C   UNL     1      36.351  -0.410  19.266  0.00  0.00    +0.000 A 
ATOM     12  C   UNL     1      35.887   0.117  18.070  0.00  0.00    +0.000 A 
ATOM     13  C   UNL     1      36.373  -0.308  16.849  0.00  0.00    +0.000 A 
ATOM     14  C   UNL     1      37.339  -1.278  16.838  0.00  0.00    +0.000 A 
BRANCH   9  16
ATOM     15  C   UNL     1      38.920  -3.733  16.952  0.00  0.00    +0.000 C 
ATOM     16  O   UNL     1      38.802  -2.810  18.011  0.00  0.00    +0.000 OA
ENDBRANCH   9  16
ENDBRANCH   8  13
ENDBRANCH   1   8
BRANCH   2  17
ATOM     17  S   UNL     1      36.430   3.417  15.577  0.00  0.00    +0.000 S 
BRANCH  17  18
ATOM     18  C   UNL     1      37.735   4.242  16.419  0.00  0.00    +0.000 A 
ATOM     19  C   UNL     1      38.675   4.913  15.615  0.00  0.00    +0.000 A 
ATOM     20  C   UNL     1      39.729   5.584  16.163  0.00  0.00    +0.000 A 
ATOM     21  C   UNL     1      39.953   5.661  17.510  0.00  0.00    +0.000 A 
ATOM     22  C   UNL     1      41.091   6.387  18.114  0.00  0.00    +0.000 C 
ATOM     23  C   UNL     1      39.020   4.995  18.312  0.00  0.00    +0.000 A 
ATOM     24  C   UNL     1      37.961   4.319  17.757  0.00  0.00    +0.000 A 
ENDBRANCH  17  18
ENDBRANCH   2  17
BRANCH   5  25
ATOM     25  C   UNL     1      38.634   0.606  11.464  0.00  0.00    +0.000 C 
BRANCH  25  26
ATOM     26  C   UNL     1      40.106   0.605  11.844  0.00  0.00    +0.000 C 
BRANCH  26  27
ATOM     27  C   UNL     1      40.462  -0.614  12.622  0.00  0.00    +0.000 A 
ATOM     28  C   UNL     1      40.284  -1.845  12.010  0.00  0.00    +0.000 A 
ATOM     29  C   UNL     1      40.621  -2.960  12.749  0.00  0.00    +0.000 A 
ATOM     30  C   UNL     1      41.109  -2.911  14.030  0.00  0.00    +0.000 A 
ATOM     31  C   UNL     1      41.280  -1.667  14.628  0.00  0.00    +0.000 A 
ATOM     32  C   UNL     1      40.952  -0.546  13.907  0.00  0.00    +0.000 A 
ENDBRANCH  26  27
ENDBRANCH  25  26
ENDBRANCH   5  25
TORSDOF 8
ENDMDL
MODEL 10
REMARK VINA RESULT:      -7.2     24.847     28.175
REMARK  Name = 
REMARK  8 active torsions:
REMARK  status: ('A' for Active; 'I' for Inactive)
REMARK    1  A    between atoms: O_2  and  C_3
REMARK    2  A    between atoms: C_7  and  N_8
REMARK    3  A    between atoms: N_8  and  C_9
REMARK    4  A    between atoms: C_10  and  S_11
REMARK    5  A    between atoms: S_11  and  C_12
REMARK    6  A    between atoms: N_21  and  C_22
REMARK    7  A    between atoms: C_22  and  C_23
REMARK    8  A    between atoms: C_23  and  C_24
REMARK                            x       y       z     vdW  Elec       q    Type
REMARK                         _______ _______ _______ _____ _____    ______ ____
ROOT
ATOM      1  C   UNL     1      28.570  14.725  39.346  0.00  0.00    +0.000 C 
ATOM      2  C   UNL     1      27.273  15.019  39.092  0.00  0.00    +0.000 C 
ATOM      3  C   UNL     1      26.480  14.067  39.829  0.00  0.00    +0.000 C 
ATOM      4  O   UNL     1      25.229  13.968  39.887  0.00  0.00    +0.000 OA
ATOM      5  N   UNL     1      27.337  13.152  40.565  0.00  0.00    +0.000 N 
ATOM      6  C   UNL     1      28.642  13.594  40.237  0.00  0.00    +0.000 C 
ATOM      7  O   UNL     1      29.669  13.018  40.708  0.00  0.00    +0.000 OA
ENDROOT
BRANCH   1   8
ATOM      8  N   UNL     1      29.672  15.422  38.815  0.00  0.00    +0.000 NA
BRANCH   8  13
ATOM      9  C   UNL     1      32.043  13.751  36.467  0.00  0.00    +0.000 A 
ATOM     10  C   UNL     1      31.657  14.379  35.303  0.00  0.00    +0.000 A 
ATOM     11  C   UNL     1      30.653  15.326  35.257  0.00  0.00    +0.000 A 
ATOM     12  C   UNL     1      30.023  15.639  36.452  0.00  0.00    +0.000 A 
ATOM     13  C   UNL     1      30.377  15.034  37.642  0.00  0.00    +0.000 A 
ATOM     14  C   UNL     1      31.381  14.102  37.622  0.00  0.00    +0.000 A 
BRANCH   9  16
ATOM     15  C   UNL     1      33.055  11.717  37.289  0.00  0.00    +0.000 C 
ATOM     16  O   UNL     1      33.048  12.824  36.418  0.00  0.00    +0.000 OA
ENDBRANCH   9  16
ENDBRANCH   8  13
ENDBRANCH   1   8
BRANCH   2  17
ATOM     17  S   UNL     1      26.723  16.335  38.047  0.00  0.00    +0.000 S 
BRANCH  17  18
ATOM     18  C   UNL     1      26.348  15.881  36.390  0.00  0.00    +0.000 A 
ATOM     19  C   UNL     1      25.504  16.752  35.677  0.00  0.00    +0.000 A 
ATOM     20  C   UNL     1      25.148  16.497  34.385  0.00  0.00    +0.000 A 
ATOM     21  C   UNL     1      25.573  15.398  33.691  0.00  0.00    +0.000 A 
ATOM     22  C   UNL     1      25.193  15.112  32.290  0.00  0.00    +0.000 C 
ATOM     23  C   UNL     1      26.412  14.530  34.398  0.00  0.00    +0.000 A 
ATOM     24  C   UNL     1      26.768  14.789  35.699  0.00  0.00    +0.000 A 
ENDBRANCH  17  18
ENDBRANCH   2  17
BRANCH   5  25
ATOM     25  C   UNL     1      26.913  12.059  41.419  0.00  0.00    +0.000 C 
BRANCH  25  26
ATOM     26  C   UNL     1      26.958  10.802  40.565  0.00  0.00    +0.000 C 
BRANCH  26  27
ATOM     27  C   UNL     1      27.510   9.649  41.329  0.00  0.00    +0.000 A 
ATOM     28  C   UNL     1      28.888   9.559  41.455  0.00  0.00    +0.000 A 
ATOM     29  C   UNL     1      29.377   8.484  42.166  0.00  0.00    +0.000 A 
ATOM     30  C   UNL     1      28.585   7.522  42.740  0.00  0.00    +0.000 A 
ATOM     31  C   UNL     1      27.205   7.628  42.602  0.00  0.00    +0.000 A 
ATOM     32  C   UNL     1      26.700   8.693  41.898  0.00  0.00    +0.000 A 
ENDBRANCH  26  27
ENDBRANCH  25  26
ENDBRANCH   5  25
TORSDOF 8
ENDMDL
