MODEL 1
REMARK VINA RESULT:      -7.3      0.000      0.000
REMARK  Name = 
REMARK  3 active torsions:
REMARK  status: ('A' for Active; 'I' for Inactive)
REMARK    1  A    between atoms: C_2  and  N_5
REMARK    2  A    between atoms: C_7  and  C_8
REMARK    3  A    between atoms: C_15  and  C_16
REMARK                            x       y       z     vdW  Elec       q    Type
REMARK                         _______ _______ _______ _____ _____    ______ ____
ROOT
ATOM      1  N   UNL     1      16.790  11.061  36.834  0.00  0.00    +0.000 N 
ATOM      2  N   UNL     1      16.642  11.505  35.587  0.00  0.00    +0.000 NA
ATOM      3  C   UNL     1      15.381  11.893  35.369  0.00  0.00    +0.000 A 
ATOM      4  C   UNL     1      14.715  11.673  36.557  0.00  0.00    +0.000 A 
ATOM      5  C   UNL     1      15.604  11.154  37.463  0.00  0.00    +0.000 A 
ATOM      6  N   UNL     1      15.338  10.775  38.830  0.00  0.00    +0.000 NA
ENDROOT
BRANCH   3   7
ATOM      7  C   UNL     1      14.849  12.435  34.117  0.00  0.00    +0.000 A 
ATOM      8  C   UNL     1      15.080  11.783  32.923  0.00  0.00    +0.000 A 
ATOM      9  C   UNL     1      14.585  12.283  31.736  0.00  0.00    +0.000 A 
ATOM     10  C   UNL     1      13.843  13.445  31.682  0.00  0.00    +0.000 A 
ATOM     11  F   UNL     1      13.348  13.952  30.524  0.00  0.00    +0.000 F 
ATOM     12  C   UNL     1      13.614  14.095  32.876  0.00  0.00    +0.000 A 
ATOM     13  C   UNL     1      14.108  13.597  34.064  0.00  0.00    +0.000 A 
ENDBRANCH   3   7
BRANCH   1  15
ATOM     14  C   UNL     1      17.726   9.619  38.585  0.00  0.00    +0.000 C 
ATOM     15  C   UNL     1      18.008  10.558  37.438  0.00  0.00    +0.000 C 
ATOM     16  C   UNL     1      18.875  11.684  37.983  0.00  0.00    +0.000 C 
ATOM     17  C   UNL     1      18.814   9.785  36.400  0.00  0.00    +0.000 C 
ENDBRANCH   1  15
BRANCH   4  18
ATOM     18  C   UNL     1      13.330  11.955  36.756  0.00  0.00    +0.000 C 
ATOM     19  N   UNL     1      12.193  12.174  36.908  0.00  0.00    +0.000 NA
ENDBRANCH   4  18
TORSDOF 3
ENDMDL
MODEL 2
REMARK VINA RESULT:      -6.5      1.375      1.964
REMARK  Name = 
REMARK  3 active torsions:
REMARK  status: ('A' for Active; 'I' for Inactive)
REMARK    1  A    between atoms: C_2  and  N_5
REMARK    2  A    between atoms: C_7  and  C_8
REMARK    3  A    between atoms: C_15  and  C_16
REMARK                            x       y       z     vdW  Elec       q    Type
REMARK                         _______ _______ _______ _____ _____    ______ ____
ROOT
ATOM      1  N   UNL     1      17.831  10.493  37.824  0.00  0.00    +0.000 N 
ATOM      2  N   UNL     1      17.536  11.057  36.653  0.00  0.00    +0.000 NA
ATOM      3  C   UNL     1      16.230  11.329  36.575  0.00  0.00    +0.000 A 
ATOM      4  C   UNL     1      15.690  10.905  37.771  0.00  0.00    +0.000 A 
ATOM      5  C   UNL     1      16.699  10.385  38.542  0.00  0.00    +0.000 A 
ATOM      6  N   UNL     1      16.586   9.827  39.868  0.00  0.00    +0.000 NA
ENDROOT
BRANCH   3   7
ATOM      7  C   UNL     1      15.545  11.949  35.438  0.00  0.00    +0.000 A 
ATOM      8  C   UNL     1      15.731  11.459  34.162  0.00  0.00    +0.000 A 
ATOM      9  C   UNL     1      15.092  12.034  33.083  0.00  0.00    +0.000 A 
ATOM     10  C   UNL     1      14.244  13.114  33.222  0.00  0.00    +0.000 A 
ATOM     11  F   UNL     1      13.607  13.693  32.172  0.00  0.00    +0.000 F 
ATOM     12  C   UNL     1      14.060  13.602  34.498  0.00  0.00    +0.000 A 
ATOM     13  C   UNL     1      14.699  13.029  35.579  0.00  0.00    +0.000 A 
ENDBRANCH   3   7
BRANCH   1  15
ATOM     14  C   UNL     1      20.116   9.923  37.132  0.00  0.00    +0.000 C 
ATOM     15  C   UNL     1      19.139  10.058  38.274  0.00  0.00    +0.000 C 
ATOM     16  C   UNL     1      19.075   8.707  38.972  0.00  0.00    +0.000 C 
ATOM     17  C   UNL     1      19.712  11.081  39.249  0.00  0.00    +0.000 C 
ENDBRANCH   1  15
BRANCH   4  18
ATOM     18  C   UNL     1      14.305  11.013  38.102  0.00  0.00    +0.000 C 
ATOM     19  N   UNL     1      13.176  11.094  38.388  0.00  0.00    +0.000 NA
ENDBRANCH   4  18
TORSDOF 3
ENDMDL
MODEL 3
REMARK VINA RESULT:      -6.2     22.139     24.832
REMARK  Name = 
REMARK  3 active torsions:
REMARK  status: ('A' for Active; 'I' for Inactive)
REMARK    1  A    between atoms: C_2  and  N_5
REMARK    2  A    between atoms: C_7  and  C_8
REMARK    3  A    between atoms: C_15  and  C_16
REMARK                            x       y       z     vdW  Elec       q    Type
REMARK                         _______ _______ _______ _____ _____    ______ ____
ROOT
ATOM      1  N   UNL     1      33.357  -2.818  33.988  0.00  0.00    +0.000 N 
ATOM      2  N   UNL     1      33.745  -3.218  32.778  0.00  0.00    +0.000 NA
ATOM      3  C   UNL     1      33.487  -4.519  32.604  0.00  0.00    +0.000 A 
ATOM      4  C   UNL     1      32.905  -4.943  33.781  0.00  0.00    +0.000 A 
ATOM      5  C   UNL     1      32.829  -3.873  34.637  0.00  0.00    +0.000 A 
ATOM      6  N   UNL     1      32.292  -3.861  35.976  0.00  0.00    +0.000 NA
ENDROOT
BRANCH   3   7
ATOM      7  C   UNL     1      33.776  -5.302  31.400  0.00  0.00    +0.000 A 
ATOM      8  C   UNL     1      34.803  -6.223  31.400  0.00  0.00    +0.000 A 
ATOM      9  C   UNL     1      35.086  -6.968  30.273  0.00  0.00    +0.000 A 
ATOM     10  C   UNL     1      34.366  -6.831  29.104  0.00  0.00    +0.000 A 
ATOM     11  F   UNL     1      34.629  -7.555  27.986  0.00  0.00    +0.000 F 
ATOM     12  C   UNL     1      33.340  -5.910  29.107  0.00  0.00    +0.000 A 
ATOM     13  C   UNL     1      33.056  -5.164  30.233  0.00  0.00    +0.000 A 
ENDBRANCH   3   7
BRANCH   1  15
ATOM     14  C   UNL     1      34.458  -1.422  35.680  0.00  0.00    +0.000 C 
ATOM     15  C   UNL     1      33.471  -1.482  34.540  0.00  0.00    +0.000 C 
ATOM     16  C   UNL     1      32.138  -0.977  35.073  0.00  0.00    +0.000 C 
ATOM     17  C   UNL     1      33.958  -0.521  33.460  0.00  0.00    +0.000 C 
ENDBRANCH   1  15
BRANCH   4  18
ATOM     18  C   UNL     1      32.473  -6.282  34.017  0.00  0.00    +0.000 C 
ATOM     19  N   UNL     1      32.134  -7.382  34.218  0.00  0.00    +0.000 NA
ENDBRANCH   4  18
TORSDOF 3
ENDMDL
MODEL 4
REMARK VINA RESULT:      -6.0      4.821      8.154
REMARK  Name = 
REMARK  3 active torsions:
REMARK  status: ('A' for Active; 'I' for Inactive)
REMARK    1  A    between atoms: C_2  and  N_5
REMARK    2  A    between atoms: C_7  and  C_8
REMARK    3  A    between atoms: C_15  and  C_16
REMARK                            x       y       z     vdW  Elec       q    Type
REMARK                         _______ _______ _______ _____ _____    ______ ____
ROOT
ATOM      1  N   UNL     1      16.965  10.517  37.984  0.00  0.00    +0.000 N 
ATOM      2  N   UNL     1      16.315  10.242  39.114  0.00  0.00    +0.000 NA
ATOM      3  C   UNL     1      17.081   9.517  39.936  0.00  0.00    +0.000 A 
ATOM      4  C   UNL     1      18.275   9.336  39.267  0.00  0.00    +0.000 A 
ATOM      5  C   UNL     1      18.190   9.964  38.050  0.00  0.00    +0.000 A 
ATOM      6  N   UNL     1      19.206  10.031  37.029  0.00  0.00    +0.000 NA
ENDROOT
BRANCH   3   7
ATOM      7  C   UNL     1      16.702   9.031  41.264  0.00  0.00    +0.000 A 
ATOM      8  C   UNL     1      16.246   7.739  41.428  0.00  0.00    +0.000 A 
ATOM      9  C   UNL     1      15.885   7.268  42.674  0.00  0.00    +0.000 A 
ATOM     10  C   UNL     1      15.961   8.054  43.805  0.00  0.00    +0.000 A 
ATOM     11  F   UNL     1      15.611   7.609  45.039  0.00  0.00    +0.000 F 
ATOM     12  C   UNL     1      16.418   9.345  43.639  0.00  0.00    +0.000 A 
ATOM     13  C   UNL     1      16.779   9.818  42.394  0.00  0.00    +0.000 A 
ENDBRANCH   3   7
BRANCH   1  15
ATOM     14  C   UNL     1      16.660  10.552  35.549  0.00  0.00    +0.000 C 
ATOM     15  C   UNL     1      16.463  11.278  36.856  0.00  0.00    +0.000 C 
ATOM     16  C   UNL     1      17.160  12.625  36.731  0.00  0.00    +0.000 C 
ATOM     17  C   UNL     1      14.967  11.520  37.026  0.00  0.00    +0.000 C 
ENDBRANCH   1  15
BRANCH   4  18
ATOM     18  C   UNL     1      19.382   8.607  39.798  0.00  0.00    +0.000 C 
ATOM     19  N   UNL     1      20.277   7.997  40.233  0.00  0.00    +0.000 NA
ENDBRANCH   4  18
TORSDOF 3
ENDMDL
MODEL 5
REMARK VINA RESULT:      -5.9     19.926     21.157
REMARK  Name = 
REMARK  3 active torsions:
REMARK  status: ('A' for Active; 'I' for Inactive)
REMARK    1  A    between atoms: C_2  and  N_5
REMARK    2  A    between atoms: C_7  and  C_8
REMARK    3  A    between atoms: C_15  and  C_16
REMARK                            x       y       z     vdW  Elec       q    Type
REMARK                         _______ _______ _______ _____ _____    ______ ____
ROOT
ATOM      1  N   UNL     1      33.846   1.380  35.290  0.00  0.00    +0.000 N 
ATOM      2  N   UNL     1      34.159   2.604  34.867  0.00  0.00    +0.000 NA
ATOM      3  C   UNL     1      34.357   3.427  35.901  0.00  0.00    +0.000 A 
ATOM      4  C   UNL     1      34.153   2.660  37.030  0.00  0.00    +0.000 A 
ATOM      5  C   UNL     1      33.834   1.385  36.636  0.00  0.00    +0.000 A 
ATOM      6  N   UNL     1      33.541   0.256  37.485  0.00  0.00    +0.000 NA
ENDROOT
BRANCH   3   7
ATOM      7  C   UNL     1      34.716   4.844  35.819  0.00  0.00    +0.000 A 
ATOM      8  C   UNL     1      36.037   5.222  35.703  0.00  0.00    +0.000 A 
ATOM      9  C   UNL     1      36.389   6.554  35.626  0.00  0.00    +0.000 A 
ATOM     10  C   UNL     1      35.450   7.564  35.659  0.00  0.00    +0.000 A 
ATOM     11  F   UNL     1      35.776   8.880  35.584  0.00  0.00    +0.000 F 
ATOM     12  C   UNL     1      34.129   7.184  35.775  0.00  0.00    +0.000 A 
ATOM     13  C   UNL     1      33.776   5.853  35.853  0.00  0.00    +0.000 A 
ENDBRANCH   3   7
BRANCH   1  15
ATOM     14  C   UNL     1      32.147  -0.271  34.650  0.00  0.00    +0.000 C 
ATOM     15  C   UNL     1      33.561   0.221  34.467  0.00  0.00    +0.000 C 
ATOM     16  C   UNL     1      34.487  -0.943  34.791  0.00  0.00    +0.000 C 
ATOM     17  C   UNL     1      33.734   0.583  32.995  0.00  0.00    +0.000 C 
ENDBRANCH   1  15
BRANCH   4  18
ATOM     18  C   UNL     1      34.266   3.160  38.363  0.00  0.00    +0.000 C 
ATOM     19  N   UNL     1      34.355   3.584  39.447  0.00  0.00    +0.000 NA
ENDBRANCH   4  18
TORSDOF 3
ENDMDL
MODEL 6
REMARK VINA RESULT:      -5.9     19.966     21.891
REMARK  Name = 
REMARK  3 active torsions:
REMARK  status: ('A' for Active; 'I' for Inactive)
REMARK    1  A    between atoms: C_2  and  N_5
REMARK    2  A    between atoms: C_7  and  C_8
REMARK    3  A    between atoms: C_15  and  C_16
REMARK                            x       y       z     vdW  Elec       q    Type
REMARK                         _______ _______ _______ _____ _____    ______ ____
ROOT
ATOM      1  N   UNL     1      34.031   2.974  35.796  0.00  0.00    +0.000 N 
ATOM      2  N   UNL     1      33.621   1.964  35.030  0.00  0.00    +0.000 NA
ATOM      3  C   UNL     1      33.717   0.803  35.686  0.00  0.00    +0.000 A 
ATOM      4  C   UNL     1      34.218   1.121  36.932  0.00  0.00    +0.000 A 
ATOM      5  C   UNL     1      34.410   2.479  36.988  0.00  0.00    +0.000 A 
ATOM      6  N   UNL     1      34.917   3.244  38.101  0.00  0.00    +0.000 NA
ENDROOT
BRANCH   3   7
ATOM      7  C   UNL     1      33.357  -0.516  35.162  0.00  0.00    +0.000 A 
ATOM      8  C   UNL     1      34.109  -1.095  34.161  0.00  0.00    +0.000 A 
ATOM      9  C   UNL     1      33.782  -2.338  33.658  0.00  0.00    +0.000 A 
ATOM     10  C   UNL     1      32.700  -3.056  34.125  0.00  0.00    +0.000 A 
ATOM     11  F   UNL     1      32.362  -4.280  33.642  0.00  0.00    +0.000 F 
ATOM     12  C   UNL     1      31.950  -2.475  35.126  0.00  0.00    +0.000 A 
ATOM     13  C   UNL     1      32.276  -1.233  35.629  0.00  0.00    +0.000 A 
ENDBRANCH   3   7
BRANCH   1  15
ATOM     14  C   UNL     1      35.485   4.913  35.405  0.00  0.00    +0.000 C 
ATOM     15  C   UNL     1      34.074   4.378  35.434  0.00  0.00    +0.000 C 
ATOM     16  C   UNL     1      33.287   5.237  36.413  0.00  0.00    +0.000 C 
ATOM     17  C   UNL     1      33.484   4.566  34.040  0.00  0.00    +0.000 C 
ENDBRANCH   1  15
BRANCH   4  18
ATOM     18  C   UNL     1      34.475   0.160  37.955  0.00  0.00    +0.000 C 
ATOM     19  N   UNL     1      34.681  -0.615  38.804  0.00  0.00    +0.000 NA
ENDBRANCH   4  18
TORSDOF 3
ENDMDL
MODEL 7
REMARK VINA RESULT:      -5.9     17.474     18.519
REMARK  Name = 
REMARK  3 active torsions:
REMARK  status: ('A' for Active; 'I' for Inactive)
REMARK    1  A    between atoms: C_2  and  N_5
REMARK    2  A    between atoms: C_7  and  C_8
REMARK    3  A    between atoms: C_15  and  C_16
REMARK                            x       y       z     vdW  Elec       q    Type
REMARK                         _______ _______ _______ _____ _____    ______ ____
ROOT
ATOM      1  N   UNL     1      30.422  22.831  29.745  0.00  0.00    +0.000 N 
ATOM      2  N   UNL     1      29.858  23.134  28.577  0.00  0.00    +0.000 NA
ATOM      3  C   UNL     1      28.541  22.905  28.613  0.00  0.00    +0.000 A 
ATOM      4  C   UNL     1      28.282  22.431  29.883  0.00  0.00    +0.000 A 
ATOM      5  C   UNL     1      29.463  22.390  30.580  0.00  0.00    +0.000 A 
ATOM      6  N   UNL     1      29.659  21.959  31.943  0.00  0.00    +0.000 NA
ENDROOT
BRANCH   3   7
ATOM      7  C   UNL     1      27.597  23.122  27.515  0.00  0.00    +0.000 A 
ATOM      8  C   UNL     1      27.806  22.522  26.290  0.00  0.00    +0.000 A 
ATOM      9  C   UNL     1      26.924  22.718  25.246  0.00  0.00    +0.000 A 
ATOM     10  C   UNL     1      25.803  23.512  25.372  0.00  0.00    +0.000 A 
ATOM     11  F   UNL     1      24.925  23.717  24.358  0.00  0.00    +0.000 F 
ATOM     12  C   UNL     1      25.597  24.110  26.598  0.00  0.00    +0.000 A 
ATOM     13  C   UNL     1      26.477  23.916  27.642  0.00  0.00    +0.000 A 
ENDBRANCH   3   7
BRANCH   1  15
ATOM     14  C   UNL     1      32.427  21.616  30.470  0.00  0.00    +0.000 C 
ATOM     15  C   UNL     1      31.826  22.946  30.088  0.00  0.00    +0.000 C 
ATOM     16  C   UNL     1      32.045  23.891  31.261  0.00  0.00    +0.000 C 
ATOM     17  C   UNL     1      32.605  23.474  28.888  0.00  0.00    +0.000 C 
ENDBRANCH   1  15
BRANCH   4  18
ATOM     18  C   UNL     1      26.983  22.060  30.344  0.00  0.00    +0.000 C 
ATOM     19  N   UNL     1      25.927  21.750  30.735  0.00  0.00    +0.000 NA
ENDBRANCH   4  18
TORSDOF 3
ENDMDL
MODEL 8
REMARK VINA RESULT:      -5.9     21.349     23.857
REMARK  Name = 
REMARK  3 active torsions:
REMARK  status: ('A' for Active; 'I' for Inactive)
REMARK    1  A    between atoms: C_2  and  N_5
REMARK    2  A    between atoms: C_7  and  C_8
REMARK    3  A    between atoms: C_15  and  C_16
REMARK                            x       y       z     vdW  Elec       q    Type
REMARK                         _______ _______ _______ _____ _____    ______ ____
ROOT
ATOM      1  N   UNL     1      33.943  -4.721  33.025  0.00  0.00    +0.000 N 
ATOM      2  N   UNL     1      33.643  -3.476  32.658  0.00  0.00    +0.000 NA
ATOM      3  C   UNL     1      33.822  -2.627  33.675  0.00  0.00    +0.000 A 
ATOM      4  C   UNL     1      34.257  -3.400  34.732  0.00  0.00    +0.000 A 
ATOM      5  C   UNL     1      34.328  -4.705  34.314  0.00  0.00    +0.000 A 
ATOM      6  N   UNL     1      34.735  -5.851  35.091  0.00  0.00    +0.000 NA
ENDROOT
BRANCH   3   7
ATOM      7  C   UNL     1      33.592  -1.181  33.642  0.00  0.00    +0.000 A 
ATOM      8  C   UNL     1      34.328  -0.380  32.794  0.00  0.00    +0.000 A 
ATOM      9  C   UNL     1      34.123   0.985  32.753  0.00  0.00    +0.000 A 
ATOM     10  C   UNL     1      33.183   1.609  33.547  0.00  0.00    +0.000 A 
ATOM     11  F   UNL     1      32.966   2.949  33.521  0.00  0.00    +0.000 F 
ATOM     12  C   UNL     1      32.449   0.806  34.394  0.00  0.00    +0.000 A 
ATOM     13  C   UNL     1      32.653  -0.558  34.437  0.00  0.00    +0.000 A 
ENDBRANCH   3   7
BRANCH   1  15
ATOM     14  C   UNL     1      33.258  -5.630  30.850  0.00  0.00    +0.000 C 
ATOM     15  C   UNL     1      33.874  -5.911  32.199  0.00  0.00    +0.000 C 
ATOM     16  C   UNL     1      33.041  -7.004  32.853  0.00  0.00    +0.000 C 
ATOM     17  C   UNL     1      35.280  -6.451  31.958  0.00  0.00    +0.000 C 
ENDBRANCH   1  15
BRANCH   4  18
ATOM     18  C   UNL     1      34.566  -2.879  36.025  0.00  0.00    +0.000 C 
ATOM     19  N   UNL     1      34.823  -2.469  37.088  0.00  0.00    +0.000 NA
ENDBRANCH   4  18
TORSDOF 3
ENDMDL
MODEL 9
REMARK VINA RESULT:      -5.7     21.448     23.149
REMARK  Name = 
REMARK  3 active torsions:
REMARK  status: ('A' for Active; 'I' for Inactive)
REMARK    1  A    between atoms: C_2  and  N_5
REMARK    2  A    between atoms: C_7  and  C_8
REMARK    3  A    between atoms: C_15  and  C_16
REMARK                            x       y       z     vdW  Elec       q    Type
REMARK                         _______ _______ _______ _____ _____    ______ ____
ROOT
ATOM      1  N   UNL     1      22.084  -7.919  24.752  0.00  0.00    +0.000 N 
ATOM      2  N   UNL     1      21.415  -8.748  25.552  0.00  0.00    +0.000 NA
ATOM      3  C   UNL     1      20.378  -8.124  26.120  0.00  0.00    +0.000 A 
ATOM      4  C   UNL     1      20.414  -6.831  25.639  0.00  0.00    +0.000 A 
ATOM      5  C   UNL     1      21.484  -6.715  24.787  0.00  0.00    +0.000 A 
ATOM      6  N   UNL     1      21.898  -5.540  24.060  0.00  0.00    +0.000 NA
ENDROOT
BRANCH   3   7
ATOM      7  C   UNL     1      19.421  -8.718  27.055  0.00  0.00    +0.000 A 
ATOM      8  C   UNL     1      19.849  -9.208  28.271  0.00  0.00    +0.000 A 
ATOM      9  C   UNL     1      18.958  -9.770  29.162  0.00  0.00    +0.000 A 
ATOM     10  C   UNL     1      17.609  -9.870  28.887  0.00  0.00    +0.000 A 
ATOM     11  F   UNL     1      16.718 -10.420  29.750  0.00  0.00    +0.000 F 
ATOM     12  C   UNL     1      17.184  -9.380  27.670  0.00  0.00    +0.000 A 
ATOM     13  C   UNL     1      18.073  -8.818  26.778  0.00  0.00    +0.000 A 
ENDBRANCH   3   7
BRANCH   1  15
ATOM     14  C   UNL     1      24.305  -7.144  24.052  0.00  0.00    +0.000 C 
ATOM     15  C   UNL     1      23.263  -8.231  23.967  0.00  0.00    +0.000 C 
ATOM     16  C   UNL     1      22.926  -8.417  22.494  0.00  0.00    +0.000 C 
ATOM     17  C   UNL     1      23.898  -9.517  24.485  0.00  0.00    +0.000 C 
ENDBRANCH   1  15
BRANCH   4  18
ATOM     18  C   UNL     1      19.473  -5.821  26.001  0.00  0.00    +0.000 C 
ATOM     19  N   UNL     1      18.693  -4.999  26.283  0.00  0.00    +0.000 NA
ENDBRANCH   4  18
TORSDOF 3
ENDMDL
MODEL 10
REMARK VINA RESULT:      -5.7     20.615     22.658
REMARK  Name = 
REMARK  3 active torsions:
REMARK  status: ('A' for Active; 'I' for Inactive)
REMARK    1  A    between atoms: C_2  and  N_5
REMARK    2  A    between atoms: C_7  and  C_8
REMARK    3  A    between atoms: C_15  and  C_16
REMARK                            x       y       z     vdW  Elec       q    Type
REMARK                         _______ _______ _______ _____ _____    ______ ____
ROOT
ATOM      1  N   UNL     1      22.681   2.846  16.860  0.00  0.00    +0.000 N 
ATOM      2  N   UNL     1      23.324   3.797  17.537  0.00  0.00    +0.000 NA
ATOM      3  C   UNL     1      24.540   4.004  17.022  0.00  0.00    +0.000 A 
ATOM      4  C   UNL     1      24.650   3.125  15.964  0.00  0.00    +0.000 A 
ATOM      5  C   UNL     1      23.484   2.408  15.873  0.00  0.00    +0.000 A 
ATOM      6  N   UNL     1      23.163   1.380  14.913  0.00  0.00    +0.000 NA
ENDROOT
BRANCH   3   7
ATOM      7  C   UNL     1      25.528   4.971  17.505  0.00  0.00    +0.000 A 
ATOM      8  C   UNL     1      26.302   4.683  18.610  0.00  0.00    +0.000 A 
ATOM      9  C   UNL     1      27.236   5.585  19.076  0.00  0.00    +0.000 A 
ATOM     10  C   UNL     1      27.443   6.806  18.468  0.00  0.00    +0.000 A 
ATOM     11  F   UNL     1      28.357   7.707  18.911  0.00  0.00    +0.000 F 
ATOM     12  C   UNL     1      26.669   7.093  17.363  0.00  0.00    +0.000 A 
ATOM     13  C   UNL     1      25.734   6.192  16.896  0.00  0.00    +0.000 A 
ENDBRANCH   3   7
BRANCH   1  15
ATOM     14  C   UNL     1      20.480   2.373  15.884  0.00  0.00    +0.000 C 
ATOM     15  C   UNL     1      21.345   2.347  17.120  0.00  0.00    +0.000 C 
ATOM     16  C   UNL     1      20.632   3.170  18.183  0.00  0.00    +0.000 C 
ATOM     17  C   UNL     1      21.421   0.901  17.596  0.00  0.00    +0.000 C 
ENDBRANCH   1  15
BRANCH   4  18
ATOM     18  C   UNL     1      25.807   3.019  15.134  0.00  0.00    +0.000 C 
ATOM     19  N   UNL     1      26.758   2.917  14.463  0.00  0.00    +0.000 NA
ENDBRANCH   4  18
TORSDOF 3
ENDMDL
