MODEL 1
REMARK VINA RESULT:      -6.2      0.000      0.000
REMARK  Name = 
REMARK  3 active torsions:
REMARK  status: ('A' for Active; 'I' for Inactive)
REMARK    1  A    between atoms: O_2  and  C_3
REMARK    2  A    between atoms: N_5  and  C_6
REMARK    3  A    between atoms: C_17  and  O_18
REMARK                            x       y       z     vdW  Elec       q    Type
REMARK                         _______ _______ _______ _____ _____    ______ ____
ROOT
ATOM      1  C   UNL     1      18.215   9.585  37.959  0.00  0.00    +0.000 C 
ATOM      2  C   UNL     1      17.665   9.371  39.423  0.00  0.00    +0.000 A 
ATOM      3  C   UNL     1      18.586   8.637  40.217  0.00  0.00    +0.000 A 
ATOM      4  C   UNL     1      18.219   8.386  41.517  0.00  0.00    +0.000 A 
ATOM      5  C   UNL     1      17.007   8.841  41.993  0.00  0.00    +0.000 A 
ATOM      6  C   UNL     1      16.120   9.565  41.181  0.00  0.00    +0.000 A 
ATOM      7  C   UNL     1      16.512   9.802  39.882  0.00  0.00    +0.000 A 
ATOM      8  O   UNL     1      15.717  10.491  39.034  0.00  0.00    +0.000 OA
ATOM      9  C   UNL     1      15.946  10.812  37.734  0.00  0.00    +0.000 A 
ATOM     10  C   UNL     1      15.057  11.529  36.942  0.00  0.00    +0.000 A 
ATOM     11  C   UNL     1      15.381  11.808  35.624  0.00  0.00    +0.000 A 
ATOM     12  C   UNL     1      16.574  11.385  35.082  0.00  0.00    +0.000 A 
ATOM     13  C   UNL     1      17.430  10.680  35.883  0.00  0.00    +0.000 A 
ATOM     14  C   UNL     1      17.080  10.407  37.227  0.00  0.00    +0.000 A 
ENDROOT
BRANCH   1  17
ATOM     15  C   UNL     1      20.427  10.802  37.816  0.00  0.00    +0.000 C 
ATOM     16  O   UNL     1      20.810   9.797  37.170  0.00  0.00    +0.000 OA
ATOM     17  N   UNL     1      19.084  10.870  38.316  0.00  0.00    +0.000 NA
BRANCH  15  19
ATOM     18  C   UNL     1      20.919  13.119  38.444  0.00  0.00    +0.000 C 
ATOM     19  O   UNL     1      21.309  11.817  38.031  0.00  0.00    +0.000 OA
ENDBRANCH  15  19
ENDBRANCH   1  17
BRANCH  12  20
ATOM     20  O   UNL     1      16.888  11.677  33.735  0.00  0.00    +0.000 OA
ATOM     21  C   UNL     1      16.137  11.042  32.719  0.00  0.00    +0.000 C 
ENDBRANCH  12  20
TORSDOF 3
ENDMDL
MODEL 2
REMARK VINA RESULT:      -6.0     19.193     20.955
REMARK  Name = 
REMARK  3 active torsions:
REMARK  status: ('A' for Active; 'I' for Inactive)
REMARK    1  A    between atoms: O_2  and  C_3
REMARK    2  A    between atoms: N_5  and  C_6
REMARK    3  A    between atoms: C_17  and  O_18
REMARK                            x       y       z     vdW  Elec       q    Type
REMARK                         _______ _______ _______ _____ _____    ______ ____
ROOT
ATOM      1  C   UNL     1      29.875  22.519  26.074  0.00  0.00    +0.000 C 
ATOM      2  C   UNL     1      30.050  22.536  27.641  0.00  0.00    +0.000 A 
ATOM      3  C   UNL     1      31.383  22.215  28.015  0.00  0.00    +0.000 A 
ATOM      4  C   UNL     1      31.661  22.197  29.360  0.00  0.00    +0.000 A 
ATOM      5  C   UNL     1      30.670  22.483  30.274  0.00  0.00    +0.000 A 
ATOM      6  C   UNL     1      29.362  22.796  29.872  0.00  0.00    +0.000 A 
ATOM      7  C   UNL     1      29.110  22.807  28.518  0.00  0.00    +0.000 A 
ATOM      8  O   UNL     1      27.878  23.098  28.046  0.00  0.00    +0.000 OA
ATOM      9  C   UNL     1      27.459  23.153  26.755  0.00  0.00    +0.000 A 
ATOM     10  C   UNL     1      26.160  23.465  26.371  0.00  0.00    +0.000 A 
ATOM     11  C   UNL     1      25.828  23.496  25.027  0.00  0.00    +0.000 A 
ATOM     12  C   UNL     1      26.768  23.222  24.057  0.00  0.00    +0.000 A 
ATOM     13  C   UNL     1      28.039  22.917  24.463  0.00  0.00    +0.000 A 
ATOM     14  C   UNL     1      28.356  22.892  25.841  0.00  0.00    +0.000 A 
ENDROOT
BRANCH   1  17
ATOM     15  C   UNL     1      31.450  24.096  24.879  0.00  0.00    +0.000 C 
ATOM     16  O   UNL     1      31.865  23.063  24.299  0.00  0.00    +0.000 OA
ATOM     17  N   UNL     1      30.400  24.006  25.852  0.00  0.00    +0.000 NA
BRANCH  15  19
ATOM     18  C   UNL     1      33.275  25.721  25.070  0.00  0.00    +0.000 C 
ATOM     19  O   UNL     1      32.016  25.294  24.566  0.00  0.00    +0.000 OA
ENDBRANCH  15  19
ENDBRANCH   1  17
BRANCH  12  20
ATOM     20  O   UNL     1      26.413  23.257  22.690  0.00  0.00    +0.000 OA
ATOM     21  C   UNL     1      27.079  24.178  21.848  0.00  0.00    +0.000 C 
ENDBRANCH  12  20
TORSDOF 3
ENDMDL
MODEL 3
REMARK VINA RESULT:      -6.0     20.213     22.648
REMARK  Name = 
REMARK  3 active torsions:
REMARK  status: ('A' for Active; 'I' for Inactive)
REMARK    1  A    between atoms: O_2  and  C_3
REMARK    2  A    between atoms: N_5  and  C_6
REMARK    3  A    between atoms: C_17  and  O_18
REMARK                            x       y       z     vdW  Elec       q    Type
REMARK                         _______ _______ _______ _____ _____    ______ ____
ROOT
ATOM      1  C   UNL     1      29.219  23.327  24.455  0.00  0.00    +0.000 C 
ATOM      2  C   UNL     1      28.265  23.399  25.709  0.00  0.00    +0.000 A 
ATOM      3  C   UNL     1      28.662  22.474  26.712  0.00  0.00    +0.000 A 
ATOM      4  C   UNL     1      27.905  22.442  27.858  0.00  0.00    +0.000 A 
ATOM      5  C   UNL     1      26.820  23.282  27.993  0.00  0.00    +0.000 A 
ATOM      6  C   UNL     1      26.455  24.185  26.982  0.00  0.00    +0.000 A 
ATOM      7  C   UNL     1      27.230  24.197  25.844  0.00  0.00    +0.000 A 
ATOM      8  O   UNL     1      26.948  25.036  24.823  0.00  0.00    +0.000 OA
ATOM      9  C   UNL     1      27.601  25.177  23.641  0.00  0.00    +0.000 A 
ATOM     10  C   UNL     1      27.227  26.076  22.648  0.00  0.00    +0.000 A 
ATOM     11  C   UNL     1      27.958  26.147  21.474  0.00  0.00    +0.000 A 
ATOM     12  C   UNL     1      29.054  25.337  21.270  0.00  0.00    +0.000 A 
ATOM     13  C   UNL     1      29.399  24.461  22.262  0.00  0.00    +0.000 A 
ATOM     14  C   UNL     1      28.639  24.405  23.454  0.00  0.00    +0.000 A 
ENDROOT
BRANCH   1  17
ATOM     15  C   UNL     1      31.664  23.822  24.872  0.00  0.00    +0.000 C 
ATOM     16  O   UNL     1      31.869  22.731  24.286  0.00  0.00    +0.000 OA
ATOM     17  N   UNL     1      30.325  24.302  25.057  0.00  0.00    +0.000 NA
BRANCH  15  19
ATOM     18  C   UNL     1      34.004  24.526  24.690  0.00  0.00    +0.000 C 
ATOM     19  O   UNL     1      32.734  24.531  25.327  0.00  0.00    +0.000 OA
ENDBRANCH  15  19
ENDBRANCH   1  17
BRANCH  12  20
ATOM     20  O   UNL     1      29.788  25.422  20.065  0.00  0.00    +0.000 OA
ATOM     21  C   UNL     1      29.935  26.691  19.457  0.00  0.00    +0.000 C 
ENDBRANCH  12  20
TORSDOF 3
ENDMDL
MODEL 4
REMARK VINA RESULT:      -6.0     21.540     23.334
REMARK  Name = 
REMARK  3 active torsions:
REMARK  status: ('A' for Active; 'I' for Inactive)
REMARK    1  A    between atoms: O_2  and  C_3
REMARK    2  A    between atoms: N_5  and  C_6
REMARK    3  A    between atoms: C_17  and  O_18
REMARK                            x       y       z     vdW  Elec       q    Type
REMARK                         _______ _______ _______ _____ _____    ______ ____
ROOT
ATOM      1  C   UNL     1      21.097  -8.724  25.210  0.00  0.00    +0.000 C 
ATOM      2  C   UNL     1      22.435  -8.062  24.700  0.00  0.00    +0.000 A 
ATOM      3  C   UNL     1      23.361  -9.044  24.258  0.00  0.00    +0.000 A 
ATOM      4  C   UNL     1      24.570  -8.588  23.788  0.00  0.00    +0.000 A 
ATOM      5  C   UNL     1      24.835  -7.236  23.763  0.00  0.00    +0.000 A 
ATOM      6  C   UNL     1      23.897  -6.291  24.208  0.00  0.00    +0.000 A 
ATOM      7  C   UNL     1      22.694  -6.774  24.673  0.00  0.00    +0.000 A 
ATOM      8  O   UNL     1      21.737  -5.932  25.119  0.00  0.00    +0.000 OA
ATOM      9  C   UNL     1      20.506  -6.235  25.607  0.00  0.00    +0.000 A 
ATOM     10  C   UNL     1      19.588  -5.288  26.044  0.00  0.00    +0.000 A 
ATOM     11  C   UNL     1      18.355  -5.696  26.526  0.00  0.00    +0.000 A 
ATOM     12  C   UNL     1      18.021  -7.032  26.581  0.00  0.00    +0.000 A 
ATOM     13  C   UNL     1      18.943  -7.943  26.145  0.00  0.00    +0.000 A 
ATOM     14  C   UNL     1      20.197  -7.504  25.656  0.00  0.00    +0.000 A 
ENDROOT
BRANCH   1  17
ATOM     15  C   UNL     1      19.944 -10.159  23.476  0.00  0.00    +0.000 C 
ATOM     16  O   UNL     1      20.061 -11.078  24.322  0.00  0.00    +0.000 OA
ATOM     17  N   UNL     1      20.434  -8.843  23.767  0.00  0.00    +0.000 NA
BRANCH  15  19
ATOM     18  C   UNL     1      19.868 -10.020  21.030  0.00  0.00    +0.000 C 
ATOM     19  O   UNL     1      19.346 -10.438  22.284  0.00  0.00    +0.000 OA
ENDBRANCH  15  19
ENDBRANCH   1  17
BRANCH  12  20
ATOM     20  O   UNL     1      16.759  -7.431  27.077  0.00  0.00    +0.000 OA
ATOM     21  C   UNL     1      15.893  -8.140  26.212  0.00  0.00    +0.000 C 
ENDBRANCH  12  20
TORSDOF 3
ENDMDL
MODEL 5
REMARK VINA RESULT:      -5.9     21.461     23.114
REMARK  Name = 
REMARK  3 active torsions:
REMARK  status: ('A' for Active; 'I' for Inactive)
REMARK    1  A    between atoms: O_2  and  C_3
REMARK    2  A    between atoms: N_5  and  C_6
REMARK    3  A    between atoms: C_17  and  O_18
REMARK                            x       y       z     vdW  Elec       q    Type
REMARK                         _______ _______ _______ _____ _____    ______ ____
ROOT
ATOM      1  C   UNL     1      20.524  -8.633  25.340  0.00  0.00    +0.000 C 
ATOM      2  C   UNL     1      19.700  -7.405  25.888  0.00  0.00    +0.000 A 
ATOM      3  C   UNL     1      18.497  -7.828  26.515  0.00  0.00    +0.000 A 
ATOM      4  C   UNL     1      17.691  -6.844  27.034  0.00  0.00    +0.000 A 
ATOM      5  C   UNL     1      18.063  -5.521  26.933  0.00  0.00    +0.000 A 
ATOM      6  C   UNL     1      19.259  -5.136  26.306  0.00  0.00    +0.000 A 
ATOM      7  C   UNL     1      20.049  -6.141  25.795  0.00  0.00    +0.000 A 
ATOM      8  O   UNL     1      21.216  -5.857  25.176  0.00  0.00    +0.000 OA
ATOM      9  C   UNL     1      22.108  -6.716  24.619  0.00  0.00    +0.000 A 
ATOM     10  C   UNL     1      23.288  -6.320  24.001  0.00  0.00    +0.000 A 
ATOM     11  C   UNL     1      24.136  -7.274  23.462  0.00  0.00    +0.000 A 
ATOM     12  C   UNL     1      23.829  -8.615  23.526  0.00  0.00    +0.000 A 
ATOM     13  C   UNL     1      22.660  -8.977  24.139  0.00  0.00    +0.000 A 
ATOM     14  C   UNL     1      21.809  -7.987  24.684  0.00  0.00    +0.000 A 
ENDROOT
BRANCH   1  17
ATOM     15  C   UNL     1      21.039 -10.304  27.167  0.00  0.00    +0.000 C 
ATOM     16  O   UNL     1      20.349 -11.098  26.481  0.00  0.00    +0.000 OA
ATOM     17  N   UNL     1      21.242  -8.955  26.724  0.00  0.00    +0.000 NA
BRANCH  15  19
ATOM     18  C   UNL     1      21.158 -11.936  28.992  0.00  0.00    +0.000 C 
ATOM     19  O   UNL     1      21.583 -10.751  28.333  0.00  0.00    +0.000 OA
ENDBRANCH  15  19
ENDBRANCH   1  17
BRANCH  12  20
ATOM     20  O   UNL     1      24.704  -9.575  22.970  0.00  0.00    +0.000 OA
ATOM     21  C   UNL     1      25.808  -9.115  22.213  0.00  0.00    +0.000 C 
ENDBRANCH  12  20
TORSDOF 3
ENDMDL
MODEL 6
REMARK VINA RESULT:      -5.9     18.022     20.486
REMARK  Name = 
REMARK  3 active torsions:
REMARK  status: ('A' for Active; 'I' for Inactive)
REMARK    1  A    between atoms: O_2  and  C_3
REMARK    2  A    between atoms: N_5  and  C_6
REMARK    3  A    between atoms: C_17  and  O_18
REMARK                            x       y       z     vdW  Elec       q    Type
REMARK                         _______ _______ _______ _____ _____    ______ ____
ROOT
ATOM      1  C   UNL     1      28.744  22.804  26.756  0.00  0.00    +0.000 C 
ATOM      2  C   UNL     1      27.924  22.952  28.095  0.00  0.00    +0.000 A 
ATOM      3  C   UNL     1      28.719  22.624  29.226  0.00  0.00    +0.000 A 
ATOM      4  C   UNL     1      28.112  22.716  30.456  0.00  0.00    +0.000 A 
ATOM      5  C   UNL     1      26.795  23.110  30.549  0.00  0.00    +0.000 A 
ATOM      6  C   UNL     1      26.037  23.427  29.411  0.00  0.00    +0.000 A 
ATOM      7  C   UNL     1      26.668  23.328  28.191  0.00  0.00    +0.000 A 
ATOM      8  O   UNL     1      26.010  23.615  27.046  0.00  0.00    +0.000 OA
ATOM      9  C   UNL     1      26.475  23.569  25.771  0.00  0.00    +0.000 A 
ATOM     10  C   UNL     1      25.712  23.886  24.653  0.00  0.00    +0.000 A 
ATOM     11  C   UNL     1      26.277  23.810  23.390  0.00  0.00    +0.000 A 
ATOM     12  C   UNL     1      27.588  23.423  23.221  0.00  0.00    +0.000 A 
ATOM     13  C   UNL     1      28.317  23.117  24.338  0.00  0.00    +0.000 A 
ATOM     14  C   UNL     1      27.720  23.201  25.619  0.00  0.00    +0.000 A 
ENDROOT
BRANCH   1  17
ATOM     15  C   UNL     1      30.838  24.221  26.720  0.00  0.00    +0.000 C 
ATOM     16  O   UNL     1      31.440  23.128  26.579  0.00  0.00    +0.000 OA
ATOM     17  N   UNL     1      29.408  24.249  26.831  0.00  0.00    +0.000 NA
BRANCH  15  19
ATOM     18  C   UNL     1      32.908  25.464  26.297  0.00  0.00    +0.000 C 
ATOM     19  O   UNL     1      31.569  25.369  26.765  0.00  0.00    +0.000 OA
ENDBRANCH  15  19
ENDBRANCH   1  17
BRANCH  12  20
ATOM     20  O   UNL     1      28.148  23.350  21.926  0.00  0.00    +0.000 OA
ATOM     21  C   UNL     1      28.990  24.404  21.499  0.00  0.00    +0.000 C 
ENDBRANCH  12  20
TORSDOF 3
ENDMDL
MODEL 7
REMARK VINA RESULT:      -5.7     18.583     20.773
REMARK  Name = 
REMARK  3 active torsions:
REMARK  status: ('A' for Active; 'I' for Inactive)
REMARK    1  A    between atoms: O_2  and  C_3
REMARK    2  A    between atoms: N_5  and  C_6
REMARK    3  A    between atoms: C_17  and  O_18
REMARK                            x       y       z     vdW  Elec       q    Type
REMARK                         _______ _______ _______ _____ _____    ______ ____
ROOT
ATOM      1  C   UNL     1      27.487  22.769  26.942  0.00  0.00    +0.000 C 
ATOM      2  C   UNL     1      27.235  23.053  25.411  0.00  0.00    +0.000 A 
ATOM      3  C   UNL     1      25.848  23.020  25.102  0.00  0.00    +0.000 A 
ATOM      4  C   UNL     1      25.500  23.255  23.793  0.00  0.00    +0.000 A 
ATOM      5  C   UNL     1      26.477  23.506  22.853  0.00  0.00    +0.000 A 
ATOM      6  C   UNL     1      27.839  23.531  23.192  0.00  0.00    +0.000 A 
ATOM      7  C   UNL     1      28.160  23.294  24.510  0.00  0.00    +0.000 A 
ATOM      8  O   UNL     1      29.448  23.300  24.919  0.00  0.00    +0.000 OA
ATOM      9  C   UNL     1      29.938  23.087  26.168  0.00  0.00    +0.000 A 
ATOM     10  C   UNL     1      31.290  23.115  26.488  0.00  0.00    +0.000 A 
ATOM     11  C   UNL     1      31.693  22.886  27.794  0.00  0.00    +0.000 A 
ATOM     12  C   UNL     1      30.772  22.628  28.786  0.00  0.00    +0.000 A 
ATOM     13  C   UNL     1      29.448  22.605  28.443  0.00  0.00    +0.000 A 
ATOM     14  C   UNL     1      29.058  22.843  27.104  0.00  0.00    +0.000 A 
ENDROOT
BRANCH   1  17
ATOM     15  C   UNL     1      26.383  24.377  28.551  0.00  0.00    +0.000 C 
ATOM     16  O   UNL     1      25.901  23.344  29.076  0.00  0.00    +0.000 OA
ATOM     17  N   UNL     1      27.246  24.271  27.411  0.00  0.00    +0.000 NA
BRANCH  15  19
ATOM     18  C   UNL     1      24.971  25.798  29.963  0.00  0.00    +0.000 C 
ATOM     19  O   UNL     1      26.069  25.589  29.085  0.00  0.00    +0.000 OA
ENDBRANCH  15  19
ENDBRANCH   1  17
BRANCH  12  20
ATOM     20  O   UNL     1      31.201  22.395  30.112  0.00  0.00    +0.000 OA
ATOM     21  C   UNL     1      30.223  22.352  31.134  0.00  0.00    +0.000 C 
ENDBRANCH  12  20
TORSDOF 3
ENDMDL
MODEL 8
REMARK VINA RESULT:      -5.7      2.089      4.838
REMARK  Name = 
REMARK  3 active torsions:
REMARK  status: ('A' for Active; 'I' for Inactive)
REMARK    1  A    between atoms: O_2  and  C_3
REMARK    2  A    between atoms: N_5  and  C_6
REMARK    3  A    between atoms: C_17  and  O_18
REMARK                            x       y       z     vdW  Elec       q    Type
REMARK                         _______ _______ _______ _____ _____    ______ ____
ROOT
ATOM      1  C   UNL     1      18.491  10.277  39.039  0.00  0.00    +0.000 C 
ATOM      2  C   UNL     1      17.769   9.386  40.123  0.00  0.00    +0.000 A 
ATOM      3  C   UNL     1      16.385   9.692  40.204  0.00  0.00    +0.000 A 
ATOM      4  C   UNL     1      15.645   8.978  41.117  0.00  0.00    +0.000 A 
ATOM      5  C   UNL     1      16.253   8.019  41.899  0.00  0.00    +0.000 A 
ATOM      6  C   UNL     1      17.625   7.741  41.794  0.00  0.00    +0.000 A 
ATOM      7  C   UNL     1      18.342   8.470  40.871  0.00  0.00    +0.000 A 
ATOM      8  O   UNL     1      19.667   8.265  40.707  0.00  0.00    +0.000 OA
ATOM      9  C   UNL     1      20.519   8.889  39.852  0.00  0.00    +0.000 A 
ATOM     10  C   UNL     1      21.876   8.603  39.760  0.00  0.00    +0.000 A 
ATOM     11  C   UNL     1      22.665   9.294  38.855  0.00  0.00    +0.000 A 
ATOM     12  C   UNL     1      22.126  10.267  38.041  0.00  0.00    +0.000 A 
ATOM     13  C   UNL     1      20.788  10.529  38.153  0.00  0.00    +0.000 A 
ATOM     14  C   UNL     1      20.000   9.810  39.084  0.00  0.00    +0.000 A 
ENDROOT
BRANCH   1  17
ATOM     15  C   UNL     1      17.563  10.067  36.696  0.00  0.00    +0.000 C 
ATOM     16  O   UNL     1      17.425  11.313  36.760  0.00  0.00    +0.000 OA
ATOM     17  N   UNL     1      18.111   9.344  37.807  0.00  0.00    +0.000 NA
BRANCH  15  19
ATOM     18  C   UNL     1      17.243  10.017  34.267  0.00  0.00    +0.000 C 
ATOM     19  O   UNL     1      17.183   9.425  35.557  0.00  0.00    +0.000 OA
ENDBRANCH  15  19
ENDBRANCH   1  17
BRANCH  12  20
ATOM     20  O   UNL     1      22.945  10.963  37.124  0.00  0.00    +0.000 OA
ATOM     21  C   UNL     1      23.315  10.310  35.926  0.00  0.00    +0.000 C 
ENDBRANCH  12  20
TORSDOF 3
ENDMDL
MODEL 9
REMARK VINA RESULT:      -5.7      3.086      6.356
REMARK  Name = 
REMARK  3 active torsions:
REMARK  status: ('A' for Active; 'I' for Inactive)
REMARK    1  A    between atoms: O_2  and  C_3
REMARK    2  A    between atoms: N_5  and  C_6
REMARK    3  A    between atoms: C_17  and  O_18
REMARK                            x       y       z     vdW  Elec       q    Type
REMARK                         _______ _______ _______ _____ _____    ______ ____
ROOT
ATOM      1  C   UNL     1      21.273  11.089  38.732  0.00  0.00    +0.000 C 
ATOM      2  C   UNL     1      20.003  10.543  37.971  0.00  0.00    +0.000 A 
ATOM      3  C   UNL     1      18.810  10.831  38.687  0.00  0.00    +0.000 A 
ATOM      4  C   UNL     1      17.632  10.404  38.123  0.00  0.00    +0.000 A 
ATOM      5  C   UNL     1      17.646   9.733  36.919  0.00  0.00    +0.000 A 
ATOM      6  C   UNL     1      18.843   9.464  36.237  0.00  0.00    +0.000 A 
ATOM      7  C   UNL     1      20.009   9.903  36.824  0.00  0.00    +0.000 A 
ATOM      8  O   UNL     1      21.205   9.686  36.233  0.00  0.00    +0.000 OA
ATOM      9  C   UNL     1      22.440  10.046  36.669  0.00  0.00    +0.000 A 
ATOM     10  C   UNL     1      23.617   9.773  35.982  0.00  0.00    +0.000 A 
ATOM     11  C   UNL     1      24.831  10.182  36.509  0.00  0.00    +0.000 A 
ATOM     12  C   UNL     1      24.894  10.858  37.708  0.00  0.00    +0.000 A 
ATOM     13  C   UNL     1      23.720  11.113  38.363  0.00  0.00    +0.000 A 
ATOM     14  C   UNL     1      22.491  10.686  37.807  0.00  0.00    +0.000 A 
ENDROOT
BRANCH   1  17
ATOM     15  C   UNL     1      21.104  13.572  39.176  0.00  0.00    +0.000 C 
ATOM     16  O   UNL     1      21.137  13.244  40.387  0.00  0.00    +0.000 OA
ATOM     17  N   UNL     1      21.165  12.568  38.154  0.00  0.00    +0.000 NA
BRANCH  15  19
ATOM     18  C   UNL     1      20.287  15.836  39.639  0.00  0.00    +0.000 C 
ATOM     19  O   UNL     1      21.009  14.893  38.859  0.00  0.00    +0.000 OA
ENDBRANCH  15  19
ENDBRANCH   1  17
BRANCH  12  20
ATOM     20  O   UNL     1      26.141  11.267  38.231  0.00  0.00    +0.000 OA
ATOM     21  C   UNL     1      27.142  10.286  38.421  0.00  0.00    +0.000 C 
ENDBRANCH  12  20
TORSDOF 3
ENDMDL
MODEL 10
REMARK VINA RESULT:      -5.7     21.024     23.021
REMARK  Name = 
REMARK  3 active torsions:
REMARK  status: ('A' for Active; 'I' for Inactive)
REMARK    1  A    between atoms: O_2  and  C_3
REMARK    2  A    between atoms: N_5  and  C_6
REMARK    3  A    between atoms: C_17  and  O_18
REMARK                            x       y       z     vdW  Elec       q    Type
REMARK                         _______ _______ _______ _____ _____    ______ ____
ROOT
ATOM      1  C   UNL     1      11.140  23.585  20.902  0.00  0.00    +0.000 C 
ATOM      2  C   UNL     1      10.775  22.105  20.497  0.00  0.00    +0.000 A 
ATOM      3  C   UNL     1       9.404  21.990  20.143  0.00  0.00    +0.000 A 
ATOM      4  C   UNL     1       8.964  20.742  19.770  0.00  0.00    +0.000 A 
ATOM      5  C   UNL     1       9.840  19.678  19.751  0.00  0.00    +0.000 A 
ATOM      6  C   UNL     1      11.190  19.826  20.107  0.00  0.00    +0.000 A 
ATOM      7  C   UNL     1      11.605  21.086  20.477  0.00  0.00    +0.000 A 
ATOM      8  O   UNL     1      12.888  21.315  20.834  0.00  0.00    +0.000 OA
ATOM      9  C   UNL     1      13.461  22.483  21.223  0.00  0.00    +0.000 A 
ATOM     10  C   UNL     1      14.800  22.614  21.573  0.00  0.00    +0.000 A 
ATOM     11  C   UNL     1      15.292  23.851  21.957  0.00  0.00    +0.000 A 
ATOM     12  C   UNL     1      14.475  24.960  21.999  0.00  0.00    +0.000 A 
ATOM     13  C   UNL     1      13.161  24.802  21.650  0.00  0.00    +0.000 A 
ATOM     14  C   UNL     1      12.679  23.530  21.261  0.00  0.00    +0.000 A 
ENDROOT
BRANCH   1  17
ATOM     15  C   UNL     1      10.599  25.244  19.072  0.00  0.00    +0.000 C 
ATOM     16  O   UNL     1       9.823  25.753  19.916  0.00  0.00    +0.000 OA
ATOM     17  N   UNL     1      11.380  24.090  19.411  0.00  0.00    +0.000 NA
BRANCH  15  19
ATOM     18  C   UNL     1       9.990  25.307  16.698  0.00  0.00    +0.000 C 
ATOM     19  O   UNL     1      10.681  25.808  17.835  0.00  0.00    +0.000 OA
ENDBRANCH  15  19
ENDBRANCH   1  17
BRANCH  12  20
ATOM     20  O   UNL     1      14.994  26.213  22.394  0.00  0.00    +0.000 OA
ATOM     21  C   UNL     1      16.016  26.793  21.607  0.00  0.00    +0.000 C 
ENDBRANCH  12  20
TORSDOF 3
ENDMDL
