MODEL 1
REMARK VINA RESULT:      -7.4      0.000      0.000
REMARK  Name = 
REMARK  2 active torsions:
REMARK  status: ('A' for Active; 'I' for Inactive)
REMARK    1  A    between atoms: C_9  and  N_10
REMARK    2  A    between atoms: N_10  and  C_11
REMARK                            x       y       z     vdW  Elec       q    Type
REMARK                         _______ _______ _______ _____ _____    ______ ____
ROOT
ATOM      1  C   UNL     1      14.370  13.071  34.837  0.00  0.00    +0.000 C 
ATOM      2  C   UNL     1      14.372  12.336  36.116  0.00  0.00    +0.000 A 
ATOM      3  C   UNL     1      13.229  12.197  36.842  0.00  0.00    +0.000 A 
ATOM      4  C   UNL     1      13.219  11.504  38.052  0.00  0.00    +0.000 A 
ATOM      5  C   UNL     1      14.414  10.965  38.485  0.00  0.00    +0.000 A 
ATOM      6  N   UNL     1      14.419  10.293  39.655  0.00  0.00    +0.000 NA
ATOM      7  C   UNL     1      15.540   9.740  40.141  0.00  0.00    +0.000 A 
ATOM      8  C   UNL     1      16.716   9.861  39.433  0.00  0.00    +0.000 A 
ATOM      9  C   UNL     1      16.803  10.531  38.231  0.00  0.00    +0.000 A 
ATOM     10  C   UNL     1      15.586  11.084  37.784  0.00  0.00    +0.000 A 
ATOM     11  C   UNL     1      15.553  11.774  36.594  0.00  0.00    +0.000 A 
ATOM     12  C   UNL     1      17.752   9.162  40.225  0.00  0.00    +0.000 C 
ATOM     13  C   UNL     1      16.953   8.108  40.957  0.00  0.00    +0.000 C 
ATOM     14  C   UNL     1      15.753   8.960  41.397  0.00  0.00    +0.000 C 
ENDROOT
BRANCH   9  15
ATOM     15  N   UNL     1      17.915  10.712  37.446  0.00  0.00    +0.000 NA
BRANCH  15  16
ATOM     16  C   UNL     1      19.230  11.048  37.654  0.00  0.00    +0.000 A 
ATOM     17  C   UNL     1      19.742  12.208  38.184  0.00  0.00    +0.000 A 
ATOM     18  C   UNL     1      21.079  12.465  38.358  0.00  0.00    +0.000 A 
ATOM     19  C   UNL     1      22.002  11.513  37.986  0.00  0.00    +0.000 A 
ATOM     20  C   UNL     1      21.554  10.329  37.449  0.00  0.00    +0.000 A 
ATOM     21  O   UNL     1      22.512   9.368  37.075  0.00  0.00    +0.000 OA
ATOM     22  C   UNL     1      20.210  10.102  37.288  0.00  0.00    +0.000 A 
ENDBRANCH  15  16
ENDBRANCH   9  15
TORSDOF 2
ENDMDL
MODEL 2
REMARK VINA RESULT:      -7.3     18.476     21.351
REMARK  Name = 
REMARK  2 active torsions:
REMARK  status: ('A' for Active; 'I' for Inactive)
REMARK    1  A    between atoms: C_9  and  N_10
REMARK    2  A    between atoms: N_10  and  C_11
REMARK                            x       y       z     vdW  Elec       q    Type
REMARK                         _______ _______ _______ _____ _____    ______ ____
ROOT
ATOM      1  C   UNL     1      31.463  22.415  28.199  0.00  0.00    +0.000 C 
ATOM      2  C   UNL     1      30.834  22.680  26.891  0.00  0.00    +0.000 A 
ATOM      3  C   UNL     1      31.592  22.819  25.768  0.00  0.00    +0.000 A 
ATOM      4  C   UNL     1      31.010  23.068  24.527  0.00  0.00    +0.000 A 
ATOM      5  C   UNL     1      29.634  23.170  24.480  0.00  0.00    +0.000 A 
ATOM      6  N   UNL     1      29.057  23.412  23.285  0.00  0.00    +0.000 NA
ATOM      7  C   UNL     1      27.726  23.523  23.159  0.00  0.00    +0.000 A 
ATOM      8  C   UNL     1      26.927  23.389  24.274  0.00  0.00    +0.000 A 
ATOM      9  C   UNL     1      27.431  23.142  25.533  0.00  0.00    +0.000 A 
ATOM     10  C   UNL     1      28.836  23.037  25.587  0.00  0.00    +0.000 A 
ATOM     11  C   UNL     1      29.450  22.790  26.793  0.00  0.00    +0.000 A 
ATOM     12  C   UNL     1      25.534  23.568  23.810  0.00  0.00    +0.000 C 
ATOM     13  C   UNL     1      25.598  23.093  22.377  0.00  0.00    +0.000 C 
ATOM     14  C   UNL     1      26.901  23.780  21.940  0.00  0.00    +0.000 C 
ENDROOT
BRANCH   9  15
ATOM     15  N   UNL     1      26.732  22.990  26.705  0.00  0.00    +0.000 NA
BRANCH  15  16
ATOM     16  C   UNL     1      26.145  23.827  27.622  0.00  0.00    +0.000 A 
ATOM     17  C   UNL     1      25.322  24.904  27.394  0.00  0.00    +0.000 A 
ATOM     18  C   UNL     1      24.775  25.692  28.375  0.00  0.00    +0.000 A 
ATOM     19  C   UNL     1      25.050  25.414  29.695  0.00  0.00    +0.000 A 
ATOM     20  C   UNL     1      25.868  24.349  29.991  0.00  0.00    +0.000 A 
ATOM     21  O   UNL     1      26.138  24.078  31.346  0.00  0.00    +0.000 OA
ATOM     22  C   UNL     1      26.400  23.579  28.987  0.00  0.00    +0.000 A 
ENDBRANCH  15  16
ENDBRANCH   9  15
TORSDOF 2
ENDMDL
MODEL 3
REMARK VINA RESULT:      -7.3      2.779      5.888
REMARK  Name = 
REMARK  2 active torsions:
REMARK  status: ('A' for Active; 'I' for Inactive)
REMARK    1  A    between atoms: C_9  and  N_10
REMARK    2  A    between atoms: N_10  and  C_11
REMARK                            x       y       z     vdW  Elec       q    Type
REMARK                         _______ _______ _______ _____ _____    ______ ____
ROOT
ATOM      1  C   UNL     1      15.665   8.926  41.368  0.00  0.00    +0.000 C 
ATOM      2  C   UNL     1      17.062   9.251  41.024  0.00  0.00    +0.000 A 
ATOM      3  C   UNL     1      17.966   9.558  41.994  0.00  0.00    +0.000 A 
ATOM      4  C   UNL     1      19.289   9.866  41.681  0.00  0.00    +0.000 A 
ATOM      5  C   UNL     1      19.647   9.846  40.348  0.00  0.00    +0.000 A 
ATOM      6  N   UNL     1      20.925  10.143  40.031  0.00  0.00    +0.000 NA
ATOM      7  C   UNL     1      21.348  10.144  38.758  0.00  0.00    +0.000 A 
ATOM      8  C   UNL     1      20.461   9.838  37.749  0.00  0.00    +0.000 A 
ATOM      9  C   UNL     1      19.139   9.524  37.982  0.00  0.00    +0.000 A 
ATOM     10  C   UNL     1      18.767   9.543  39.342  0.00  0.00    +0.000 A 
ATOM     11  C   UNL     1      17.471   9.244  39.693  0.00  0.00    +0.000 A 
ATOM     12  C   UNL     1      21.222   9.932  36.484  0.00  0.00    +0.000 C 
ATOM     13  C   UNL     1      22.630   9.596  36.919  0.00  0.00    +0.000 C 
ATOM     14  C   UNL     1      22.705  10.435  38.204  0.00  0.00    +0.000 C 
ENDROOT
BRANCH   9  15
ATOM     15  N   UNL     1      18.173   9.205  37.058  0.00  0.00    +0.000 NA
BRANCH  15  16
ATOM     16  C   UNL     1      17.589   9.827  35.983  0.00  0.00    +0.000 A 
ATOM     17  C   UNL     1      17.846   9.645  34.645  0.00  0.00    +0.000 A 
ATOM     18  C   UNL     1      17.212  10.313  33.628  0.00  0.00    +0.000 A 
ATOM     19  C   UNL     1      16.241  11.240  33.934  0.00  0.00    +0.000 A 
ATOM     20  C   UNL     1      15.936  11.469  35.255  0.00  0.00    +0.000 A 
ATOM     21  O   UNL     1      14.940  12.421  35.548  0.00  0.00    +0.000 OA
ATOM     22  C   UNL     1      16.588  10.785  36.249  0.00  0.00    +0.000 A 
ENDBRANCH  15  16
ENDBRANCH   9  15
TORSDOF 2
ENDMDL
MODEL 4
REMARK VINA RESULT:      -6.9     19.643     22.705
REMARK  Name = 
REMARK  2 active torsions:
REMARK  status: ('A' for Active; 'I' for Inactive)
REMARK    1  A    between atoms: C_9  and  N_10
REMARK    2  A    between atoms: N_10  and  C_11
REMARK                            x       y       z     vdW  Elec       q    Type
REMARK                         _______ _______ _______ _____ _____    ______ ____
ROOT
ATOM      1  C   UNL     1      34.292  24.809  24.561  0.00  0.00    +0.000 C 
ATOM      2  C   UNL     1      33.403  24.517  25.702  0.00  0.00    +0.000 A 
ATOM      3  C   UNL     1      33.767  24.845  26.972  0.00  0.00    +0.000 A 
ATOM      4  C   UNL     1      32.935  24.574  28.057  0.00  0.00    +0.000 A 
ATOM      5  C   UNL     1      31.727  23.960  27.793  0.00  0.00    +0.000 A 
ATOM      6  N   UNL     1      30.912  23.692  28.835  0.00  0.00    +0.000 NA
ATOM      7  C   UNL     1      29.723  23.098  28.659  0.00  0.00    +0.000 A 
ATOM      8  C   UNL     1      29.321  22.750  27.386  0.00  0.00    +0.000 A 
ATOM      9  C   UNL     1      30.089  22.987  26.266  0.00  0.00    +0.000 A 
ATOM     10  C   UNL     1      31.324  23.614  26.530  0.00  0.00    +0.000 A 
ATOM     11  C   UNL     1      32.174  23.899  25.486  0.00  0.00    +0.000 A 
ATOM     12  C   UNL     1      27.991  22.119  27.528  0.00  0.00    +0.000 C 
ATOM     13  C   UNL     1      27.439  22.786  28.768  0.00  0.00    +0.000 C 
ATOM     14  C   UNL     1      28.684  22.724  29.665  0.00  0.00    +0.000 C 
ENDROOT
BRANCH   9  15
ATOM     15  N   UNL     1      29.790  22.685  24.960  0.00  0.00    +0.000 NA
BRANCH  15  16
ATOM     16  C   UNL     1      28.992  23.220  23.980  0.00  0.00    +0.000 A 
ATOM     17  C   UNL     1      27.621  23.322  23.952  0.00  0.00    +0.000 A 
ATOM     18  C   UNL     1      26.898  23.874  22.925  0.00  0.00    +0.000 A 
ATOM     19  C   UNL     1      27.561  24.372  21.826  0.00  0.00    +0.000 A 
ATOM     20  C   UNL     1      28.934  24.301  21.791  0.00  0.00    +0.000 A 
ATOM     21  O   UNL     1      29.595  24.817  20.660  0.00  0.00    +0.000 OA
ATOM     22  C   UNL     1      29.629  23.743  22.835  0.00  0.00    +0.000 A 
ENDBRANCH  15  16
ENDBRANCH   9  15
TORSDOF 2
ENDMDL
MODEL 5
REMARK VINA RESULT:      -6.8     17.906     20.106
REMARK  Name = 
REMARK  2 active torsions:
REMARK  status: ('A' for Active; 'I' for Inactive)
REMARK    1  A    between atoms: C_9  and  N_10
REMARK    2  A    between atoms: N_10  and  C_11
REMARK                            x       y       z     vdW  Elec       q    Type
REMARK                         _______ _______ _______ _____ _____    ______ ____
ROOT
ATOM      1  C   UNL     1      23.015  27.156  24.992  0.00  0.00    +0.000 C 
ATOM      2  C   UNL     1      23.603  26.641  26.244  0.00  0.00    +0.000 A 
ATOM      3  C   UNL     1      23.341  27.242  27.437  0.00  0.00    +0.000 A 
ATOM      4  C   UNL     1      23.891  26.764  28.626  0.00  0.00    +0.000 A 
ATOM      5  C   UNL     1      24.712  25.656  28.545  0.00  0.00    +0.000 A 
ATOM      6  N   UNL     1      25.251  25.184  29.688  0.00  0.00    +0.000 NA
ATOM      7  C   UNL     1      26.057  24.112  29.691  0.00  0.00    +0.000 A 
ATOM      8  C   UNL     1      26.345  23.478  28.502  0.00  0.00    +0.000 A 
ATOM      9  C   UNL     1      25.839  23.893  27.288  0.00  0.00    +0.000 A 
ATOM     10  C   UNL     1      25.000  25.024  27.364  0.00  0.00    +0.000 A 
ATOM     11  C   UNL     1      24.437  25.526  26.214  0.00  0.00    +0.000 A 
ATOM     12  C   UNL     1      27.250  22.357  28.837  0.00  0.00    +0.000 C 
ATOM     13  C   UNL     1      26.846  22.017  30.253  0.00  0.00    +0.000 C 
ATOM     14  C   UNL     1      26.742  23.436  30.834  0.00  0.00    +0.000 C 
ENDROOT
BRANCH   9  15
ATOM     15  N   UNL     1      26.057  23.340  26.050  0.00  0.00    +0.000 NA
BRANCH  15  16
ATOM     16  C   UNL     1      27.077  23.342  25.132  0.00  0.00    +0.000 A 
ATOM     17  C   UNL     1      28.363  22.877  25.279  0.00  0.00    +0.000 A 
ATOM     18  C   UNL     1      29.327  22.920  24.303  0.00  0.00    +0.000 A 
ATOM     19  C   UNL     1      29.019  23.460  23.075  0.00  0.00    +0.000 A 
ATOM     20  C   UNL     1      27.749  23.942  22.863  0.00  0.00    +0.000 A 
ATOM     21  O   UNL     1      27.451  24.490  21.600  0.00  0.00    +0.000 OA
ATOM     22  C   UNL     1      26.807  23.886  23.859  0.00  0.00    +0.000 A 
ENDBRANCH  15  16
ENDBRANCH   9  15
TORSDOF 2
ENDMDL
MODEL 6
REMARK VINA RESULT:      -6.8      1.240      1.565
REMARK  Name = 
REMARK  2 active torsions:
REMARK  status: ('A' for Active; 'I' for Inactive)
REMARK    1  A    between atoms: C_9  and  N_10
REMARK    2  A    between atoms: N_10  and  C_11
REMARK                            x       y       z     vdW  Elec       q    Type
REMARK                         _______ _______ _______ _____ _____    ______ ____
ROOT
ATOM      1  C   UNL     1      15.428  12.095  34.972  0.00  0.00    +0.000 C 
ATOM      2  C   UNL     1      15.569  11.522  36.325  0.00  0.00    +0.000 A 
ATOM      3  C   UNL     1      14.509  11.480  37.178  0.00  0.00    +0.000 A 
ATOM      4  C   UNL     1      14.629  10.941  38.458  0.00  0.00    +0.000 A 
ATOM      5  C   UNL     1      15.867  10.451  38.826  0.00  0.00    +0.000 A 
ATOM      6  N   UNL     1      15.998   9.927  40.063  0.00  0.00    +0.000 NA
ATOM      7  C   UNL     1      17.167   9.431  40.493  0.00  0.00    +0.000 A 
ATOM      8  C   UNL     1      18.263   9.457  39.656  0.00  0.00    +0.000 A 
ATOM      9  C   UNL     1      18.219   9.974  38.379  0.00  0.00    +0.000 A 
ATOM     10  C   UNL     1      16.958  10.476  37.997  0.00  0.00    +0.000 A 
ATOM     11  C   UNL     1      16.797  11.015  36.741  0.00  0.00    +0.000 A 
ATOM     12  C   UNL     1      19.379   8.853  40.415  0.00  0.00    +0.000 C 
ATOM     13  C   UNL     1      18.668   7.902  41.350  0.00  0.00    +0.000 C 
ATOM     14  C   UNL     1      17.515   8.810  41.806  0.00  0.00    +0.000 C 
ENDROOT
BRANCH   9  15
ATOM     15  N   UNL     1      19.242  10.050  37.465  0.00  0.00    +0.000 NA
BRANCH  15  16
ATOM     16  C   UNL     1      20.545  10.480  37.473  0.00  0.00    +0.000 A 
ATOM     17  C   UNL     1      21.090  11.546  38.149  0.00  0.00    +0.000 A 
ATOM     18  C   UNL     1      22.413  11.909  38.100  0.00  0.00    +0.000 A 
ATOM     19  C   UNL     1      23.285  11.176  37.329  0.00  0.00    +0.000 A 
ATOM     20  C   UNL     1      22.803  10.096  36.627  0.00  0.00    +0.000 A 
ATOM     21  O   UNL     1      23.710   9.356  35.844  0.00  0.00    +0.000 OA
ATOM     22  C   UNL     1      21.474   9.757  36.697  0.00  0.00    +0.000 A 
ENDBRANCH  15  16
ENDBRANCH   9  15
TORSDOF 2
ENDMDL
MODEL 7
REMARK VINA RESULT:      -6.7     18.405     21.225
REMARK  Name = 
REMARK  2 active torsions:
REMARK  status: ('A' for Active; 'I' for Inactive)
REMARK    1  A    between atoms: C_9  and  N_10
REMARK    2  A    between atoms: N_10  and  C_11
REMARK                            x       y       z     vdW  Elec       q    Type
REMARK                         _______ _______ _______ _____ _____    ______ ____
ROOT
ATOM      1  C   UNL     1      29.122  22.481  31.158  0.00  0.00    +0.000 C 
ATOM      2  C   UNL     1      28.270  22.785  29.992  0.00  0.00    +0.000 A 
ATOM      3  C   UNL     1      26.963  23.130  30.154  0.00  0.00    +0.000 A 
ATOM      4  C   UNL     1      26.149  23.419  29.060  0.00  0.00    +0.000 A 
ATOM      5  C   UNL     1      26.720  23.344  27.805  0.00  0.00    +0.000 A 
ATOM      6  N   UNL     1      25.944  23.621  26.737  0.00  0.00    +0.000 NA
ATOM      7  C   UNL     1      26.427  23.569  25.488  0.00  0.00    +0.000 A 
ATOM      8  C   UNL     1      27.746  23.224  25.285  0.00  0.00    +0.000 A 
ATOM      9  C   UNL     1      28.610  22.924  26.317  0.00  0.00    +0.000 A 
ATOM     10  C   UNL     1      28.032  23.000  27.600  0.00  0.00    +0.000 A 
ATOM     11  C   UNL     1      28.802  22.723  28.707  0.00  0.00    +0.000 A 
ATOM     12  C   UNL     1      27.963  23.251  23.822  0.00  0.00    +0.000 C 
ATOM     13  C   UNL     1      26.959  24.281  23.358  0.00  0.00    +0.000 C 
ATOM     14  C   UNL     1      25.743  23.842  24.187  0.00  0.00    +0.000 C 
ENDROOT
BRANCH   9  15
ATOM     15  N   UNL     1      29.934  22.571  26.231  0.00  0.00    +0.000 NA
BRANCH  15  16
ATOM     16  C   UNL     1      31.113  23.213  25.946  0.00  0.00    +0.000 A 
ATOM     17  C   UNL     1      31.727  23.374  24.726  0.00  0.00    +0.000 A 
ATOM     18  C   UNL     1      32.914  24.035  24.529  0.00  0.00    +0.000 A 
ATOM     19  C   UNL     1      33.565  24.588  25.609  0.00  0.00    +0.000 A 
ATOM     20  C   UNL     1      33.003  24.462  26.857  0.00  0.00    +0.000 A 
ATOM     21  O   UNL     1      33.682  25.035  27.950  0.00  0.00    +0.000 OA
ATOM     22  C   UNL     1      31.814  23.796  27.022  0.00  0.00    +0.000 A 
ENDBRANCH  15  16
ENDBRANCH   9  15
TORSDOF 2
ENDMDL
MODEL 8
REMARK VINA RESULT:      -6.6     21.451     24.155
REMARK  Name = 
REMARK  2 active torsions:
REMARK  status: ('A' for Active; 'I' for Inactive)
REMARK    1  A    between atoms: C_9  and  N_10
REMARK    2  A    between atoms: N_10  and  C_11
REMARK                            x       y       z     vdW  Elec       q    Type
REMARK                         _______ _______ _______ _____ _____    ______ ____
ROOT
ATOM      1  C   UNL     1      33.684  24.392  24.922  0.00  0.00    +0.000 C 
ATOM      2  C   UNL     1      32.290  24.016  25.227  0.00  0.00    +0.000 A 
ATOM      3  C   UNL     1      31.950  23.535  26.455  0.00  0.00    +0.000 A 
ATOM      4  C   UNL     1      30.636  23.177  26.754  0.00  0.00    +0.000 A 
ATOM      5  C   UNL     1      29.694  23.329  25.757  0.00  0.00    +0.000 A 
ATOM      6  N   UNL     1      28.419  22.985  26.033  0.00  0.00    +0.000 NA
ATOM      7  C   UNL     1      27.447  23.104  25.117  0.00  0.00    +0.000 A 
ATOM      8  C   UNL     1      27.754  23.587  23.863  0.00  0.00    +0.000 A 
ATOM      9  C   UNL     1      29.029  23.961  23.495  0.00  0.00    +0.000 A 
ATOM     10  C   UNL     1      29.996  23.808  24.509  0.00  0.00    +0.000 A 
ATOM     11  C   UNL     1      31.304  24.151  24.254  0.00  0.00    +0.000 A 
ATOM     12  C   UNL     1      26.489  23.590  23.097  0.00  0.00    +0.000 C 
ATOM     13  C   UNL     1      25.448  23.776  24.178  0.00  0.00    +0.000 C 
ATOM     14  C   UNL     1      25.990  22.789  25.223  0.00  0.00    +0.000 C 
ENDROOT
BRANCH   9  15
ATOM     15  N   UNL     1      29.446  24.452  22.281  0.00  0.00    +0.000 NA
BRANCH  15  16
ATOM     16  C   UNL     1      29.432  25.670  21.650  0.00  0.00    +0.000 A 
ATOM     17  C   UNL     1      29.098  26.899  22.168  0.00  0.00    +0.000 A 
ATOM     18  C   UNL     1      29.110  28.076  21.461  0.00  0.00    +0.000 A 
ATOM     19  C   UNL     1      29.479  28.061  20.135  0.00  0.00    +0.000 A 
ATOM     20  C   UNL     1      29.825  26.863  19.556  0.00  0.00    +0.000 A 
ATOM     21  O   UNL     1      30.200  26.868  18.199  0.00  0.00    +0.000 OA
ATOM     22  C   UNL     1      29.803  25.703  20.289  0.00  0.00    +0.000 A 
ENDBRANCH  15  16
ENDBRANCH   9  15
TORSDOF 2
ENDMDL
MODEL 9
REMARK VINA RESULT:      -6.6     19.452     21.607
REMARK  Name = 
REMARK  2 active torsions:
REMARK  status: ('A' for Active; 'I' for Inactive)
REMARK    1  A    between atoms: C_9  and  N_10
REMARK    2  A    between atoms: N_10  and  C_11
REMARK                            x       y       z     vdW  Elec       q    Type
REMARK                         _______ _______ _______ _____ _____    ______ ____
ROOT
ATOM      1  C   UNL     1      22.281  27.620  24.987  0.00  0.00    +0.000 C 
ATOM      2  C   UNL     1      23.154  26.797  25.846  0.00  0.00    +0.000 A 
ATOM      3  C   UNL     1      22.938  26.718  27.188  0.00  0.00    +0.000 A 
ATOM      4  C   UNL     1      23.756  25.943  28.009  0.00  0.00    +0.000 A 
ATOM      5  C   UNL     1      24.794  25.259  27.408  0.00  0.00    +0.000 A 
ATOM      6  N   UNL     1      25.593  24.506  28.191  0.00  0.00    +0.000 NA
ATOM      7  C   UNL     1      26.621  23.812  27.681  0.00  0.00    +0.000 A 
ATOM      8  C   UNL     1      26.871  23.868  26.326  0.00  0.00    +0.000 A 
ATOM      9  C   UNL     1      26.106  24.612  25.453  0.00  0.00    +0.000 A 
ATOM     10  C   UNL     1      25.044  25.313  26.062  0.00  0.00    +0.000 A 
ATOM     11  C   UNL     1      24.214  26.089  25.286  0.00  0.00    +0.000 A 
ATOM     12  C   UNL     1      28.054  23.015  26.085  0.00  0.00    +0.000 C 
ATOM     13  C   UNL     1      27.957  21.993  27.196  0.00  0.00    +0.000 C 
ATOM     14  C   UNL     1      27.609  22.925  28.367  0.00  0.00    +0.000 C 
ENDROOT
BRANCH   9  15
ATOM     15  N   UNL     1      26.262  24.740  24.095  0.00  0.00    +0.000 NA
BRANCH  15  16
ATOM     16  C   UNL     1      27.125  25.401  23.256  0.00  0.00    +0.000 A 
ATOM     17  C   UNL     1      27.293  26.756  23.096  0.00  0.00    +0.000 A 
ATOM     18  C   UNL     1      28.184  27.337  22.229  0.00  0.00    +0.000 A 
ATOM     19  C   UNL     1      28.983  26.535  21.447  0.00  0.00    +0.000 A 
ATOM     20  C   UNL     1      28.865  25.169  21.559  0.00  0.00    +0.000 A 
ATOM     21  O   UNL     1      29.691  24.365  20.752  0.00  0.00    +0.000 OA
ATOM     22  C   UNL     1      27.964  24.619  22.436  0.00  0.00    +0.000 A 
ENDBRANCH  15  16
ENDBRANCH   9  15
TORSDOF 2
ENDMDL
MODEL 10
REMARK VINA RESULT:      -6.4     21.972     23.401
REMARK  Name = 
REMARK  2 active torsions:
REMARK  status: ('A' for Active; 'I' for Inactive)
REMARK    1  A    between atoms: C_9  and  N_10
REMARK    2  A    between atoms: N_10  and  C_11
REMARK                            x       y       z     vdW  Elec       q    Type
REMARK                         _______ _______ _______ _____ _____    ______ ____
ROOT
ATOM      1  C   UNL     1      20.810 -12.902  28.598  0.00  0.00    +0.000 C 
ATOM      2  C   UNL     1      20.052 -11.647  28.437  0.00  0.00    +0.000 A 
ATOM      3  C   UNL     1      18.877 -11.452  29.096  0.00  0.00    +0.000 A 
ATOM      4  C   UNL     1      18.152 -10.270  28.952  0.00  0.00    +0.000 A 
ATOM      5  C   UNL     1      18.672  -9.304  28.113  0.00  0.00    +0.000 A 
ATOM      6  N   UNL     1      17.980  -8.156  27.964  0.00  0.00    +0.000 NA
ATOM      7  C   UNL     1      18.422  -7.171  27.168  0.00  0.00    +0.000 A 
ATOM      8  C   UNL     1      19.608  -7.333  26.484  0.00  0.00    +0.000 A 
ATOM      9  C   UNL     1      20.378  -8.472  26.577  0.00  0.00    +0.000 A 
ATOM     10  C   UNL     1      19.851  -9.462  27.432  0.00  0.00    +0.000 A 
ATOM     11  C   UNL     1      20.537 -10.643  27.602  0.00  0.00    +0.000 A 
ATOM     12  C   UNL     1      19.809  -6.094  25.702  0.00  0.00    +0.000 C 
ATOM     13  C   UNL     1      19.095  -5.055  26.538  0.00  0.00    +0.000 C 
ATOM     14  C   UNL     1      17.816  -5.837  26.874  0.00  0.00    +0.000 C 
ENDROOT
BRANCH   9  15
ATOM     15  N   UNL     1      21.568  -8.739  25.946  0.00  0.00    +0.000 NA
BRANCH  15  16
ATOM     16  C   UNL     1      22.122  -8.461  24.721  0.00  0.00    +0.000 A 
ATOM     17  C   UNL     1      21.697  -8.866  23.478  0.00  0.00    +0.000 A 
ATOM     18  C   UNL     1      22.315  -8.541  22.296  0.00  0.00    +0.000 A 
ATOM     19  C   UNL     1      23.443  -7.754  22.320  0.00  0.00    +0.000 A 
ATOM     20  C   UNL     1      23.920  -7.314  23.532  0.00  0.00    +0.000 A 
ATOM     21  O   UNL     1      25.075  -6.509  23.537  0.00  0.00    +0.000 OA
ATOM     22  C   UNL     1      23.280  -7.656  24.697  0.00  0.00    +0.000 A 
ENDBRANCH  15  16
ENDBRANCH   9  15
TORSDOF 2
ENDMDL
