MODEL 1
REMARK VINA RESULT:      -7.3      0.000      0.000
REMARK  Name = 
REMARK  2 active torsions:
REMARK  status: ('A' for Active; 'I' for Inactive)
REMARK    1  A    between atoms: C_2  and  C_11
REMARK    2  A    between atoms: N_3  and  C_4
REMARK                            x       y       z     vdW  Elec       q    Type
REMARK                         _______ _______ _______ _____ _____    ______ ____
ROOT
ATOM      1  O   UNL     1      15.588  13.371  35.394  0.00  0.00    +0.000 OA
ATOM      2  C   UNL     1      15.075  12.226  35.454  0.00  0.00    +0.000 C 
ATOM      3  N   UNL     1      14.704  11.605  34.211  0.00  0.00    +0.000 NA
ENDROOT
BRANCH   2   4
ATOM      4  C   UNL     1      14.873  11.572  36.771  0.00  0.00    +0.000 A 
ATOM      5  C   UNL     1      13.524  11.461  37.149  0.00  0.00    +0.000 A 
ATOM      6  S   UNL     1      13.635  10.754  38.711  0.00  0.00    +0.000 S 
ATOM      7  C   UNL     1      15.316  10.628  38.831  0.00  0.00    +0.000 A 
ATOM      8  C   UNL     1      15.770  11.143  37.642  0.00  0.00    +0.000 A 
ATOM      9  C   UNL     1      17.297  11.086  37.532  0.00  0.00    +0.000 C 
ATOM     10  C   UNL     1      17.615   9.647  37.919  0.00  0.00    +0.000 C 
ATOM     11  C   UNL     1      17.465   9.538  39.417  0.00  0.00    +0.000 C 
ATOM     12  C   UNL     1      16.150  10.084  39.917  0.00  0.00    +0.000 C 
ENDBRANCH   2   4
BRANCH   3  13
ATOM     13  C   UNL     1      14.921  12.292  32.986  0.00  0.00    +0.000 A 
ATOM     14  C   UNL     1      14.091  13.338  32.624  0.00  0.00    +0.000 A 
ATOM     15  C   UNL     1      14.259  14.000  31.407  0.00  0.00    +0.000 A 
ATOM     16  C   UNL     1      15.247  13.615  30.558  0.00  0.00    +0.000 A 
ATOM     17  C   UNL     1      16.089  12.584  30.873  0.00  0.00    +0.000 A 
ATOM     18  C   UNL     1      15.898  11.938  32.109  0.00  0.00    +0.000 A 
ATOM     19  O   UNL     1      16.748  10.880  32.490  0.00  0.00    +0.000 OA
ENDBRANCH   3  13
TORSDOF 2
ENDMDL
MODEL 2
REMARK VINA RESULT:      -6.2      4.037      5.750
REMARK  Name = 
REMARK  2 active torsions:
REMARK  status: ('A' for Active; 'I' for Inactive)
REMARK    1  A    between atoms: C_2  and  C_11
REMARK    2  A    between atoms: N_3  and  C_4
REMARK                            x       y       z     vdW  Elec       q    Type
REMARK                         _______ _______ _______ _____ _____    ______ ____
ROOT
ATOM      1  O   UNL     1      18.973  11.816  37.951  0.00  0.00    +0.000 OA
ATOM      2  C   UNL     1      18.991  10.560  37.983  0.00  0.00    +0.000 C 
ATOM      3  N   UNL     1      17.865   9.871  37.413  0.00  0.00    +0.000 NA
ENDROOT
BRANCH   2   4
ATOM      4  C   UNL     1      20.142   9.850  38.592  0.00  0.00    +0.000 A 
ATOM      5  C   UNL     1      19.822   9.155  39.772  0.00  0.00    +0.000 A 
ATOM      6  S   UNL     1      21.346   8.527  40.257  0.00  0.00    +0.000 S 
ATOM      7  C   UNL     1      22.301   9.141  39.005  0.00  0.00    +0.000 A 
ATOM      8  C   UNL     1      21.411   9.831  38.220  0.00  0.00    +0.000 A 
ATOM      9  C   UNL     1      22.081  10.445  36.988  0.00  0.00    +0.000 C 
ATOM     10  C   UNL     1      22.872   9.278  36.410  0.00  0.00    +0.000 C 
ATOM     11  C   UNL     1      24.085   9.076  37.284  0.00  0.00    +0.000 C 
ATOM     12  C   UNL     1      23.744   8.985  38.752  0.00  0.00    +0.000 C 
ENDBRANCH   2   4
BRANCH   3  13
ATOM     13  C   UNL     1      16.792  10.616  36.849  0.00  0.00    +0.000 A 
ATOM     14  C   UNL     1      15.778  11.088  37.663  0.00  0.00    +0.000 A 
ATOM     15  C   UNL     1      14.694  11.785  37.127  0.00  0.00    +0.000 A 
ATOM     16  C   UNL     1      14.625  12.003  35.787  0.00  0.00    +0.000 A 
ATOM     17  C   UNL     1      15.604  11.552  34.946  0.00  0.00    +0.000 A 
ATOM     18  C   UNL     1      16.687  10.856  35.516  0.00  0.00    +0.000 A 
ATOM     19  O   UNL     1      17.730  10.383  34.695  0.00  0.00    +0.000 OA
ENDBRANCH   3  13
TORSDOF 2
ENDMDL
MODEL 3
REMARK VINA RESULT:      -6.1     18.850     20.965
REMARK  Name = 
REMARK  2 active torsions:
REMARK  status: ('A' for Active; 'I' for Inactive)
REMARK    1  A    between atoms: C_2  and  C_11
REMARK    2  A    between atoms: N_3  and  C_4
REMARK                            x       y       z     vdW  Elec       q    Type
REMARK                         _______ _______ _______ _____ _____    ______ ____
ROOT
ATOM      1  O   UNL     1      28.264  21.526  27.212  0.00  0.00    +0.000 OA
ATOM      2  C   UNL     1      28.551  22.606  26.638  0.00  0.00    +0.000 C 
ATOM      3  N   UNL     1      29.646  23.368  27.174  0.00  0.00    +0.000 NA
ENDROOT
BRANCH   2   4
ATOM      4  C   UNL     1      27.768  23.048  25.457  0.00  0.00    +0.000 A 
ATOM      5  C   UNL     1      26.387  23.156  25.698  0.00  0.00    +0.000 A 
ATOM      6  S   UNL     1      25.775  23.596  24.155  0.00  0.00    +0.000 S 
ATOM      7  C   UNL     1      27.226  23.628  23.288  0.00  0.00    +0.000 A 
ATOM      8  C   UNL     1      28.174  23.292  24.223  0.00  0.00    +0.000 A 
ATOM      9  C   UNL     1      29.590  23.299  23.639  0.00  0.00    +0.000 C 
ATOM     10  C   UNL     1      29.658  24.642  22.921  0.00  0.00    +0.000 C 
ATOM     11  C   UNL     1      28.860  24.515  21.647  0.00  0.00    +0.000 C 
ATOM     12  C   UNL     1      27.477  23.953  21.873  0.00  0.00    +0.000 C 
ENDBRANCH   2   4
BRANCH   3  13
ATOM     13  C   UNL     1      30.350  22.887  28.313  0.00  0.00    +0.000 A 
ATOM     14  C   UNL     1      31.471  22.093  28.146  0.00  0.00    +0.000 A 
ATOM     15  C   UNL     1      32.153  21.574  29.247  0.00  0.00    +0.000 A 
ATOM     16  C   UNL     1      31.715  21.846  30.505  0.00  0.00    +0.000 A 
ATOM     17  C   UNL     1      30.610  22.625  30.716  0.00  0.00    +0.000 A 
ATOM     18  C   UNL     1      29.945  23.137  29.586  0.00  0.00    +0.000 A 
ATOM     19  O   UNL     1      28.811  23.957  29.748  0.00  0.00    +0.000 OA
ENDBRANCH   3  13
TORSDOF 2
ENDMDL
MODEL 4
REMARK VINA RESULT:      -5.9     23.563     25.547
REMARK  Name = 
REMARK  2 active torsions:
REMARK  status: ('A' for Active; 'I' for Inactive)
REMARK    1  A    between atoms: C_2  and  C_11
REMARK    2  A    between atoms: N_3  and  C_4
REMARK                            x       y       z     vdW  Elec       q    Type
REMARK                         _______ _______ _______ _____ _____    ______ ____
ROOT
ATOM      1  O   UNL     1      33.015  -5.930  32.543  0.00  0.00    +0.000 OA
ATOM      2  C   UNL     1      34.144  -5.406  32.712  0.00  0.00    +0.000 C 
ATOM      3  N   UNL     1      35.079  -5.488  31.623  0.00  0.00    +0.000 NA
ENDROOT
BRANCH   2   4
ATOM      4  C   UNL     1      34.467  -4.740  33.999  0.00  0.00    +0.000 A 
ATOM      5  C   UNL     1      35.245  -5.527  34.867  0.00  0.00    +0.000 A 
ATOM      6  S   UNL     1      35.371  -4.528  36.259  0.00  0.00    +0.000 S 
ATOM      7  C   UNL     1      34.472  -3.202  35.721  0.00  0.00    +0.000 A 
ATOM      8  C   UNL     1      34.083  -3.560  34.454  0.00  0.00    +0.000 A 
ATOM      9  C   UNL     1      33.273  -2.459  33.764  0.00  0.00    +0.000 C 
ATOM     10  C   UNL     1      34.126  -1.215  33.985  0.00  0.00    +0.000 C 
ATOM     11  C   UNL     1      33.950  -0.795  35.423  0.00  0.00    +0.000 C 
ATOM     12  C   UNL     1      34.164  -1.929  36.397  0.00  0.00    +0.000 C 
ENDBRANCH   2   4
BRANCH   3  13
ATOM     13  C   UNL     1      34.704  -6.145  30.419  0.00  0.00    +0.000 A 
ATOM     14  C   UNL     1      33.999  -5.458  29.447  0.00  0.00    +0.000 A 
ATOM     15  C   UNL     1      33.584  -6.094  28.276  0.00  0.00    +0.000 A 
ATOM     16  C   UNL     1      33.871  -7.408  28.081  0.00  0.00    +0.000 A 
ATOM     17  C   UNL     1      34.564  -8.127  29.016  0.00  0.00    +0.000 A 
ATOM     18  C   UNL     1      34.973  -7.457  30.185  0.00  0.00    +0.000 A 
ATOM     19  O   UNL     1      35.704  -8.148  31.173  0.00  0.00    +0.000 OA
ENDBRANCH   3  13
TORSDOF 2
ENDMDL
MODEL 5
REMARK VINA RESULT:      -5.9     18.428     19.761
REMARK  Name = 
REMARK  2 active torsions:
REMARK  status: ('A' for Active; 'I' for Inactive)
REMARK    1  A    between atoms: C_2  and  C_11
REMARK    2  A    between atoms: N_3  and  C_4
REMARK                            x       y       z     vdW  Elec       q    Type
REMARK                         _______ _______ _______ _____ _____    ______ ____
ROOT
ATOM      1  O   UNL     1      28.715  24.725  26.645  0.00  0.00    +0.000 OA
ATOM      2  C   UNL     1      28.764  23.509  26.957  0.00  0.00    +0.000 C 
ATOM      3  N   UNL     1      28.465  22.552  25.926  0.00  0.00    +0.000 NA
ENDROOT
BRANCH   2   4
ATOM      4  C   UNL     1      29.119  23.112  28.342  0.00  0.00    +0.000 A 
ATOM      5  C   UNL     1      28.026  23.101  29.227  0.00  0.00    +0.000 A 
ATOM      6  S   UNL     1      28.765  22.691  30.723  0.00  0.00    +0.000 S 
ATOM      7  C   UNL     1      30.368  22.555  30.203  0.00  0.00    +0.000 A 
ATOM      8  C   UNL     1      30.302  22.832  28.860  0.00  0.00    +0.000 A 
ATOM      9  C   UNL     1      31.670  22.725  28.179  0.00  0.00    +0.000 C 
ATOM     10  C   UNL     1      32.188  21.375  28.662  0.00  0.00    +0.000 C 
ATOM     11  C   UNL     1      32.631  21.546  30.094  0.00  0.00    +0.000 C 
ATOM     12  C   UNL     1      31.582  22.203  30.959  0.00  0.00    +0.000 C 
ENDBRANCH   2   4
BRANCH   3  13
ATOM     13  C   UNL     1      28.128  23.003  24.620  0.00  0.00    +0.000 A 
ATOM     14  C   UNL     1      29.129  23.306  23.715  0.00  0.00    +0.000 A 
ATOM     15  C   UNL     1      28.824  23.790  22.442  0.00  0.00    +0.000 A 
ATOM     16  C   UNL     1      27.527  23.972  22.080  0.00  0.00    +0.000 A 
ATOM     17  C   UNL     1      26.505  23.687  22.944  0.00  0.00    +0.000 A 
ATOM     18  C   UNL     1      26.844  23.197  24.219  0.00  0.00    +0.000 A 
ATOM     19  O   UNL     1      25.829  22.873  25.142  0.00  0.00    +0.000 OA
ENDBRANCH   3  13
TORSDOF 2
ENDMDL
MODEL 6
REMARK VINA RESULT:      -5.9     22.115     23.313
REMARK  Name = 
REMARK  2 active torsions:
REMARK  status: ('A' for Active; 'I' for Inactive)
REMARK    1  A    between atoms: C_2  and  C_11
REMARK    2  A    between atoms: N_3  and  C_4
REMARK                            x       y       z     vdW  Elec       q    Type
REMARK                         _______ _______ _______ _____ _____    ______ ____
ROOT
ATOM      1  O   UNL     1      22.475  -8.416  25.660  0.00  0.00    +0.000 OA
ATOM      2  C   UNL     1      21.818  -7.526  25.065  0.00  0.00    +0.000 C 
ATOM      3  N   UNL     1      22.363  -7.014  23.837  0.00  0.00    +0.000 NA
ENDROOT
BRANCH   2   4
ATOM      4  C   UNL     1      20.535  -7.045  25.636  0.00  0.00    +0.000 A 
ATOM      5  C   UNL     1      20.400  -5.646  25.632  0.00  0.00    +0.000 A 
ATOM      6  S   UNL     1      18.886  -5.418  26.411  0.00  0.00    +0.000 S 
ATOM      7  C   UNL     1      18.489  -7.034  26.706  0.00  0.00    +0.000 A 
ATOM      8  C   UNL     1      19.550  -7.733  26.188  0.00  0.00    +0.000 A 
ATOM      9  C   UNL     1      19.367  -9.248  26.324  0.00  0.00    +0.000 C 
ATOM     10  C   UNL     1      17.960  -9.473  25.783  0.00  0.00    +0.000 C 
ATOM     11  C   UNL     1      16.989  -9.005  26.839  0.00  0.00    +0.000 C 
ATOM     12  C   UNL     1      17.293  -7.614  27.342  0.00  0.00    +0.000 C 
ENDBRANCH   2   4
BRANCH   3  13
ATOM     13  C   UNL     1      23.600  -7.517  23.350  0.00  0.00    +0.000 A 
ATOM     14  C   UNL     1      24.785  -6.896  23.702  0.00  0.00    +0.000 A 
ATOM     15  C   UNL     1      26.008  -7.345  23.203  0.00  0.00    +0.000 A 
ATOM     16  C   UNL     1      26.044  -8.407  22.355  0.00  0.00    +0.000 A 
ATOM     17  C   UNL     1      24.897  -9.051  21.979  0.00  0.00    +0.000 A 
ATOM     18  C   UNL     1      23.679  -8.577  22.502  0.00  0.00    +0.000 A 
ATOM     19  O   UNL     1      22.470  -9.214  22.157  0.00  0.00    +0.000 OA
ENDBRANCH   3  13
TORSDOF 2
ENDMDL
MODEL 7
REMARK VINA RESULT:      -5.7      6.947      8.913
REMARK  Name = 
REMARK  2 active torsions:
REMARK  status: ('A' for Active; 'I' for Inactive)
REMARK    1  A    between atoms: C_2  and  C_11
REMARK    2  A    between atoms: N_3  and  C_4
REMARK                            x       y       z     vdW  Elec       q    Type
REMARK                         _______ _______ _______ _____ _____    ______ ____
ROOT
ATOM      1  O   UNL     1      20.280   9.423  41.270  0.00  0.00    +0.000 OA
ATOM      2  C   UNL     1      20.487   8.894  40.149  0.00  0.00    +0.000 C 
ATOM      3  N   UNL     1      19.359   8.302  39.482  0.00  0.00    +0.000 NA
ENDROOT
BRANCH   2   4
ATOM      4  C   UNL     1      21.853   8.896  39.569  0.00  0.00    +0.000 A 
ATOM      5  C   UNL     1      22.774   8.108  40.282  0.00  0.00    +0.000 A 
ATOM      6  S   UNL     1      24.237   8.382  39.423  0.00  0.00    +0.000 S 
ATOM      7  C   UNL     1      23.660   9.442  38.240  0.00  0.00    +0.000 A 
ATOM      8  C   UNL     1      22.325   9.568  38.533  0.00  0.00    +0.000 A 
ATOM      9  C   UNL     1      21.597  10.475  37.538  0.00  0.00    +0.000 C 
ATOM     10  C   UNL     1      22.040   9.927  36.187  0.00  0.00    +0.000 C 
ATOM     11  C   UNL     1      23.459  10.385  35.955  0.00  0.00    +0.000 C 
ATOM     12  C   UNL     1      24.369  10.089  37.122  0.00  0.00    +0.000 C 
ENDBRANCH   2   4
BRANCH   3  13
ATOM     13  C   UNL     1      18.078   8.332  40.098  0.00  0.00    +0.000 A 
ATOM     14  C   UNL     1      17.327   9.493  40.074  0.00  0.00    +0.000 A 
ATOM     15  C   UNL     1      16.086   9.559  40.708  0.00  0.00    +0.000 A 
ATOM     16  C   UNL     1      15.602   8.472  41.364  0.00  0.00    +0.000 A 
ATOM     17  C   UNL     1      16.312   7.304  41.416  0.00  0.00    +0.000 A 
ATOM     18  C   UNL     1      17.559   7.266  40.763  0.00  0.00    +0.000 A 
ATOM     19  O   UNL     1      18.323   6.082  40.773  0.00  0.00    +0.000 OA
ENDBRANCH   3  13
TORSDOF 2
ENDMDL
MODEL 8
REMARK VINA RESULT:      -5.7     21.687     22.778
REMARK  Name = 
REMARK  2 active torsions:
REMARK  status: ('A' for Active; 'I' for Inactive)
REMARK    1  A    between atoms: C_2  and  C_11
REMARK    2  A    between atoms: N_3  and  C_4
REMARK                            x       y       z     vdW  Elec       q    Type
REMARK                         _______ _______ _______ _____ _____    ______ ____
ROOT
ATOM      1  O   UNL     1      16.419  -8.795  24.996  0.00  0.00    +0.000 OA
ATOM      2  C   UNL     1      16.342  -9.125  26.205  0.00  0.00    +0.000 C 
ATOM      3  N   UNL     1      17.301  -8.549  27.108  0.00  0.00    +0.000 NA
ENDROOT
BRANCH   2   4
ATOM      4  C   UNL     1      15.291 -10.075  26.649  0.00  0.00    +0.000 A 
ATOM      5  C   UNL     1      15.796 -11.226  27.280  0.00  0.00    +0.000 A 
ATOM      6  S   UNL     1      14.371 -12.134  27.590  0.00  0.00    +0.000 S 
ATOM      7  C   UNL     1      13.229 -11.072  26.937  0.00  0.00    +0.000 A 
ATOM      8  C   UNL     1      13.981 -10.018  26.483  0.00  0.00    +0.000 A 
ATOM      9  C   UNL     1      13.117  -8.908  25.877  0.00  0.00    +0.000 C 
ATOM     10  C   UNL     1      12.045  -8.690  26.938  0.00  0.00    +0.000 C 
ATOM     11  C   UNL     1      11.077  -9.842  26.848  0.00  0.00    +0.000 C 
ATOM     12  C   UNL     1      11.761 -11.188  26.864  0.00  0.00    +0.000 C 
ENDBRANCH   2   4
BRANCH   3  13
ATOM     13  C   UNL     1      18.284  -7.648  26.613  0.00  0.00    +0.000 A 
ATOM     14  C   UNL     1      19.454  -8.138  26.063  0.00  0.00    +0.000 A 
ATOM     15  C   UNL     1      20.451  -7.273  25.610  0.00  0.00    +0.000 A 
ATOM     16  C   UNL     1      20.279  -5.929  25.709  0.00  0.00    +0.000 A 
ATOM     17  C   UNL     1      19.138  -5.401  26.249  0.00  0.00    +0.000 A 
ATOM     18  C   UNL     1      18.148  -6.298  26.694  0.00  0.00    +0.000 A 
ATOM     19  O   UNL     1      16.948  -5.805  27.244  0.00  0.00    +0.000 OA
ENDBRANCH   3  13
TORSDOF 2
ENDMDL
MODEL 9
REMARK VINA RESULT:      -5.7     22.181     25.414
REMARK  Name = 
REMARK  2 active torsions:
REMARK  status: ('A' for Active; 'I' for Inactive)
REMARK    1  A    between atoms: C_2  and  C_11
REMARK    2  A    between atoms: N_3  and  C_4
REMARK                            x       y       z     vdW  Elec       q    Type
REMARK                         _______ _______ _______ _____ _____    ______ ____
ROOT
ATOM      1  O   UNL     1      29.671  24.806  20.751  0.00  0.00    +0.000 OA
ATOM      2  C   UNL     1      29.282  25.856  21.323  0.00  0.00    +0.000 C 
ATOM      3  N   UNL     1      29.357  25.891  22.758  0.00  0.00    +0.000 NA
ENDROOT
BRANCH   2   4
ATOM      4  C   UNL     1      28.770  26.992  20.517  0.00  0.00    +0.000 A 
ATOM      5  C   UNL     1      27.496  27.439  20.910  0.00  0.00    +0.000 A 
ATOM      6  S   UNL     1      27.166  28.673  19.761  0.00  0.00    +0.000 S 
ATOM      7  C   UNL     1      28.591  28.586  18.856  0.00  0.00    +0.000 A 
ATOM      8  C   UNL     1      29.309  27.589  19.468  0.00  0.00    +0.000 A 
ATOM      9  C   UNL     1      30.676  27.373  18.811  0.00  0.00    +0.000 C 
ATOM     10  C   UNL     1      31.240  28.785  18.722  0.00  0.00    +0.000 C 
ATOM     11  C   UNL     1      30.526  29.489  17.594  0.00  0.00    +0.000 C 
ATOM     12  C   UNL     1      29.023  29.380  17.692  0.00  0.00    +0.000 C 
ENDBRANCH   2   4
BRANCH   3  13
ATOM     13  C   UNL     1      29.854  24.763  23.467  0.00  0.00    +0.000 A 
ATOM     14  C   UNL     1      31.176  24.730  23.871  0.00  0.00    +0.000 A 
ATOM     15  C   UNL     1      31.698  23.616  24.531  0.00  0.00    +0.000 A 
ATOM     16  C   UNL     1      30.901  22.544  24.782  0.00  0.00    +0.000 A 
ATOM     17  C   UNL     1      29.588  22.533  24.398  0.00  0.00    +0.000 A 
ATOM     18  C   UNL     1      29.090  23.672  23.738  0.00  0.00    +0.000 A 
ATOM     19  O   UNL     1      27.740  23.717  23.336  0.00  0.00    +0.000 OA
ENDBRANCH   3  13
TORSDOF 2
ENDMDL
MODEL 10
REMARK VINA RESULT:      -5.6     22.453     23.837
REMARK  Name = 
REMARK  2 active torsions:
REMARK  status: ('A' for Active; 'I' for Inactive)
REMARK    1  A    between atoms: C_2  and  C_11
REMARK    2  A    between atoms: N_3  and  C_4
REMARK                            x       y       z     vdW  Elec       q    Type
REMARK                         _______ _______ _______ _____ _____    ______ ____
ROOT
ATOM      1  O   UNL     1      20.088  -9.019  24.050  0.00  0.00    +0.000 OA
ATOM      2  C   UNL     1      21.122  -8.856  24.744  0.00  0.00    +0.000 C 
ATOM      3  N   UNL     1      20.971  -8.181  26.004  0.00  0.00    +0.000 NA
ENDROOT
BRANCH   2   4
ATOM      4  C   UNL     1      22.432  -9.352  24.251  0.00  0.00    +0.000 A 
ATOM      5  C   UNL     1      22.426 -10.713  23.894  0.00  0.00    +0.000 A 
ATOM      6  S   UNL     1      24.064 -10.986  23.455  0.00  0.00    +0.000 S 
ATOM      7  C   UNL     1      24.679  -9.435  23.727  0.00  0.00    +0.000 A 
ATOM      8  C   UNL     1      23.589  -8.721  24.159  0.00  0.00    +0.000 A 
ATOM      9  C   UNL     1      23.930  -7.253  24.431  0.00  0.00    +0.000 C 
ATOM     10  C   UNL     1      24.674  -6.835  23.168  0.00  0.00    +0.000 C 
ATOM     11  C   UNL     1      26.057  -7.432  23.238  0.00  0.00    +0.000 C 
ATOM     12  C   UNL     1      26.043  -8.912  23.540  0.00  0.00    +0.000 C 
ENDBRANCH   2   4
BRANCH   3  13
ATOM     13  C   UNL     1      19.686  -7.727  26.412  0.00  0.00    +0.000 A 
ATOM     14  C   UNL     1      18.824  -8.591  27.063  0.00  0.00    +0.000 A 
ATOM     15  C   UNL     1      17.543  -8.181  27.436  0.00  0.00    +0.000 A 
ATOM     16  C   UNL     1      17.129  -6.917  27.156  0.00  0.00    +0.000 A 
ATOM     17  C   UNL     1      17.947  -6.031  26.512  0.00  0.00    +0.000 A 
ATOM     18  C   UNL     1      19.235  -6.472  26.152  0.00  0.00    +0.000 A 
ATOM     19  O   UNL     1      20.123  -5.593  25.500  0.00  0.00    +0.000 OA
ENDBRANCH   3  13
TORSDOF 2
ENDMDL
