MODEL 1
REMARK VINA RESULT:      -6.5      0.000      0.000
REMARK  Name = 
REMARK  3 active torsions:
REMARK  status: ('A' for Active; 'I' for Inactive)
REMARK    1  A    between atoms: C_2  and  C_4
REMARK    2  A    between atoms: C_4  and  C_5
REMARK    3  A    between atoms: N_9  and  C_10
REMARK                            x       y       z     vdW  Elec       q    Type
REMARK                         _______ _______ _______ _____ _____    ______ ____
ROOT
ATOM      1  C   UNL     1      16.683  11.670  34.598  0.00  0.00    +0.000 C 
ATOM      2  N   UNL     1      16.434  10.108  34.532  0.00  0.00    +0.000 NA
ATOM      3  C   UNL     1      17.373   9.569  35.438  0.00  0.00    +0.000 C 
ATOM      4  O   UNL     1      17.879   8.427  35.366  0.00  0.00    +0.000 OA
ATOM      5  N   UNL     1      17.656  10.522  36.448  0.00  0.00    +0.000 N 
ATOM      6  C   UNL     1      16.901  11.684  36.197  0.00  0.00    +0.000 C 
ATOM      7  O   UNL     1      16.452  12.576  36.917  0.00  0.00    +0.000 OA
ENDROOT
BRANCH   5   8
ATOM      8  C   UNL     1      18.538  10.405  37.557  0.00  0.00    +0.000 A 
ATOM      9  C   UNL     1      19.916  10.605  37.424  0.00  0.00    +0.000 A 
ATOM     10  C   UNL     1      20.791  10.499  38.458  0.00  0.00    +0.000 A 
ATOM     11  C   UNL     1      20.337  10.179  39.720  0.00  0.00    +0.000 A 
ATOM     12  C   UNL     1      18.993   9.977  39.879  0.00  0.00    +0.000 A 
ATOM     13  C   UNL     1      18.537   9.657  41.138  0.00  0.00    +0.000 A 
ATOM     14  C   UNL     1      17.206   9.441  41.384  0.00  0.00    +0.000 A 
ATOM     15  C   UNL     1      16.317   9.550  40.329  0.00  0.00    +0.000 A 
ATOM     16  C   UNL     1      16.774   9.870  39.067  0.00  0.00    +0.000 A 
ATOM     17  C   UNL     1      18.103  10.086  38.828  0.00  0.00    +0.000 A 
ENDBRANCH   5   8
BRANCH   1  18
ATOM     18  C   UNL     1      15.067  12.021  34.705  0.00  0.00    +0.000 C 
BRANCH  18  20
ATOM     19  C   UNL     1      13.680  14.010  34.056  0.00  0.00    +0.000 C 
ATOM     20  C   UNL     1      14.787  13.082  33.708  0.00  0.00    +0.000 C 
ATOM     21  C   UNL     1      14.731  12.492  32.335  0.00  0.00    +0.000 C 
ENDBRANCH  18  20
ENDBRANCH   1  18
TORSDOF 3
ENDMDL
MODEL 2
REMARK VINA RESULT:      -6.5     20.061     22.403
REMARK  Name = 
REMARK  3 active torsions:
REMARK  status: ('A' for Active; 'I' for Inactive)
REMARK    1  A    between atoms: C_2  and  C_4
REMARK    2  A    between atoms: C_4  and  C_5
REMARK    3  A    between atoms: N_9  and  C_10
REMARK                            x       y       z     vdW  Elec       q    Type
REMARK                         _______ _______ _______ _____ _____    ______ ____
ROOT
ATOM      1  C   UNL     1      17.036 -10.030  29.398  0.00  0.00    +0.000 C 
ATOM      2  N   UNL     1      16.706 -10.636  27.973  0.00  0.00    +0.000 NA
ATOM      3  C   UNL     1      16.987  -9.583  27.076  0.00  0.00    +0.000 C 
ATOM      4  O   UNL     1      16.440  -9.413  25.963  0.00  0.00    +0.000 OA
ATOM      5  N   UNL     1      17.986  -8.744  27.628  0.00  0.00    +0.000 N 
ATOM      6  C   UNL     1      18.355  -9.252  28.889  0.00  0.00    +0.000 C 
ATOM      7  O   UNL     1      19.387  -9.193  29.558  0.00  0.00    +0.000 OA
ENDROOT
BRANCH   5   8
ATOM      8  C   UNL     1      18.570  -7.573  27.072  0.00  0.00    +0.000 A 
ATOM      9  C   UNL     1      17.983  -6.313  27.231  0.00  0.00    +0.000 A 
ATOM     10  C   UNL     1      18.508  -5.173  26.713  0.00  0.00    +0.000 A 
ATOM     11  C   UNL     1      19.678  -5.216  25.985  0.00  0.00    +0.000 A 
ATOM     12  C   UNL     1      20.273  -6.436  25.813  0.00  0.00    +0.000 A 
ATOM     13  C   UNL     1      21.442  -6.482  25.086  0.00  0.00    +0.000 A 
ATOM     14  C   UNL     1      22.104  -7.663  24.869  0.00  0.00    +0.000 A 
ATOM     15  C   UNL     1      21.567  -8.823  25.399  0.00  0.00    +0.000 A 
ATOM     16  C   UNL     1      20.396  -8.777  26.126  0.00  0.00    +0.000 A 
ATOM     17  C   UNL     1      19.741  -7.596  26.341  0.00  0.00    +0.000 A 
ENDBRANCH   5   8
BRANCH   1  18
ATOM     18  C   UNL     1      17.881 -11.372  29.881  0.00  0.00    +0.000 C 
BRANCH  18  20
ATOM     19  C   UNL     1      16.601 -10.629  31.908  0.00  0.00    +0.000 C 
ATOM     20  C   UNL     1      17.561 -11.594  31.312  0.00  0.00    +0.000 C 
ATOM     21  C   UNL     1      18.818 -11.821  32.087  0.00  0.00    +0.000 C 
ENDBRANCH  18  20
ENDBRANCH   1  18
TORSDOF 3
ENDMDL
MODEL 3
REMARK VINA RESULT:      -6.5     22.024     23.733
REMARK  Name = 
REMARK  3 active torsions:
REMARK  status: ('A' for Active; 'I' for Inactive)
REMARK    1  A    between atoms: C_2  and  C_4
REMARK    2  A    between atoms: C_4  and  C_5
REMARK    3  A    between atoms: N_9  and  C_10
REMARK                            x       y       z     vdW  Elec       q    Type
REMARK                         _______ _______ _______ _____ _____    ______ ____
ROOT
ATOM      1  C   UNL     1      28.643  26.768  20.793  0.00  0.00    +0.000 C 
ATOM      2  N   UNL     1      29.415  27.741  21.775  0.00  0.00    +0.000 NA
ATOM      3  C   UNL     1      29.452  27.039  22.999  0.00  0.00    +0.000 C 
ATOM      4  O   UNL     1      29.502  27.563  24.135  0.00  0.00    +0.000 OA
ATOM      5  N   UNL     1      29.424  25.645  22.746  0.00  0.00    +0.000 N 
ATOM      6  C   UNL     1      29.367  25.440  21.354  0.00  0.00    +0.000 C 
ATOM      7  O   UNL     1      29.736  24.526  20.616  0.00  0.00    +0.000 OA
ENDROOT
BRANCH   5   8
ATOM      8  C   UNL     1      29.446  24.572  23.679  0.00  0.00    +0.000 A 
ATOM      9  C   UNL     1      30.637  23.936  24.040  0.00  0.00    +0.000 A 
ATOM     10  C   UNL     1      30.698  22.906  24.925  0.00  0.00    +0.000 A 
ATOM     11  C   UNL     1      29.547  22.434  25.519  0.00  0.00    +0.000 A 
ATOM     12  C   UNL     1      28.366  23.039  25.184  0.00  0.00    +0.000 A 
ATOM     13  C   UNL     1      27.215  22.570  25.776  0.00  0.00    +0.000 A 
ATOM     14  C   UNL     1      25.990  23.120  25.497  0.00  0.00    +0.000 A 
ATOM     15  C   UNL     1      25.932  24.170  24.596  0.00  0.00    +0.000 A 
ATOM     16  C   UNL     1      27.085  24.639  24.003  0.00  0.00    +0.000 A 
ATOM     17  C   UNL     1      28.304  24.087  24.286  0.00  0.00    +0.000 A 
ENDBRANCH   5   8
BRANCH   1  18
ATOM     18  C   UNL     1      29.738  26.980  19.566  0.00  0.00    +0.000 C 
BRANCH  18  20
ATOM     19  C   UNL     1      28.581  28.876  18.397  0.00  0.00    +0.000 C 
ATOM     20  C   UNL     1      29.730  28.423  19.223  0.00  0.00    +0.000 C 
ATOM     21  C   UNL     1      31.082  28.840  18.739  0.00  0.00    +0.000 C 
ENDBRANCH  18  20
ENDBRANCH   1  18
TORSDOF 3
ENDMDL
MODEL 4
REMARK VINA RESULT:      -6.3      3.480      5.608
REMARK  Name = 
REMARK  3 active torsions:
REMARK  status: ('A' for Active; 'I' for Inactive)
REMARK    1  A    between atoms: C_2  and  C_4
REMARK    2  A    between atoms: C_4  and  C_5
REMARK    3  A    between atoms: N_9  and  C_10
REMARK                            x       y       z     vdW  Elec       q    Type
REMARK                         _______ _______ _______ _____ _____    ______ ____
ROOT
ATOM      1  C   UNL     1      21.048   9.517  37.668  0.00  0.00    +0.000 C 
ATOM      2  N   UNL     1      19.942   9.943  36.618  0.00  0.00    +0.000 NA
ATOM      3  C   UNL     1      18.734   9.475  37.179  0.00  0.00    +0.000 C 
ATOM      4  O   UNL     1      17.715   9.143  36.534  0.00  0.00    +0.000 OA
ATOM      5  N   UNL     1      18.850   9.441  38.591  0.00  0.00    +0.000 N 
ATOM      6  C   UNL     1      20.138   9.884  38.950  0.00  0.00    +0.000 C 
ATOM      7  O   UNL     1      20.598  10.431  39.952  0.00  0.00    +0.000 OA
ENDROOT
BRANCH   5   8
ATOM      8  C   UNL     1      17.882   9.038  39.552  0.00  0.00    +0.000 A 
ATOM      9  C   UNL     1      16.824   9.873  39.923  0.00  0.00    +0.000 A 
ATOM     10  C   UNL     1      15.882   9.526  40.839  0.00  0.00    +0.000 A 
ATOM     11  C   UNL     1      15.939   8.296  41.459  0.00  0.00    +0.000 A 
ATOM     12  C   UNL     1      16.965   7.459  41.115  0.00  0.00    +0.000 A 
ATOM     13  C   UNL     1      17.024   6.230  41.734  0.00  0.00    +0.000 A 
ATOM     14  C   UNL     1      18.018   5.330  41.446  0.00  0.00    +0.000 A 
ATOM     15  C   UNL     1      18.975   5.687  40.511  0.00  0.00    +0.000 A 
ATOM     16  C   UNL     1      18.916   6.918  39.893  0.00  0.00    +0.000 A 
ATOM     17  C   UNL     1      17.922   7.811  40.183  0.00  0.00    +0.000 A 
ENDBRANCH   5   8
BRANCH   1  18
ATOM     18  C   UNL     1      21.791  10.998  37.633  0.00  0.00    +0.000 C 
BRANCH  18  20
ATOM     19  C   UNL     1      23.450   9.418  36.608  0.00  0.00    +0.000 C 
ATOM     20  C   UNL     1      23.073  10.823  36.908  0.00  0.00    +0.000 C 
ATOM     21  C   UNL     1      24.137  11.659  37.543  0.00  0.00    +0.000 C 
ENDBRANCH  18  20
ENDBRANCH   1  18
TORSDOF 3
ENDMDL
MODEL 5
REMARK VINA RESULT:      -6.3     20.455     22.617
REMARK  Name = 
REMARK  3 active torsions:
REMARK  status: ('A' for Active; 'I' for Inactive)
REMARK    1  A    between atoms: C_2  and  C_4
REMARK    2  A    between atoms: C_4  and  C_5
REMARK    3  A    between atoms: N_9  and  C_10
REMARK                            x       y       z     vdW  Elec       q    Type
REMARK                         _______ _______ _______ _____ _____    ______ ____
ROOT
ATOM      1  C   UNL     1      16.559 -10.685  27.164  0.00  0.00    +0.000 C 
ATOM      2  N   UNL     1      16.946 -10.386  28.671  0.00  0.00    +0.000 NA
ATOM      3  C   UNL     1      17.901  -9.349  28.583  0.00  0.00    +0.000 C 
ATOM      4  O   UNL     1      18.814  -9.133  29.410  0.00  0.00    +0.000 OA
ATOM      5  N   UNL     1      17.665  -8.587  27.412  0.00  0.00    +0.000 N 
ATOM      6  C   UNL     1      16.556  -9.130  26.734  0.00  0.00    +0.000 C 
ATOM      7  O   UNL     1      15.712  -8.656  25.974  0.00  0.00    +0.000 OA
ENDROOT
BRANCH   5   8
ATOM      8  C   UNL     1      18.380  -7.456  26.930  0.00  0.00    +0.000 A 
ATOM      9  C   UNL     1      17.903  -6.154  27.110  0.00  0.00    +0.000 A 
ATOM     10  C   UNL     1      18.554  -5.049  26.661  0.00  0.00    +0.000 A 
ATOM     11  C   UNL     1      19.750  -5.175  25.988  0.00  0.00    +0.000 A 
ATOM     12  C   UNL     1      20.241  -6.439  25.798  0.00  0.00    +0.000 A 
ATOM     13  C   UNL     1      21.436  -6.568  25.126  0.00  0.00    +0.000 A 
ATOM     14  C   UNL     1      21.998  -7.797  24.894  0.00  0.00    +0.000 A 
ATOM     15  C   UNL     1      21.332  -8.920  25.353  0.00  0.00    +0.000 A 
ATOM     16  C   UNL     1      20.135  -8.791  26.025  0.00  0.00    +0.000 A 
ATOM     17  C   UNL     1      19.579  -7.562  26.255  0.00  0.00    +0.000 A 
ENDBRANCH   5   8
BRANCH   1  18
ATOM     18  C   UNL     1      14.933 -10.714  27.485  0.00  0.00    +0.000 C 
BRANCH  18  20
ATOM     19  C   UNL     1      15.329 -12.679  25.975  0.00  0.00    +0.000 C 
ATOM     20  C   UNL     1      14.348 -11.798  26.660  0.00  0.00    +0.000 C 
ATOM     21  C   UNL     1      13.254 -11.252  25.800  0.00  0.00    +0.000 C 
ENDBRANCH  18  20
ENDBRANCH   1  18
TORSDOF 3
ENDMDL
MODEL 6
REMARK VINA RESULT:      -6.3      1.579      2.629
REMARK  Name = 
REMARK  3 active torsions:
REMARK  status: ('A' for Active; 'I' for Inactive)
REMARK    1  A    between atoms: C_2  and  C_4
REMARK    2  A    between atoms: C_4  and  C_5
REMARK    3  A    between atoms: N_9  and  C_10
REMARK                            x       y       z     vdW  Elec       q    Type
REMARK                         _______ _______ _______ _____ _____    ______ ____
ROOT
ATOM      1  C   UNL     1      16.158  12.181  35.717  0.00  0.00    +0.000 C 
ATOM      2  N   UNL     1      16.647  10.923  34.888  0.00  0.00    +0.000 NA
ATOM      3  C   UNL     1      17.691  10.380  35.669  0.00  0.00    +0.000 C 
ATOM      4  O   UNL     1      18.662   9.726  35.226  0.00  0.00    +0.000 OA
ATOM      5  N   UNL     1      17.471  10.688  37.034  0.00  0.00    +0.000 N 
ATOM      6  C   UNL     1      16.283  11.436  37.143  0.00  0.00    +0.000 C 
ATOM      7  O   UNL     1      15.450  11.579  38.038  0.00  0.00    +0.000 OA
ENDROOT
BRANCH   5   8
ATOM      8  C   UNL     1      18.266  10.343  38.161  0.00  0.00    +0.000 A 
ATOM      9  C   UNL     1      18.105   9.125  38.829  0.00  0.00    +0.000 A 
ATOM     10  C   UNL     1      18.841   8.761  39.911  0.00  0.00    +0.000 A 
ATOM     11  C   UNL     1      19.808   9.608  40.408  0.00  0.00    +0.000 A 
ATOM     12  C   UNL     1      19.988  10.808  39.774  0.00  0.00    +0.000 A 
ATOM     13  C   UNL     1      20.953  11.656  40.269  0.00  0.00    +0.000 A 
ATOM     14  C   UNL     1      21.198  12.876  39.692  0.00  0.00    +0.000 A 
ATOM     15  C   UNL     1      20.446  13.243  38.589  0.00  0.00    +0.000 A 
ATOM     16  C   UNL     1      19.479  12.394  38.095  0.00  0.00    +0.000 A 
ATOM     17  C   UNL     1      19.240  11.178  38.673  0.00  0.00    +0.000 A 
ENDBRANCH   5   8
BRANCH   1  18
ATOM     18  C   UNL     1      14.555  11.801  35.534  0.00  0.00    +0.000 C 
BRANCH  18  20
ATOM     19  C   UNL     1      12.509  12.865  36.524  0.00  0.00    +0.000 C 
ATOM     20  C   UNL     1      13.784  13.043  35.782  0.00  0.00    +0.000 C 
ATOM     21  C   UNL     1      13.697  13.850  34.526  0.00  0.00    +0.000 C 
ENDBRANCH  18  20
ENDBRANCH   1  18
TORSDOF 3
ENDMDL
MODEL 7
REMARK VINA RESULT:      -6.2     17.696     19.179
REMARK  Name = 
REMARK  3 active torsions:
REMARK  status: ('A' for Active; 'I' for Inactive)
REMARK    1  A    between atoms: C_2  and  C_4
REMARK    2  A    between atoms: C_4  and  C_5
REMARK    3  A    between atoms: N_9  and  C_10
REMARK                            x       y       z     vdW  Elec       q    Type
REMARK                         _______ _______ _______ _____ _____    ______ ____
ROOT
ATOM      1  C   UNL     1      25.777  24.645  29.651  0.00  0.00    +0.000 C 
ATOM      2  N   UNL     1      25.779  23.344  30.554  0.00  0.00    +0.000 NA
ATOM      3  C   UNL     1      26.830  22.561  30.029  0.00  0.00    +0.000 C 
ATOM      4  O   UNL     1      26.895  21.312  30.072  0.00  0.00    +0.000 OA
ATOM      5  N   UNL     1      27.805  23.408  29.446  0.00  0.00    +0.000 N 
ATOM      6  C   UNL     1      27.386  24.745  29.589  0.00  0.00    +0.000 C 
ATOM      7  O   UNL     1      27.985  25.818  29.662  0.00  0.00    +0.000 OA
ENDROOT
BRANCH   5   8
ATOM      8  C   UNL     1      29.023  23.050  28.805  0.00  0.00    +0.000 A 
ATOM      9  C   UNL     1      30.191  22.803  29.532  0.00  0.00    +0.000 A 
ATOM     10  C   UNL     1      31.373  22.462  28.956  0.00  0.00    +0.000 A 
ATOM     11  C   UNL     1      31.468  22.344  27.586  0.00  0.00    +0.000 A 
ATOM     12  C   UNL     1      30.339  22.581  26.849  0.00  0.00    +0.000 A 
ATOM     13  C   UNL     1      30.432  22.464  25.480  0.00  0.00    +0.000 A 
ATOM     14  C   UNL     1      29.348  22.682  24.668  0.00  0.00    +0.000 A 
ATOM     15  C   UNL     1      28.145  23.028  25.259  0.00  0.00    +0.000 A 
ATOM     16  C   UNL     1      28.053  23.146  26.630  0.00  0.00    +0.000 A 
ATOM     17  C   UNL     1      29.137  22.926  27.434  0.00  0.00    +0.000 A 
ENDBRANCH   5   8
BRANCH   1  18
ATOM     18  C   UNL     1      25.654  25.665  30.952  0.00  0.00    +0.000 C 
BRANCH  18  20
ATOM     19  C   UNL     1      23.438  26.544  31.737  0.00  0.00    +0.000 C 
ATOM     20  C   UNL     1      24.497  26.557  30.695  0.00  0.00    +0.000 C 
ATOM     21  C   UNL     1      24.024  26.388  29.287  0.00  0.00    +0.000 C 
ENDBRANCH  18  20
ENDBRANCH   1  18
TORSDOF 3
ENDMDL
MODEL 8
REMARK VINA RESULT:      -6.2     20.400     22.024
REMARK  Name = 
REMARK  3 active torsions:
REMARK  status: ('A' for Active; 'I' for Inactive)
REMARK    1  A    between atoms: C_2  and  C_4
REMARK    2  A    between atoms: C_4  and  C_5
REMARK    3  A    between atoms: N_9  and  C_10
REMARK                            x       y       z     vdW  Elec       q    Type
REMARK                         _______ _______ _______ _____ _____    ______ ____
ROOT
ATOM      1  C   UNL     1      28.556  25.541  21.930  0.00  0.00    +0.000 C 
ATOM      2  N   UNL     1      27.214  24.847  21.457  0.00  0.00    +0.000 NA
ATOM      3  C   UNL     1      26.833  24.046  22.556  0.00  0.00    +0.000 C 
ATOM      4  O   UNL     1      26.164  22.991  22.487  0.00  0.00    +0.000 OA
ATOM      5  N   UNL     1      27.326  24.621  23.754  0.00  0.00    +0.000 N 
ATOM      6  C   UNL     1      28.030  25.798  23.433  0.00  0.00    +0.000 C 
ATOM      7  O   UNL     1      28.266  26.839  24.047  0.00  0.00    +0.000 OA
ENDROOT
BRANCH   5   8
ATOM      8  C   UNL     1      27.180  24.153  25.088  0.00  0.00    +0.000 A 
ATOM      9  C   UNL     1      26.030  24.417  25.838  0.00  0.00    +0.000 A 
ATOM     10  C   UNL     1      25.856  23.990  27.116  0.00  0.00    +0.000 A 
ATOM     11  C   UNL     1      26.841  23.258  27.743  0.00  0.00    +0.000 A 
ATOM     12  C   UNL     1      27.978  22.985  27.032  0.00  0.00    +0.000 A 
ATOM     13  C   UNL     1      28.964  22.253  27.656  0.00  0.00    +0.000 A 
ATOM     14  C   UNL     1      30.133  21.935  27.015  0.00  0.00    +0.000 A 
ATOM     15  C   UNL     1      30.307  22.370  25.713  0.00  0.00    +0.000 A 
ATOM     16  C   UNL     1      29.320  23.104  25.089  0.00  0.00    +0.000 A 
ATOM     17  C   UNL     1      28.155  23.417  25.732  0.00  0.00    +0.000 A 
ENDBRANCH   5   8
BRANCH   1  18
ATOM     18  C   UNL     1      28.086  27.037  21.392  0.00  0.00    +0.000 C 
BRANCH  18  20
ATOM     19  C   UNL     1      29.157  29.149  20.560  0.00  0.00    +0.000 C 
ATOM     20  C   UNL     1      29.291  27.695  20.832  0.00  0.00    +0.000 C 
ATOM     21  C   UNL     1      29.847  26.874  19.712  0.00  0.00    +0.000 C 
ENDBRANCH  18  20
ENDBRANCH   1  18
TORSDOF 3
ENDMDL
MODEL 9
REMARK VINA RESULT:      -6.2     20.589     22.128
REMARK  Name = 
REMARK  3 active torsions:
REMARK  status: ('A' for Active; 'I' for Inactive)
REMARK    1  A    between atoms: C_2  and  C_4
REMARK    2  A    between atoms: C_4  and  C_5
REMARK    3  A    between atoms: N_9  and  C_10
REMARK                            x       y       z     vdW  Elec       q    Type
REMARK                         _______ _______ _______ _____ _____    ______ ____
ROOT
ATOM      1  C   UNL     1      28.681  25.601  21.427  0.00  0.00    +0.000 C 
ATOM      2  N   UNL     1      27.207  25.024  21.451  0.00  0.00    +0.000 NA
ATOM      3  C   UNL     1      27.241  24.031  22.455  0.00  0.00    +0.000 C 
ATOM      4  O   UNL     1      26.511  23.016  22.497  0.00  0.00    +0.000 OA
ATOM      5  N   UNL     1      28.231  24.362  23.414  0.00  0.00    +0.000 N 
ATOM      6  C   UNL     1      28.844  25.572  23.032  0.00  0.00    +0.000 C 
ATOM      7  O   UNL     1      29.402  26.474  23.656  0.00  0.00    +0.000 OA
ENDROOT
BRANCH   5   8
ATOM      8  C   UNL     1      28.605  23.650  24.586  0.00  0.00    +0.000 A 
ATOM      9  C   UNL     1      29.792  22.915  24.652  0.00  0.00    +0.000 A 
ATOM     10  C   UNL     1      30.182  22.219  25.752  0.00  0.00    +0.000 A 
ATOM     11  C   UNL     1      29.394  22.211  26.883  0.00  0.00    +0.000 A 
ATOM     12  C   UNL     1      28.225  22.923  26.846  0.00  0.00    +0.000 A 
ATOM     13  C   UNL     1      27.436  22.917  27.975  0.00  0.00    +0.000 A 
ATOM     14  C   UNL     1      26.251  23.605  28.023  0.00  0.00    +0.000 A 
ATOM     15  C   UNL     1      25.857  24.314  26.901  0.00  0.00    +0.000 A 
ATOM     16  C   UNL     1      26.648  24.319  25.771  0.00  0.00    +0.000 A 
ATOM     17  C   UNL     1      27.829  23.632  25.729  0.00  0.00    +0.000 A 
ENDBRANCH   5   8
BRANCH   1  18
ATOM     18  C   UNL     1      28.167  27.177  21.398  0.00  0.00    +0.000 C 
BRANCH  18  20
ATOM     19  C   UNL     1      29.892  27.010  19.582  0.00  0.00    +0.000 C 
ATOM     20  C   UNL     1      28.952  27.869  20.347  0.00  0.00    +0.000 C 
ATOM     21  C   UNL     1      29.528  29.137  20.891  0.00  0.00    +0.000 C 
ENDBRANCH  18  20
ENDBRANCH   1  18
TORSDOF 3
ENDMDL
MODEL 10
REMARK VINA RESULT:      -6.1      2.404      4.620
REMARK  Name = 
REMARK  3 active torsions:
REMARK  status: ('A' for Active; 'I' for Inactive)
REMARK    1  A    between atoms: C_2  and  C_4
REMARK    2  A    between atoms: C_4  and  C_5
REMARK    3  A    between atoms: N_9  and  C_10
REMARK                            x       y       z     vdW  Elec       q    Type
REMARK                         _______ _______ _______ _____ _____    ______ ____
ROOT
ATOM      1  C   UNL     1      17.373  11.230  37.644  0.00  0.00    +0.000 C 
ATOM      2  N   UNL     1      18.261  12.537  37.548  0.00  0.00    +0.000 NA
ATOM      3  C   UNL     1      19.470  12.181  38.184  0.00  0.00    +0.000 C 
ATOM      4  O   UNL     1      20.242  12.972  38.770  0.00  0.00    +0.000 OA
ATOM      5  N   UNL     1      19.680  10.786  38.053  0.00  0.00    +0.000 N 
ATOM      6  C   UNL     1      18.603  10.232  37.334  0.00  0.00    +0.000 C 
ATOM      7  O   UNL     1      18.485   9.243  36.611  0.00  0.00    +0.000 OA
ENDROOT
BRANCH   5   8
ATOM      8  C   UNL     1      20.762  10.001  38.538  0.00  0.00    +0.000 A 
ATOM      9  C   UNL     1      20.707   9.358  39.778  0.00  0.00    +0.000 A 
ATOM     10  C   UNL     1      21.720   8.604  40.276  0.00  0.00    +0.000 A 
ATOM     11  C   UNL     1      22.882   8.439  39.553  0.00  0.00    +0.000 A 
ATOM     12  C   UNL     1      22.964   9.058  38.335  0.00  0.00    +0.000 A 
ATOM     13  C   UNL     1      24.124   8.895  37.610  0.00  0.00    +0.000 A 
ATOM     14  C   UNL     1      24.288   9.479  36.381  0.00  0.00    +0.000 A 
ATOM     15  C   UNL     1      23.252  10.246  35.875  0.00  0.00    +0.000 A 
ATOM     16  C   UNL     1      22.091  10.410  36.602  0.00  0.00    +0.000 A 
ATOM     17  C   UNL     1      21.933   9.824  37.827  0.00  0.00    +0.000 A 
ENDBRANCH   5   8
BRANCH   1  18
ATOM     18  C   UNL     1      16.900  11.317  36.058  0.00  0.00    +0.000 C 
BRANCH  18  20
ATOM     19  C   UNL     1      14.892  12.597  35.266  0.00  0.00    +0.000 C 
ATOM     20  C   UNL     1      15.424  11.454  36.052  0.00  0.00    +0.000 C 
ATOM     21  C   UNL     1      14.893  11.321  37.444  0.00  0.00    +0.000 C 
ENDBRANCH  18  20
ENDBRANCH   1  18
TORSDOF 3
ENDMDL
