MODEL 1
REMARK VINA RESULT:      -7.0      0.000      0.000
REMARK  Name = 
REMARK  2 active torsions:
REMARK  status: ('A' for Active; 'I' for Inactive)
REMARK    1  A    between atoms: N_4  and  C_5
REMARK    2  A    between atoms: N_17  and  C_18
REMARK                            x       y       z     vdW  Elec       q    Type
REMARK                         _______ _______ _______ _____ _____    ______ ____
ROOT
ATOM      1  C   UNL     1      29.003  24.924  21.389  0.00  0.00    +0.000 A 
ATOM      2  C   UNL     1      27.628  24.892  21.483  0.00  0.00    +0.000 A 
ATOM      3  C   UNL     1      26.976  24.364  22.592  0.00  0.00    +0.000 A 
ATOM      4  C   UNL     1      27.698  23.847  23.648  0.00  0.00    +0.000 A 
ATOM      5  C   UNL     1      29.076  23.869  23.574  0.00  0.00    +0.000 A 
ATOM      6  C   UNL     1      29.696  24.400  22.460  0.00  0.00    +0.000 A 
ATOM      7  C   UNL     1      29.533  23.302  24.740  0.00  0.00    +0.000 A 
ATOM      8  C   UNL     1      30.815  23.056  25.222  0.00  0.00    +0.000 A 
ATOM      9  C   UNL     1      30.993  22.462  26.452  0.00  0.00    +0.000 A 
ATOM     10  C   UNL     1      29.910  22.114  27.195  0.00  0.00    +0.000 A 
ATOM     11  C   UNL     1      28.640  22.358  26.716  0.00  0.00    +0.000 A 
ATOM     12  C   UNL     1      28.412  22.953  25.489  0.00  0.00    +0.000 A 
ATOM     13  N   UNL     1      27.312  23.295  24.803  0.00  0.00    +0.000 N 
ENDROOT
BRANCH   1  17
ATOM     14  C   UNL     1      30.449  27.386  18.860  0.00  0.00    +0.000 C 
ATOM     15  C   UNL     1      29.766  26.877  20.073  0.00  0.00    +0.000 C 
ATOM     16  O   UNL     1      29.278  27.599  20.976  0.00  0.00    +0.000 OA
ATOM     17  N   UNL     1      29.652  25.472  20.238  0.00  0.00    +0.000 NA
ENDBRANCH   1  17
BRANCH  13  18
ATOM     18  C   UNL     1      25.941  23.085  25.268  0.00  0.00    +0.000 C 
ATOM     19  C   UNL     1      25.575  24.354  26.043  0.00  0.00    +0.000 C 
ATOM     20  C   UNL     1      25.083  22.981  24.014  0.00  0.00    +0.000 C 
ENDBRANCH  13  18
TORSDOF 2
ENDMDL
MODEL 2
REMARK VINA RESULT:      -6.7     22.444     25.542
REMARK  Name = 
REMARK  2 active torsions:
REMARK  status: ('A' for Active; 'I' for Inactive)
REMARK    1  A    between atoms: N_4  and  C_5
REMARK    2  A    between atoms: N_17  and  C_18
REMARK                            x       y       z     vdW  Elec       q    Type
REMARK                         _______ _______ _______ _____ _____    ______ ____
ROOT
ATOM      1  C   UNL     1      16.578   9.002  41.230  0.00  0.00    +0.000 A 
ATOM      2  C   UNL     1      17.715   9.320  40.518  0.00  0.00    +0.000 A 
ATOM      3  C   UNL     1      17.661  10.010  39.312  0.00  0.00    +0.000 A 
ATOM      4  C   UNL     1      16.449  10.402  38.783  0.00  0.00    +0.000 A 
ATOM      5  C   UNL     1      15.298  10.093  39.481  0.00  0.00    +0.000 A 
ATOM      6  C   UNL     1      15.382   9.408  40.676  0.00  0.00    +0.000 A 
ATOM      7  C   UNL     1      14.254  10.594  38.740  0.00  0.00    +0.000 A 
ATOM      8  C   UNL     1      12.876  10.585  38.939  0.00  0.00    +0.000 A 
ATOM      9  C   UNL     1      12.038  11.173  38.018  0.00  0.00    +0.000 A 
ATOM     10  C   UNL     1      12.560  11.762  36.911  0.00  0.00    +0.000 A 
ATOM     11  C   UNL     1      13.925  11.770  36.715  0.00  0.00    +0.000 A 
ATOM     12  C   UNL     1      14.806  11.194  37.612  0.00  0.00    +0.000 A 
ATOM     13  N   UNL     1      16.139  11.063  37.663  0.00  0.00    +0.000 N 
ENDROOT
BRANCH   1  17
ATOM     14  C   UNL     1      16.880   6.197  43.798  0.00  0.00    +0.000 C 
ATOM     15  C   UNL     1      16.803   6.879  42.484  0.00  0.00    +0.000 C 
ATOM     16  O   UNL     1      16.858   6.299  41.372  0.00  0.00    +0.000 OA
ATOM     17  N   UNL     1      16.658   8.291  42.470  0.00  0.00    +0.000 NA
ENDBRANCH   1  17
BRANCH  13  18
ATOM     18  C   UNL     1      17.066  11.568  36.650  0.00  0.00    +0.000 C 
ATOM     19  C   UNL     1      16.785  10.739  35.392  0.00  0.00    +0.000 C 
ATOM     20  C   UNL     1      16.675  13.021  36.408  0.00  0.00    +0.000 C 
ENDBRANCH  13  18
TORSDOF 2
ENDMDL
MODEL 3
REMARK VINA RESULT:      -6.7     20.379     21.960
REMARK  Name = 
REMARK  2 active torsions:
REMARK  status: ('A' for Active; 'I' for Inactive)
REMARK    1  A    between atoms: N_4  and  C_5
REMARK    2  A    between atoms: N_17  and  C_18
REMARK                            x       y       z     vdW  Elec       q    Type
REMARK                         _______ _______ _______ _____ _____    ______ ____
ROOT
ATOM      1  C   UNL     1      16.522  11.231  36.835  0.00  0.00    +0.000 A 
ATOM      2  C   UNL     1      17.078   9.992  36.600  0.00  0.00    +0.000 A 
ATOM      3  C   UNL     1      18.418   9.723  36.859  0.00  0.00    +0.000 A 
ATOM      4  C   UNL     1      19.243  10.705  37.367  0.00  0.00    +0.000 A 
ATOM      5  C   UNL     1      18.705  11.954  37.609  0.00  0.00    +0.000 A 
ATOM      6  C   UNL     1      17.372  12.191  37.342  0.00  0.00    +0.000 A 
ATOM      7  C   UNL     1      19.731  12.724  38.105  0.00  0.00    +0.000 A 
ATOM      8  C   UNL     1      19.788  14.051  38.522  0.00  0.00    +0.000 A 
ATOM      9  C   UNL     1      20.971  14.583  38.984  0.00  0.00    +0.000 A 
ATOM     10  C   UNL     1      22.086  13.808  39.032  0.00  0.00    +0.000 A 
ATOM     11  C   UNL     1      22.027  12.494  38.618  0.00  0.00    +0.000 A 
ATOM     12  C   UNL     1      20.863  11.915  38.147  0.00  0.00    +0.000 A 
ATOM     13  N   UNL     1      20.540  10.696  37.694  0.00  0.00    +0.000 N 
ENDROOT
BRANCH   1  17
ATOM     14  C   UNL     1      12.752  11.651  37.243  0.00  0.00    +0.000 C 
ATOM     15  C   UNL     1      14.167  11.377  37.588  0.00  0.00    +0.000 C 
ATOM     16  O   UNL     1      14.577  11.056  38.730  0.00  0.00    +0.000 OA
ATOM     17  N   UNL     1      15.140  11.484  36.560  0.00  0.00    +0.000 NA
ENDBRANCH   1  17
BRANCH  13  18
ATOM     18  C   UNL     1      21.469   9.571  37.589  0.00  0.00    +0.000 C 
ATOM     19  C   UNL     1      22.461   9.965  36.489  0.00  0.00    +0.000 C 
ATOM     20  C   UNL     1      22.190   9.494  38.929  0.00  0.00    +0.000 C 
ENDBRANCH  13  18
TORSDOF 2
ENDMDL
MODEL 4
REMARK VINA RESULT:      -6.6      2.695      4.151
REMARK  Name = 
REMARK  2 active torsions:
REMARK  status: ('A' for Active; 'I' for Inactive)
REMARK    1  A    between atoms: N_4  and  C_5
REMARK    2  A    between atoms: N_17  and  C_18
REMARK                            x       y       z     vdW  Elec       q    Type
REMARK                         _______ _______ _______ _____ _____    ______ ____
ROOT
ATOM      1  C   UNL     1      28.328  23.176  24.840  0.00  0.00    +0.000 A 
ATOM      2  C   UNL     1      27.014  23.247  25.250  0.00  0.00    +0.000 A 
ATOM      3  C   UNL     1      26.651  23.151  26.589  0.00  0.00    +0.000 A 
ATOM      4  C   UNL     1      27.613  22.976  27.563  0.00  0.00    +0.000 A 
ATOM      5  C   UNL     1      28.935  22.901  27.173  0.00  0.00    +0.000 A 
ATOM      6  C   UNL     1      29.265  23.001  25.837  0.00  0.00    +0.000 A 
ATOM      7  C   UNL     1      29.666  22.731  28.326  0.00  0.00    +0.000 A 
ATOM      8  C   UNL     1      31.031  22.593  28.557  0.00  0.00    +0.000 A 
ATOM      9  C   UNL     1      31.506  22.431  29.839  0.00  0.00    +0.000 A 
ATOM     10  C   UNL     1      30.635  22.405  30.882  0.00  0.00    +0.000 A 
ATOM     11  C   UNL     1      29.283  22.541  30.651  0.00  0.00    +0.000 A 
ATOM     12  C   UNL     1      28.759  22.707  29.383  0.00  0.00    +0.000 A 
ATOM     13  N   UNL     1      27.521  22.858  28.892  0.00  0.00    +0.000 N 
ENDROOT
BRANCH   1  17
ATOM     14  C   UNL     1      29.259  24.588  21.421  0.00  0.00    +0.000 C 
ATOM     15  C   UNL     1      28.901  24.545  22.859  0.00  0.00    +0.000 C 
ATOM     16  O   UNL     1      28.781  25.553  23.597  0.00  0.00    +0.000 OA
ATOM     17  N   UNL     1      28.677  23.277  23.456  0.00  0.00    +0.000 NA
ENDBRANCH   1  17
BRANCH  13  18
ATOM     18  C   UNL     1      26.302  22.884  29.699  0.00  0.00    +0.000 C 
ATOM     19  C   UNL     1      26.322  21.584  30.509  0.00  0.00    +0.000 C 
ATOM     20  C   UNL     1      26.442  24.077  30.636  0.00  0.00    +0.000 C 
ENDBRANCH  13  18
TORSDOF 2
ENDMDL
MODEL 5
REMARK VINA RESULT:      -6.4     11.230     14.668
REMARK  Name = 
REMARK  2 active torsions:
REMARK  status: ('A' for Active; 'I' for Inactive)
REMARK    1  A    between atoms: N_4  and  C_5
REMARK    2  A    between atoms: N_17  and  C_18
REMARK                            x       y       z     vdW  Elec       q    Type
REMARK                         _______ _______ _______ _____ _____    ______ ____
ROOT
ATOM      1  C   UNL     1      30.285  21.591  11.837  0.00  0.00    +0.000 A 
ATOM      2  C   UNL     1      29.875  21.506  10.524  0.00  0.00    +0.000 A 
ATOM      3  C   UNL     1      30.717  21.050   9.515  0.00  0.00    +0.000 A 
ATOM      4  C   UNL     1      32.009  20.663   9.804  0.00  0.00    +0.000 A 
ATOM      5  C   UNL     1      32.440  20.741  11.113  0.00  0.00    +0.000 A 
ATOM      6  C   UNL     1      31.582  21.197  12.093  0.00  0.00    +0.000 A 
ATOM      7  C   UNL     1      33.743  20.301  11.115  0.00  0.00    +0.000 A 
ATOM      8  C   UNL     1      34.681  20.158  12.134  0.00  0.00    +0.000 A 
ATOM      9  C   UNL     1      35.943  19.685  11.853  0.00  0.00    +0.000 A 
ATOM     10  C   UNL     1      36.272  19.356  10.577  0.00  0.00    +0.000 A 
ATOM     11  C   UNL     1      35.342  19.499   9.569  0.00  0.00    +0.000 A 
ATOM     12  C   UNL     1      34.063  19.969   9.801  0.00  0.00    +0.000 A 
ATOM     13  N   UNL     1      32.993  20.198   9.026  0.00  0.00    +0.000 N 
ENDROOT
BRANCH   1  17
ATOM     14  C   UNL     1      28.094  23.860  13.982  0.00  0.00    +0.000 C 
ATOM     15  C   UNL     1      29.012  23.428  12.901  0.00  0.00    +0.000 C 
ATOM     16  O   UNL     1      29.475  24.182  12.011  0.00  0.00    +0.000 OA
ATOM     17  N   UNL     1      29.401  22.064  12.858  0.00  0.00    +0.000 NA
ENDBRANCH   1  17
BRANCH  13  18
ATOM     18  C   UNL     1      32.945  19.969   7.583  0.00  0.00    +0.000 C 
ATOM     19  C   UNL     1      33.920  20.985   6.977  0.00  0.00    +0.000 C 
ATOM     20  C   UNL     1      33.471  18.556   7.363  0.00  0.00    +0.000 C 
ENDBRANCH  13  18
TORSDOF 2
ENDMDL
MODEL 6
REMARK VINA RESULT:      -6.3      2.516      4.952
REMARK  Name = 
REMARK  2 active torsions:
REMARK  status: ('A' for Active; 'I' for Inactive)
REMARK    1  A    between atoms: N_4  and  C_5
REMARK    2  A    between atoms: N_17  and  C_18
REMARK                            x       y       z     vdW  Elec       q    Type
REMARK                         _______ _______ _______ _____ _____    ______ ____
ROOT
ATOM      1  C   UNL     1      29.849  23.364  24.534  0.00  0.00    +0.000 A 
ATOM      2  C   UNL     1      31.133  23.216  25.014  0.00  0.00    +0.000 A 
ATOM      3  C   UNL     1      31.398  23.031  26.367  0.00  0.00    +0.000 A 
ATOM      4  C   UNL     1      30.367  22.991  27.283  0.00  0.00    +0.000 A 
ATOM      5  C   UNL     1      29.074  23.139  26.822  0.00  0.00    +0.000 A 
ATOM      6  C   UNL     1      28.841  23.320  25.473  0.00  0.00    +0.000 A 
ATOM      7  C   UNL     1      28.260  23.059  27.928  0.00  0.00    +0.000 A 
ATOM      8  C   UNL     1      26.879  23.137  28.082  0.00  0.00    +0.000 A 
ATOM      9  C   UNL     1      26.312  23.024  29.332  0.00  0.00    +0.000 A 
ATOM     10  C   UNL     1      27.106  22.835  30.418  0.00  0.00    +0.000 A 
ATOM     11  C   UNL     1      28.475  22.758  30.263  0.00  0.00    +0.000 A 
ATOM     12  C   UNL     1      29.090  22.866  29.030  0.00  0.00    +0.000 A 
ATOM     13  N   UNL     1      30.362  22.828  28.610  0.00  0.00    +0.000 N 
ENDROOT
BRANCH   1  17
ATOM     14  C   UNL     1      29.285  24.994  21.131  0.00  0.00    +0.000 C 
ATOM     15  C   UNL     1      29.546  24.860  22.584  0.00  0.00    +0.000 C 
ATOM     16  O   UNL     1      29.725  25.821  23.371  0.00  0.00    +0.000 OA
ATOM     17  N   UNL     1      29.601  23.554  23.137  0.00  0.00    +0.000 NA
ENDBRANCH   1  17
BRANCH  13  18
ATOM     18  C   UNL     1      31.522  22.640  29.481  0.00  0.00    +0.000 C 
ATOM     19  C   UNL     1      32.228  21.387  28.955  0.00  0.00    +0.000 C 
ATOM     20  C   UNL     1      32.410  23.860  29.269  0.00  0.00    +0.000 C 
ENDBRANCH  13  18
TORSDOF 2
ENDMDL
MODEL 7
REMARK VINA RESULT:      -6.3     11.326     15.181
REMARK  Name = 
REMARK  2 active torsions:
REMARK  status: ('A' for Active; 'I' for Inactive)
REMARK    1  A    between atoms: N_4  and  C_5
REMARK    2  A    between atoms: N_17  and  C_18
REMARK                            x       y       z     vdW  Elec       q    Type
REMARK                         _______ _______ _______ _____ _____    ______ ____
ROOT
ATOM      1  C   UNL     1      30.130  21.827  12.007  0.00  0.00    +0.000 A 
ATOM      2  C   UNL     1      31.431  21.927  12.452  0.00  0.00    +0.000 A 
ATOM      3  C   UNL     1      32.512  21.544  11.666  0.00  0.00    +0.000 A 
ATOM      4  C   UNL     1      32.312  21.043  10.396  0.00  0.00    +0.000 A 
ATOM      5  C   UNL     1      31.016  20.934   9.931  0.00  0.00    +0.000 A 
ATOM      6  C   UNL     1      29.963  21.322  10.734  0.00  0.00    +0.000 A 
ATOM      7  C   UNL     1      31.106  20.416   8.661  0.00  0.00    +0.000 A 
ATOM      8  C   UNL     1      30.142  20.091   7.711  0.00  0.00    +0.000 A 
ATOM      9  C   UNL     1      30.515  19.575   6.491  0.00  0.00    +0.000 A 
ATOM     10  C   UNL     1      31.831  19.383   6.213  0.00  0.00    +0.000 A 
ATOM     11  C   UNL     1      32.786  19.705   7.155  0.00  0.00    +0.000 A 
ATOM     12  C   UNL     1      32.460  20.226   8.394  0.00  0.00    +0.000 A 
ATOM     13  N   UNL     1      33.169  20.615   9.463  0.00  0.00    +0.000 N 
ENDROOT
BRANCH   1  17
ATOM     14  C   UNL     1      27.295  23.859  13.551  0.00  0.00    +0.000 C 
ATOM     15  C   UNL     1      28.427  23.499  12.664  0.00  0.00    +0.000 C 
ATOM     16  O   UNL     1      28.895  24.239  11.765  0.00  0.00    +0.000 OA
ATOM     17  N   UNL     1      29.034  22.227  12.834  0.00  0.00    +0.000 NA
ENDBRANCH   1  17
BRANCH  13  18
ATOM     18  C   UNL     1      34.627  20.565   9.560  0.00  0.00    +0.000 C 
ATOM     19  C   UNL     1      35.081  22.026   9.634  0.00  0.00    +0.000 C 
ATOM     20  C   UNL     1      34.938  19.861  10.874  0.00  0.00    +0.000 C 
ENDBRANCH  13  18
TORSDOF 2
ENDMDL
MODEL 8
REMARK VINA RESULT:      -6.3     11.690     14.219
REMARK  Name = 
REMARK  2 active torsions:
REMARK  status: ('A' for Active; 'I' for Inactive)
REMARK    1  A    between atoms: N_4  and  C_5
REMARK    2  A    between atoms: N_17  and  C_18
REMARK                            x       y       z     vdW  Elec       q    Type
REMARK                         _______ _______ _______ _____ _____    ______ ____
ROOT
ATOM      1  C   UNL     1      30.606  21.703  11.419  0.00  0.00    +0.000 A 
ATOM      2  C   UNL     1      30.956  20.481  11.951  0.00  0.00    +0.000 A 
ATOM      3  C   UNL     1      32.277  20.053  12.013  0.00  0.00    +0.000 A 
ATOM      4  C   UNL     1      33.295  20.853  11.536  0.00  0.00    +0.000 A 
ATOM      5  C   UNL     1      32.966  22.082  10.998  0.00  0.00    +0.000 A 
ATOM      6  C   UNL     1      31.645  22.480  10.950  0.00  0.00    +0.000 A 
ATOM      7  C   UNL     1      34.151  22.660  10.608  0.00  0.00    +0.000 A 
ATOM      8  C   UNL     1      34.444  23.882  10.009  0.00  0.00    +0.000 A 
ATOM      9  C   UNL     1      35.747  24.217   9.718  0.00  0.00    +0.000 A 
ATOM     10  C   UNL     1      36.750  23.351  10.017  0.00  0.00    +0.000 A 
ATOM     11  C   UNL     1      36.458  22.141  10.610  0.00  0.00    +0.000 A 
ATOM     12  C   UNL     1      35.166  21.759  10.922  0.00  0.00    +0.000 A 
ATOM     13  N   UNL     1      34.619  20.672  11.484  0.00  0.00    +0.000 N 
ENDROOT
BRANCH   1  17
ATOM     14  C   UNL     1      27.206  23.145  12.376  0.00  0.00    +0.000 C 
ATOM     15  C   UNL     1      28.625  22.732  12.491  0.00  0.00    +0.000 C 
ATOM     16  O   UNL     1      29.335  22.885  13.514  0.00  0.00    +0.000 OA
ATOM     17  N   UNL     1      29.239  22.121  11.365  0.00  0.00    +0.000 NA
ENDBRANCH   1  17
BRANCH  13  18
ATOM     18  C   UNL     1      35.370  19.506  11.948  0.00  0.00    +0.000 C 
ATOM     19  C   UNL     1      36.407  19.228  10.854  0.00  0.00    +0.000 C 
ATOM     20  C   UNL     1      36.075  19.941  13.227  0.00  0.00    +0.000 C 
ENDBRANCH  13  18
TORSDOF 2
ENDMDL
MODEL 9
REMARK VINA RESULT:      -6.3     18.972     20.923
REMARK  Name = 
REMARK  2 active torsions:
REMARK  status: ('A' for Active; 'I' for Inactive)
REMARK    1  A    between atoms: N_4  and  C_5
REMARK    2  A    between atoms: N_17  and  C_18
REMARK                            x       y       z     vdW  Elec       q    Type
REMARK                         _______ _______ _______ _____ _____    ______ ____
ROOT
ATOM      1  C   UNL     1      19.118  10.867  38.026  0.00  0.00    +0.000 A 
ATOM      2  C   UNL     1      19.830   9.794  37.535  0.00  0.00    +0.000 A 
ATOM      3  C   UNL     1      21.210   9.839  37.364  0.00  0.00    +0.000 A 
ATOM      4  C   UNL     1      21.918  10.979  37.687  0.00  0.00    +0.000 A 
ATOM      5  C   UNL     1      21.223  12.064  38.181  0.00  0.00    +0.000 A 
ATOM      6  C   UNL     1      19.853  11.990  38.340  0.00  0.00    +0.000 A 
ATOM      7  C   UNL     1      22.158  13.045  38.415  0.00  0.00    +0.000 A 
ATOM      8  C   UNL     1      22.052  14.342  38.907  0.00  0.00    +0.000 A 
ATOM      9  C   UNL     1      23.174  15.128  39.043  0.00  0.00    +0.000 A 
ATOM     10  C   UNL     1      24.390  14.632  38.696  0.00  0.00    +0.000 A 
ATOM     11  C   UNL     1      24.494  13.346  38.208  0.00  0.00    +0.000 A 
ATOM     12  C   UNL     1      23.397  12.520  38.054  0.00  0.00    +0.000 A 
ATOM     13  N   UNL     1      23.222  11.265  37.616  0.00  0.00    +0.000 N 
ENDROOT
BRANCH   1  17
ATOM     14  C   UNL     1      15.366  11.162  37.400  0.00  0.00    +0.000 C 
ATOM     15  C   UNL     1      16.828  11.260  37.171  0.00  0.00    +0.000 C 
ATOM     16  O   UNL     1      17.361  11.723  36.134  0.00  0.00    +0.000 OA
ATOM     17  N   UNL     1      17.698  10.796  38.193  0.00  0.00    +0.000 NA
ENDBRANCH   1  17
BRANCH  13  18
ATOM     18  C   UNL     1      24.295  10.389  37.148  0.00  0.00    +0.000 C 
ATOM     19  C   UNL     1      24.299   9.198  38.112  0.00  0.00    +0.000 C 
ATOM     20  C   UNL     1      23.882   9.924  35.757  0.00  0.00    +0.000 C 
ENDBRANCH  13  18
TORSDOF 2
ENDMDL
MODEL 10
REMARK VINA RESULT:      -6.3     20.394     22.513
REMARK  Name = 
REMARK  2 active torsions:
REMARK  status: ('A' for Active; 'I' for Inactive)
REMARK    1  A    between atoms: N_4  and  C_5
REMARK    2  A    between atoms: N_17  and  C_18
REMARK                            x       y       z     vdW  Elec       q    Type
REMARK                         _______ _______ _______ _____ _____    ______ ____
ROOT
ATOM      1  C   UNL     1      22.315   9.644  37.852  0.00  0.00    +0.000 A 
ATOM      2  C   UNL     1      21.728   9.768  36.611  0.00  0.00    +0.000 A 
ATOM      3  C   UNL     1      20.348   9.830  36.450  0.00  0.00    +0.000 A 
ATOM      4  C   UNL     1      19.512   9.767  37.546  0.00  0.00    +0.000 A 
ATOM      5  C   UNL     1      20.081   9.642  38.798  0.00  0.00    +0.000 A 
ATOM      6  C   UNL     1      21.454   9.583  38.927  0.00  0.00    +0.000 A 
ATOM      7  C   UNL     1      19.036   9.604  39.692  0.00  0.00    +0.000 A 
ATOM      8  C   UNL     1      18.994   9.489  41.078  0.00  0.00    +0.000 A 
ATOM      9  C   UNL     1      17.785   9.476  41.738  0.00  0.00    +0.000 A 
ATOM     10  C   UNL     1      16.630   9.575  41.030  0.00  0.00    +0.000 A 
ATOM     11  C   UNL     1      16.674   9.689  39.656  0.00  0.00    +0.000 A 
ATOM     12  C   UNL     1      17.862   9.707  38.950  0.00  0.00    +0.000 A 
ATOM     13  N   UNL     1      18.180   9.805  37.652  0.00  0.00    +0.000 N 
ENDROOT
BRANCH   1  17
ATOM     14  C   UNL     1      25.981  10.645  38.190  0.00  0.00    +0.000 C 
ATOM     15  C   UNL     1      24.511  10.772  38.043  0.00  0.00    +0.000 C 
ATOM     16  O   UNL     1      23.891  11.860  37.961  0.00  0.00    +0.000 OA
ATOM     17  N   UNL     1      23.738   9.582  37.993  0.00  0.00    +0.000 NA
ENDBRANCH   1  17
BRANCH  13  18
ATOM     18  C   UNL     1      17.210   9.929  36.563  0.00  0.00    +0.000 C 
ATOM     19  C   UNL     1      17.330  11.377  36.075  0.00  0.00    +0.000 C 
ATOM     20  C   UNL     1      17.679   8.977  35.471  0.00  0.00    +0.000 C 
ENDBRANCH  13  18
TORSDOF 2
ENDMDL
