MODEL 1
REMARK VINA RESULT:      -6.3      0.000      0.000
REMARK  Name = 
REMARK  3 active torsions:
REMARK  status: ('A' for Active; 'I' for Inactive)
REMARK    1  A    between atoms: C_7  and  N_8
REMARK    2  A    between atoms: C_9  and  C_11
REMARK    3  A    between atoms: C_15  and  N_16
REMARK                            x       y       z     vdW  Elec       q    Type
REMARK                         _______ _______ _______ _____ _____    ______ ____
ROOT
ATOM      1  N   UNL     1      28.118  22.637  26.417  0.00  0.00    +0.000 NA
ATOM      2  C   UNL     1      27.417  23.667  25.789  0.00  0.00    +0.000 C 
ATOM      3  O   UNL     1      26.961  24.630  26.488  0.00  0.00    +0.000 OA
ENDROOT
BRANCH   1  10
ATOM      4  C   UNL     1      26.483  21.633  30.915  0.00  0.00    +0.000 C 
ATOM      5  C   UNL     1      27.576  22.096  29.991  0.00  0.00    +0.000 A 
ATOM      6  C   UNL     1      28.746  22.464  30.586  0.00  0.00    +0.000 A 
ATOM      7  C   UNL     1      29.759  22.891  29.761  0.00  0.00    +0.000 A 
ATOM      8  C   UNL     1      29.621  22.959  28.361  0.00  0.00    +0.000 A 
ATOM      9  C   UNL     1      30.667  23.430  27.452  0.00  0.00    +0.000 C 
ATOM     10  C   UNL     1      28.385  22.571  27.811  0.00  0.00    +0.000 A 
ATOM     11  C   UNL     1      27.390  22.148  28.641  0.00  0.00    +0.000 A 
ENDBRANCH   1  10
BRANCH   2  12
ATOM     12  C   UNL     1      27.205  23.707  24.350  0.00  0.00    +0.000 A 
ATOM     13  C   UNL     1      26.060  23.195  23.760  0.00  0.00    +0.000 A 
ATOM     14  C   UNL     1      25.870  23.323  22.368  0.00  0.00    +0.000 A 
ATOM     15  C   UNL     1      26.801  23.940  21.593  0.00  0.00    +0.000 A 
ATOM     16  C   UNL     1      27.965  24.458  22.164  0.00  0.00    +0.000 A 
ATOM     17  C   UNL     1      28.134  24.333  23.504  0.00  0.00    +0.000 A 
ATOM     18  C   UNL     1      29.397  24.911  24.086  0.00  0.00    +0.000 C 
BRANCH  16  19
ATOM     19  N   UNL     1      28.950  25.065  21.317  0.00  0.00    +0.000 N 
ATOM     20  O   UNL     1      29.803  24.399  20.736  0.00  0.00    +0.000 OA
ATOM     21  O   UNL     1      28.897  26.419  21.157  0.00  0.00    +0.000 OA
ENDBRANCH  16  19
ENDBRANCH   2  12
TORSDOF 3
ENDMDL
MODEL 2
REMARK VINA RESULT:      -6.3      3.618      7.800
REMARK  Name = 
REMARK  3 active torsions:
REMARK  status: ('A' for Active; 'I' for Inactive)
REMARK    1  A    between atoms: C_7  and  N_8
REMARK    2  A    between atoms: C_9  and  C_11
REMARK    3  A    between atoms: C_15  and  N_16
REMARK                            x       y       z     vdW  Elec       q    Type
REMARK                         _______ _______ _______ _____ _____    ______ ____
ROOT
ATOM      1  N   UNL     1      30.041  22.081  26.970  0.00  0.00    +0.000 NA
ATOM      2  C   UNL     1      30.648  22.907  27.916  0.00  0.00    +0.000 C 
ATOM      3  O   UNL     1      30.576  24.172  27.781  0.00  0.00    +0.000 OA
ENDROOT
BRANCH   1  10
ATOM      4  C   UNL     1      25.704  23.079  24.944  0.00  0.00    +0.000 C 
ATOM      5  C   UNL     1      27.203  23.008  24.860  0.00  0.00    +0.000 A 
ATOM      6  C   UNL     1      27.753  23.359  23.663  0.00  0.00    +0.000 A 
ATOM      7  C   UNL     1      29.122  23.301  23.562  0.00  0.00    +0.000 A 
ATOM      8  C   UNL     1      29.945  22.898  24.631  0.00  0.00    +0.000 A 
ATOM      9  C   UNL     1      31.404  22.800  24.557  0.00  0.00    +0.000 C 
ATOM     10  C   UNL     1      29.316  22.542  25.838  0.00  0.00    +0.000 A 
ATOM     11  C   UNL     1      27.956  22.606  25.924  0.00  0.00    +0.000 A 
ENDBRANCH   1  10
BRANCH   2  12
ATOM     12  C   UNL     1      31.347  22.383  29.081  0.00  0.00    +0.000 A 
ATOM     13  C   UNL     1      32.623  21.851  28.997  0.00  0.00    +0.000 A 
ATOM     14  C   UNL     1      33.284  21.422  30.166  0.00  0.00    +0.000 A 
ATOM     15  C   UNL     1      32.681  21.520  31.381  0.00  0.00    +0.000 A 
ATOM     16  C   UNL     1      31.393  22.047  31.490  0.00  0.00    +0.000 A 
ATOM     17  C   UNL     1      30.770  22.460  30.358  0.00  0.00    +0.000 A 
ATOM     18  C   UNL     1      29.385  23.031  30.514  0.00  0.00    +0.000 C 
BRANCH  16  19
ATOM     19  N   UNL     1      30.763  22.099  32.777  0.00  0.00    +0.000 N 
ATOM     20  O   UNL     1      30.199  21.121  33.261  0.00  0.00    +0.000 OA
ATOM     21  O   UNL     1      30.831  23.274  33.467  0.00  0.00    +0.000 OA
ENDBRANCH  16  19
ENDBRANCH   2  12
TORSDOF 3
ENDMDL
MODEL 3
REMARK VINA RESULT:      -6.2     24.156     26.436
REMARK  Name = 
REMARK  3 active torsions:
REMARK  status: ('A' for Active; 'I' for Inactive)
REMARK    1  A    between atoms: C_7  and  N_8
REMARK    2  A    between atoms: C_9  and  C_11
REMARK    3  A    between atoms: C_15  and  N_16
REMARK                            x       y       z     vdW  Elec       q    Type
REMARK                         _______ _______ _______ _____ _____    ______ ____
ROOT
ATOM      1  N   UNL     1      34.267  -0.900  34.238  0.00  0.00    +0.000 NA
ATOM      2  C   UNL     1      33.266   0.045  34.456  0.00  0.00    +0.000 C 
ATOM      3  O   UNL     1      32.079  -0.346  34.708  0.00  0.00    +0.000 OA
ENDROOT
BRANCH   1  10
ATOM      4  C   UNL     1      33.116  -5.015  31.860  0.00  0.00    +0.000 C 
ATOM      5  C   UNL     1      33.501  -4.297  33.123  0.00  0.00    +0.000 A 
ATOM      6  C   UNL     1      33.595  -5.066  34.245  0.00  0.00    +0.000 A 
ATOM      7  C   UNL     1      33.945  -4.431  35.411  0.00  0.00    +0.000 A 
ATOM      8  C   UNL     1      34.198  -3.047  35.476  0.00  0.00    +0.000 A 
ATOM      9  C   UNL     1      34.550  -2.330  36.703  0.00  0.00    +0.000 C 
ATOM     10  C   UNL     1      34.077  -2.308  34.285  0.00  0.00    +0.000 A 
ATOM     11  C   UNL     1      33.730  -2.952  33.134  0.00  0.00    +0.000 A 
ENDBRANCH   1  10
BRANCH   2  12
ATOM     12  C   UNL     1      33.522   1.478  34.437  0.00  0.00    +0.000 A 
ATOM     13  C   UNL     1      33.375   2.237  33.287  0.00  0.00    +0.000 A 
ATOM     14  C   UNL     1      33.567   3.633  33.337  0.00  0.00    +0.000 A 
ATOM     15  C   UNL     1      33.901   4.248  34.503  0.00  0.00    +0.000 A 
ATOM     16  C   UNL     1      34.060   3.503  35.673  0.00  0.00    +0.000 A 
ATOM     17  C   UNL     1      33.868   2.161  35.613  0.00  0.00    +0.000 A 
ATOM     18  C   UNL     1      34.040   1.392  36.896  0.00  0.00    +0.000 C 
BRANCH  16  19
ATOM     19  N   UNL     1      34.454   4.170  36.880  0.00  0.00    +0.000 N 
ATOM     20  O   UNL     1      33.628   4.617  37.671  0.00  0.00    +0.000 OA
ATOM     21  O   UNL     1      35.790   4.275  37.136  0.00  0.00    +0.000 OA
ENDBRANCH  16  19
ENDBRANCH   2  12
TORSDOF 3
ENDMDL
MODEL 4
REMARK VINA RESULT:      -6.2     19.119     21.050
REMARK  Name = 
REMARK  3 active torsions:
REMARK  status: ('A' for Active; 'I' for Inactive)
REMARK    1  A    between atoms: C_7  and  N_8
REMARK    2  A    between atoms: C_9  and  C_11
REMARK    3  A    between atoms: C_15  and  N_16
REMARK                            x       y       z     vdW  Elec       q    Type
REMARK                         _______ _______ _______ _____ _____    ______ ____
ROOT
ATOM      1  N   UNL     1      18.797   9.809  37.243  0.00  0.00    +0.000 NA
ATOM      2  C   UNL     1      19.945  10.528  37.572  0.00  0.00    +0.000 C 
ATOM      3  O   UNL     1      19.841  11.748  37.926  0.00  0.00    +0.000 OA
ENDROOT
BRANCH   1  10
ATOM      4  C   UNL     1      15.183  12.131  34.906  0.00  0.00    +0.000 C 
ATOM      5  C   UNL     1      15.734  11.473  36.141  0.00  0.00    +0.000 A 
ATOM      6  C   UNL     1      14.917  11.470  37.232  0.00  0.00    +0.000 A 
ATOM      7  C   UNL     1      15.401  10.874  38.373  0.00  0.00    +0.000 A 
ATOM      8  C   UNL     1      16.679  10.288  38.440  0.00  0.00    +0.000 A 
ATOM      9  C   UNL     1      17.239   9.666  39.641  0.00  0.00    +0.000 C 
ATOM     10  C   UNL     1      17.475  10.331  37.281  0.00  0.00    +0.000 A 
ATOM     11  C   UNL     1      16.983  10.923  36.156  0.00  0.00    +0.000 A 
ENDBRANCH   1  10
BRANCH   2  12
ATOM     12  C   UNL     1      21.274   9.934  37.556  0.00  0.00    +0.000 A 
ATOM     13  C   UNL     1      22.028   9.848  36.397  0.00  0.00    +0.000 A 
ATOM     14  C   UNL     1      23.339   9.328  36.448  0.00  0.00    +0.000 A 
ATOM     15  C   UNL     1      23.873   8.904  37.625  0.00  0.00    +0.000 A 
ATOM     16  C   UNL     1      23.129   8.976  38.804  0.00  0.00    +0.000 A 
ATOM     17  C   UNL     1      21.872   9.482  38.742  0.00  0.00    +0.000 A 
ATOM     18  C   UNL     1      21.104   9.552  40.036  0.00  0.00    +0.000 C 
BRANCH  16  19
ATOM     19  N   UNL     1      23.701   8.482  40.023  0.00  0.00    +0.000 N 
ATOM     20  O   UNL     1      24.389   9.194  40.750  0.00  0.00    +0.000 OA
ATOM     21  O   UNL     1      23.435   7.188  40.367  0.00  0.00    +0.000 OA
ENDBRANCH  16  19
ENDBRANCH   2  12
TORSDOF 3
ENDMDL
MODEL 5
REMARK VINA RESULT:      -6.1     32.429     34.132
REMARK  Name = 
REMARK  3 active torsions:
REMARK  status: ('A' for Active; 'I' for Inactive)
REMARK    1  A    between atoms: C_7  and  N_8
REMARK    2  A    between atoms: C_9  and  C_11
REMARK    3  A    between atoms: C_15  and  N_16
REMARK                            x       y       z     vdW  Elec       q    Type
REMARK                         _______ _______ _______ _____ _____    ______ ____
ROOT
ATOM      1  N   UNL     1      18.587  -9.210  29.610  0.00  0.00    +0.000 NA
ATOM      2  C   UNL     1      18.108  -9.029  28.312  0.00  0.00    +0.000 C 
ATOM      3  O   UNL     1      17.197  -9.801  27.868  0.00  0.00    +0.000 OA
ENDROOT
BRANCH   1  10
ATOM      4  C   UNL     1      15.338 -10.534  33.016  0.00  0.00    +0.000 C 
ATOM      5  C   UNL     1      16.550 -10.830  32.177  0.00  0.00    +0.000 A 
ATOM      6  C   UNL     1      17.144 -12.039  32.389  0.00  0.00    +0.000 A 
ATOM      7  C   UNL     1      18.254 -12.330  31.634  0.00  0.00    +0.000 A 
ATOM      8  C   UNL     1      18.779 -11.438  30.679  0.00  0.00    +0.000 A 
ATOM      9  C   UNL     1      19.972 -11.702  29.872  0.00  0.00    +0.000 C 
ATOM     10  C   UNL     1      18.123 -10.204  30.513  0.00  0.00    +0.000 A 
ATOM     11  C   UNL     1      17.022  -9.929  31.268  0.00  0.00    +0.000 A 
ENDBRANCH   1  10
BRANCH   2  12
ATOM     12  C   UNL     1      18.589  -7.968  27.440  0.00  0.00    +0.000 A 
ATOM     13  C   UNL     1      17.974  -6.728  27.381  0.00  0.00    +0.000 A 
ATOM     14  C   UNL     1      18.522  -5.710  26.572  0.00  0.00    +0.000 A 
ATOM     15  C   UNL     1      19.648  -5.931  25.843  0.00  0.00    +0.000 A 
ATOM     16  C   UNL     1      20.281  -7.175  25.882  0.00  0.00    +0.000 A 
ATOM     17  C   UNL     1      19.748  -8.144  26.667  0.00  0.00    +0.000 A 
ATOM     18  C   UNL     1      20.462  -9.469  26.691  0.00  0.00    +0.000 C 
BRANCH  16  19
ATOM     19  N   UNL     1      21.443  -7.395  25.070  0.00  0.00    +0.000 N 
ATOM     20  O   UNL     1      21.400  -8.087  24.056  0.00  0.00    +0.000 OA
ATOM     21  O   UNL     1      22.604  -6.787  25.450  0.00  0.00    +0.000 OA
ENDBRANCH  16  19
ENDBRANCH   2  12
TORSDOF 3
ENDMDL
MODEL 6
REMARK VINA RESULT:      -6.1      3.019      4.086
REMARK  Name = 
REMARK  3 active torsions:
REMARK  status: ('A' for Active; 'I' for Inactive)
REMARK    1  A    between atoms: C_7  and  N_8
REMARK    2  A    between atoms: C_9  and  C_11
REMARK    3  A    between atoms: C_15  and  N_16
REMARK                            x       y       z     vdW  Elec       q    Type
REMARK                         _______ _______ _______ _____ _____    ______ ____
ROOT
ATOM      1  N   UNL     1      30.860  24.402  25.658  0.00  0.00    +0.000 NA
ATOM      2  C   UNL     1      30.621  23.705  24.474  0.00  0.00    +0.000 C 
ATOM      3  O   UNL     1      31.332  22.686  24.191  0.00  0.00    +0.000 OA
ENDROOT
BRANCH   1  10
ATOM      4  C   UNL     1      32.068  21.861  29.658  0.00  0.00    +0.000 C 
ATOM      5  C   UNL     1      32.424  22.831  28.566  0.00  0.00    +0.000 A 
ATOM      6  C   UNL     1      33.686  23.345  28.609  0.00  0.00    +0.000 A 
ATOM      7  C   UNL     1      34.033  24.234  27.621  0.00  0.00    +0.000 A 
ATOM      8  C   UNL     1      33.144  24.618  26.598  0.00  0.00    +0.000 A 
ATOM      9  C   UNL     1      33.468  25.579  25.543  0.00  0.00    +0.000 C 
ATOM     10  C   UNL     1      31.854  24.057  26.614  0.00  0.00    +0.000 A 
ATOM     11  C   UNL     1      31.524  23.175  27.600  0.00  0.00    +0.000 A 
ENDBRANCH   1  10
BRANCH   2  12
ATOM     12  C   UNL     1      29.562  24.077  23.547  0.00  0.00    +0.000 A 
ATOM     13  C   UNL     1      29.812  24.819  22.403  0.00  0.00    +0.000 A 
ATOM     14  C   UNL     1      28.763  25.092  21.500  0.00  0.00    +0.000 A 
ATOM     15  C   UNL     1      27.504  24.639  21.739  0.00  0.00    +0.000 A 
ATOM     16  C   UNL     1      27.228  23.894  22.887  0.00  0.00    +0.000 A 
ATOM     17  C   UNL     1      28.245  23.634  23.745  0.00  0.00    +0.000 A 
ATOM     18  C   UNL     1      27.912  22.821  24.969  0.00  0.00    +0.000 C 
BRANCH  16  19
ATOM     19  N   UNL     1      25.882  23.465  23.137  0.00  0.00    +0.000 N 
ATOM     20  O   UNL     1      25.323  22.640  22.418  0.00  0.00    +0.000 OA
ATOM     21  O   UNL     1      25.242  23.990  24.222  0.00  0.00    +0.000 OA
ENDBRANCH  16  19
ENDBRANCH   2  12
TORSDOF 3
ENDMDL
MODEL 7
REMARK VINA RESULT:      -6.1     20.930     23.448
REMARK  Name = 
REMARK  3 active torsions:
REMARK  status: ('A' for Active; 'I' for Inactive)
REMARK    1  A    between atoms: C_7  and  N_8
REMARK    2  A    between atoms: C_9  and  C_11
REMARK    3  A    between atoms: C_15  and  N_16
REMARK                            x       y       z     vdW  Elec       q    Type
REMARK                         _______ _______ _______ _____ _____    ______ ____
ROOT
ATOM      1  N   UNL     1      35.630   5.176  35.628  0.00  0.00    +0.000 NA
ATOM      2  C   UNL     1      34.323   4.704  35.510  0.00  0.00    +0.000 C 
ATOM      3  O   UNL     1      33.359   5.411  35.952  0.00  0.00    +0.000 OA
ENDROOT
BRANCH   1  10
ATOM      4  C   UNL     1      36.261   9.992  35.057  0.00  0.00    +0.000 C 
ATOM      5  C   UNL     1      36.310   8.757  35.913  0.00  0.00    +0.000 A 
ATOM      6  C   UNL     1      36.749   8.932  37.192  0.00  0.00    +0.000 A 
ATOM      7  C   UNL     1      36.803   7.817  37.993  0.00  0.00    +0.000 A 
ATOM      8  C   UNL     1      36.430   6.538  37.539  0.00  0.00    +0.000 A 
ATOM      9  C   UNL     1      36.496   5.323  38.353  0.00  0.00    +0.000 C 
ATOM     10  C   UNL     1      35.992   6.423  36.207  0.00  0.00    +0.000 A 
ATOM     11  C   UNL     1      35.942   7.538  35.424  0.00  0.00    +0.000 A 
ENDBRANCH   1  10
BRANCH   2  12
ATOM     12  C   UNL     1      34.003   3.436  34.871  0.00  0.00    +0.000 A 
ATOM     13  C   UNL     1      33.841   3.322  33.500  0.00  0.00    +0.000 A 
ATOM     14  C   UNL     1      33.602   2.057  32.923  0.00  0.00    +0.000 A 
ATOM     15  C   UNL     1      33.522   0.943  33.699  0.00  0.00    +0.000 A 
ATOM     16  C   UNL     1      33.675   1.035  35.083  0.00  0.00    +0.000 A 
ATOM     17  C   UNL     1      33.910   2.256  35.625  0.00  0.00    +0.000 A 
ATOM     18  C   UNL     1      34.078   2.314  37.121  0.00  0.00    +0.000 C 
BRANCH  16  19
ATOM     19  N   UNL     1      33.543  -0.149  35.882  0.00  0.00    +0.000 N 
ATOM     20  O   UNL     1      32.461  -0.497  36.348  0.00  0.00    +0.000 OA
ATOM     21  O   UNL     1      34.664  -0.898  36.092  0.00  0.00    +0.000 OA
ENDBRANCH  16  19
ENDBRANCH   2  12
TORSDOF 3
ENDMDL
MODEL 8
REMARK VINA RESULT:      -6.0      2.962      4.119
REMARK  Name = 
REMARK  3 active torsions:
REMARK  status: ('A' for Active; 'I' for Inactive)
REMARK    1  A    between atoms: C_7  and  N_8
REMARK    2  A    between atoms: C_9  and  C_11
REMARK    3  A    between atoms: C_15  and  N_16
REMARK                            x       y       z     vdW  Elec       q    Type
REMARK                         _______ _______ _______ _____ _____    ______ ____
ROOT
ATOM      1  N   UNL     1      29.031  23.241  29.304  0.00  0.00    +0.000 NA
ATOM      2  C   UNL     1      27.761  22.739  29.022  0.00  0.00    +0.000 C 
ATOM      3  O   UNL     1      27.436  21.582  29.447  0.00  0.00    +0.000 OA
ENDROOT
BRANCH   1  10
ATOM      4  C   UNL     1      30.468  21.468  33.629  0.00  0.00    +0.000 C 
ATOM      5  C   UNL     1      30.717  21.715  32.167  0.00  0.00    +0.000 A 
ATOM      6  C   UNL     1      31.920  21.294  31.685  0.00  0.00    +0.000 A 
ATOM      7  C   UNL     1      32.170  21.511  30.351  0.00  0.00    +0.000 A 
ATOM      8  C   UNL     1      31.244  22.140  29.498  0.00  0.00    +0.000 A 
ATOM      9  C   UNL     1      31.482  22.411  28.079  0.00  0.00    +0.000 C 
ATOM     10  C   UNL     1      30.023  22.558  30.059  0.00  0.00    +0.000 A 
ATOM     11  C   UNL     1      29.788  22.335  31.383  0.00  0.00    +0.000 A 
ENDBRANCH   1  10
BRANCH   2  12
ATOM     12  C   UNL     1      26.766  23.496  28.277  0.00  0.00    +0.000 A 
ATOM     13  C   UNL     1      25.858  24.335  28.904  0.00  0.00    +0.000 A 
ATOM     14  C   UNL     1      24.961  25.101  28.132  0.00  0.00    +0.000 A 
ATOM     15  C   UNL     1      24.971  25.025  26.774  0.00  0.00    +0.000 A 
ATOM     16  C   UNL     1      25.873  24.183  26.121  0.00  0.00    +0.000 A 
ATOM     17  C   UNL     1      26.734  23.455  26.875  0.00  0.00    +0.000 A 
ATOM     18  C   UNL     1      27.698  22.564  26.135  0.00  0.00    +0.000 C 
BRANCH  16  19
ATOM     19  N   UNL     1      25.834  24.090  24.690  0.00  0.00    +0.000 N 
ATOM     20  O   UNL     1      25.187  23.217  24.117  0.00  0.00    +0.000 OA
ATOM     21  O   UNL     1      26.526  25.025  23.977  0.00  0.00    +0.000 OA
ENDBRANCH  16  19
ENDBRANCH   2  12
TORSDOF 3
ENDMDL
MODEL 9
REMARK VINA RESULT:      -6.0     31.620     33.138
REMARK  Name = 
REMARK  3 active torsions:
REMARK  status: ('A' for Active; 'I' for Inactive)
REMARK    1  A    between atoms: C_7  and  N_8
REMARK    2  A    between atoms: C_9  and  C_11
REMARK    3  A    between atoms: C_15  and  N_16
REMARK                            x       y       z     vdW  Elec       q    Type
REMARK                         _______ _______ _______ _____ _____    ______ ____
ROOT
ATOM      1  N   UNL     1      22.776  -7.967  25.281  0.00  0.00    +0.000 NA
ATOM      2  C   UNL     1      21.449  -7.933  24.852  0.00  0.00    +0.000 C 
ATOM      3  O   UNL     1      21.152  -8.389  23.699  0.00  0.00    +0.000 OA
ENDROOT
BRANCH   1  10
ATOM      4  C   UNL     1      25.374 -11.880  23.921  0.00  0.00    +0.000 C 
ATOM      5  C   UNL     1      25.122 -10.399  23.885  0.00  0.00    +0.000 A 
ATOM      6  C   UNL     1      26.000  -9.660  23.148  0.00  0.00    +0.000 A 
ATOM      7  C   UNL     1      25.789  -8.303  23.102  0.00  0.00    +0.000 A 
ATOM      8  C   UNL     1      24.725  -7.676  23.777  0.00  0.00    +0.000 A 
ATOM      9  C   UNL     1      24.481  -6.232  23.771  0.00  0.00    +0.000 C 
ATOM     10  C   UNL     1      23.858  -8.494  24.525  0.00  0.00    +0.000 A 
ATOM     11  C   UNL     1      24.078  -9.839  24.562  0.00  0.00    +0.000 A 
ENDBRANCH   1  10
BRANCH   2  12
ATOM     12  C   UNL     1      20.370  -7.419  25.681  0.00  0.00    +0.000 A 
ATOM     13  C   UNL     1      20.020  -6.078  25.688  0.00  0.00    +0.000 A 
ATOM     14  C   UNL     1      18.921  -5.642  26.456  0.00  0.00    +0.000 A 
ATOM     15  C   UNL     1      18.197  -6.524  27.198  0.00  0.00    +0.000 A 
ATOM     16  C   UNL     1      18.534  -7.879  27.211  0.00  0.00    +0.000 A 
ATOM     17  C   UNL     1      19.591  -8.285  26.464  0.00  0.00    +0.000 A 
ATOM     18  C   UNL     1      19.920  -9.755  26.496  0.00  0.00    +0.000 C 
BRANCH  16  19
ATOM     19  N   UNL     1      17.781  -8.779  28.035  0.00  0.00    +0.000 N 
ATOM     20  O   UNL     1      18.101  -9.012  29.198  0.00  0.00    +0.000 OA
ATOM     21  O   UNL     1      16.674  -9.360  27.488  0.00  0.00    +0.000 OA
ENDBRANCH  16  19
ENDBRANCH   2  12
TORSDOF 3
ENDMDL
MODEL 10
REMARK VINA RESULT:      -6.0      2.858      7.151
REMARK  Name = 
REMARK  3 active torsions:
REMARK  status: ('A' for Active; 'I' for Inactive)
REMARK    1  A    between atoms: C_7  and  N_8
REMARK    2  A    between atoms: C_9  and  C_11
REMARK    3  A    between atoms: C_15  and  N_16
REMARK                            x       y       z     vdW  Elec       q    Type
REMARK                         _______ _______ _______ _____ _____    ______ ____
ROOT
ATOM      1  N   UNL     1      27.781  25.171  25.320  0.00  0.00    +0.000 NA
ATOM      2  C   UNL     1      26.608  24.632  25.848  0.00  0.00    +0.000 C 
ATOM      3  O   UNL     1      25.757  24.095  25.065  0.00  0.00    +0.000 OA
ENDROOT
BRANCH   1  10
ATOM      4  C   UNL     1      27.520  27.377  20.963  0.00  0.00    +0.000 C 
ATOM      5  C   UNL     1      27.980  26.237  21.828  0.00  0.00    +0.000 A 
ATOM      6  C   UNL     1      28.670  25.246  21.195  0.00  0.00    +0.000 A 
ATOM      7  C   UNL     1      29.100  24.192  21.966  0.00  0.00    +0.000 A 
ATOM      8  C   UNL     1      28.850  24.113  23.350  0.00  0.00    +0.000 A 
ATOM      9  C   UNL     1      29.270  22.997  24.200  0.00  0.00    +0.000 C 
ATOM     10  C   UNL     1      28.127  25.164  23.941  0.00  0.00    +0.000 A 
ATOM     11  C   UNL     1      27.708  26.204  23.165  0.00  0.00    +0.000 A 
ENDBRANCH   1  10
BRANCH   2  12
ATOM     12  C   UNL     1      26.319  24.629  27.274  0.00  0.00    +0.000 A 
ATOM     13  C   UNL     1      25.590  25.639  27.880  0.00  0.00    +0.000 A 
ATOM     14  C   UNL     1      25.277  25.553  29.253  0.00  0.00    +0.000 A 
ATOM     15  C   UNL     1      25.686  24.489  29.994  0.00  0.00    +0.000 A 
ATOM     16  C   UNL     1      26.427  23.462  29.406  0.00  0.00    +0.000 A 
ATOM     17  C   UNL     1      26.718  23.555  28.085  0.00  0.00    +0.000 A 
ATOM     18  C   UNL     1      27.512  22.425  27.484  0.00  0.00    +0.000 C 
BRANCH  16  19
ATOM     19  N   UNL     1      26.884  22.374  30.221  0.00  0.00    +0.000 N 
ATOM     20  O   UNL     1      28.049  22.295  30.602  0.00  0.00    +0.000 OA
ATOM     21  O   UNL     1      25.968  21.428  30.583  0.00  0.00    +0.000 OA
ENDBRANCH  16  19
ENDBRANCH   2  12
TORSDOF 3
ENDMDL
