MODEL 1
REMARK VINA RESULT:      -7.0      0.000      0.000
REMARK  Name = 
REMARK  2 active torsions:
REMARK  status: ('A' for Active; 'I' for Inactive)
REMARK    1  A    between atoms: C_2  and  C_3
REMARK    2  A    between atoms: C_19  and  O_20
REMARK                            x       y       z     vdW  Elec       q    Type
REMARK                         _______ _______ _______ _____ _____    ______ ____
ROOT
ATOM      1  C   UNL     1      30.668  24.160  26.327  0.00  0.00    +0.000 C 
ATOM      2  O   UNL     1      30.778  24.684  27.614  0.00  0.00    +0.000 OA
ATOM      3  C   UNL     1      30.853  22.680  26.284  0.00  0.00    +0.000 C 
ATOM      4  C   UNL     1      30.256  22.327  25.018  0.00  0.00    +0.000 C 
ATOM      5  C   UNL     1      28.944  23.256  24.838  0.00  0.00    +0.000 C 
ATOM      6  C   UNL     1      28.037  22.409  25.992  0.00  0.00    +0.000 C 
ATOM      7  C   UNL     1      28.789  22.803  27.329  0.00  0.00    +0.000 C 
ATOM      8  C   UNL     1      27.898  22.088  28.354  0.00  0.00    +0.000 C 
ATOM      9  C   UNL     1      26.905  23.181  28.529  0.00  0.00    +0.000 A 
ATOM     10  C   UNL     1      26.598  23.589  29.795  0.00  0.00    +0.000 A 
ATOM     11  C   UNL     1      25.694  24.634  29.966  0.00  0.00    +0.000 A 
ATOM     12  O   UNL     1      25.354  25.082  31.253  0.00  0.00    +0.000 OA
ATOM     13  C   UNL     1      25.147  25.210  28.850  0.00  0.00    +0.000 A 
ATOM     14  C   UNL     1      25.509  24.738  27.603  0.00  0.00    +0.000 A 
ATOM     15  C   UNL     1      26.387  23.722  27.407  0.00  0.00    +0.000 A 
ATOM     16  C   UNL     1      26.641  23.310  25.977  0.00  0.00    +0.000 C 
ATOM     17  C   UNL     1      27.208  24.720  25.221  0.00  0.00    +0.000 C 
ATOM     18  C   UNL     1      28.305  25.152  26.357  0.00  0.00    +0.000 C 
ATOM     19  C   UNL     1      29.477  24.522  25.691  0.00  0.00    +0.000 C 
ATOM     20  C   UNL     1      29.764  25.477  24.508  0.00  0.00    +0.000 C 
ENDROOT
BRANCH   1  22
ATOM     21  C   UNL     1      32.823  25.164  25.044  0.00  0.00    +0.000 C 
ATOM     22  C   UNL     1      31.852  24.722  25.611  0.00  0.00    +0.000 C 
ENDBRANCH   1  22
BRANCH  17  23
ATOM     23  O   UNL     1      26.114  25.628  25.644  0.00  0.00    +0.000 OA
ATOM     24  C   UNL     1      26.167  26.643  24.641  0.00  0.00    +0.000 C 
ENDBRANCH  17  23
TORSDOF 2
ENDMDL
MODEL 2
REMARK VINA RESULT:      -6.9      2.073      3.879
REMARK  Name = 
REMARK  2 active torsions:
REMARK  status: ('A' for Active; 'I' for Inactive)
REMARK    1  A    between atoms: C_2  and  C_3
REMARK    2  A    between atoms: C_19  and  O_20
REMARK                            x       y       z     vdW  Elec       q    Type
REMARK                         _______ _______ _______ _____ _____    ______ ____
ROOT
ATOM      1  C   UNL     1      29.213  26.065  23.294  0.00  0.00    +0.000 C 
ATOM      2  O   UNL     1      30.249  26.363  24.178  0.00  0.00    +0.000 OA
ATOM      3  C   UNL     1      29.626  25.134  22.204  0.00  0.00    +0.000 C 
ATOM      4  C   UNL     1      28.362  24.623  21.733  0.00  0.00    +0.000 C 
ATOM      5  C   UNL     1      27.421  24.413  23.032  0.00  0.00    +0.000 C 
ATOM      6  C   UNL     1      28.263  23.045  23.571  0.00  0.00    +0.000 C 
ATOM      7  C   UNL     1      29.644  23.683  24.011  0.00  0.00    +0.000 C 
ATOM      8  C   UNL     1      30.347  22.436  24.564  0.00  0.00    +0.000 C 
ATOM      9  C   UNL     1      29.808  22.520  25.948  0.00  0.00    +0.000 A 
ATOM     10  C   UNL     1      30.681  22.451  26.995  0.00  0.00    +0.000 A 
ATOM     11  C   UNL     1      30.189  22.561  28.293  0.00  0.00    +0.000 A 
ATOM     12  O   UNL     1      31.056  22.496  29.395  0.00  0.00    +0.000 OA
ATOM     13  C   UNL     1      28.840  22.735  28.464  0.00  0.00    +0.000 A 
ATOM     14  C   UNL     1      28.023  22.793  27.351  0.00  0.00    +0.000 A 
ATOM     15  C   UNL     1      28.476  22.689  26.076  0.00  0.00    +0.000 A 
ATOM     16  C   UNL     1      27.439  22.738  24.980  0.00  0.00    +0.000 C 
ATOM     17  C   UNL     1      26.660  24.231  25.198  0.00  0.00    +0.000 C 
ATOM     18  C   UNL     1      28.001  25.156  25.361  0.00  0.00    +0.000 C 
ATOM     19  C   UNL     1      28.068  25.586  23.938  0.00  0.00    +0.000 C 
ATOM     20  C   UNL     1      26.915  26.611  23.826  0.00  0.00    +0.000 C 
ENDROOT
BRANCH   1  22
ATOM     21  C   UNL     1      28.742  28.419  22.053  0.00  0.00    +0.000 C 
ATOM     22  C   UNL     1      28.941  27.366  22.613  0.00  0.00    +0.000 C 
ENDBRANCH   1  22
BRANCH  17  23
ATOM     23  O   UNL     1      26.341  24.083  26.639  0.00  0.00    +0.000 OA
ATOM     24  C   UNL     1      25.114  24.805  26.747  0.00  0.00    +0.000 C 
ENDBRANCH  17  23
TORSDOF 2
ENDMDL
MODEL 3
REMARK VINA RESULT:      -6.7      1.942      5.616
REMARK  Name = 
REMARK  2 active torsions:
REMARK  status: ('A' for Active; 'I' for Inactive)
REMARK    1  A    between atoms: C_2  and  C_3
REMARK    2  A    between atoms: C_19  and  O_20
REMARK                            x       y       z     vdW  Elec       q    Type
REMARK                         _______ _______ _______ _____ _____    ______ ____
ROOT
ATOM      1  C   UNL     1      27.176  25.023  28.886  0.00  0.00    +0.000 C 
ATOM      2  O   UNL     1      27.052  25.921  27.826  0.00  0.00    +0.000 OA
ATOM      3  C   UNL     1      26.069  24.025  28.936  0.00  0.00    +0.000 C 
ATOM      4  C   UNL     1      26.627  22.979  29.758  0.00  0.00    +0.000 C 
ATOM      5  C   UNL     1      28.188  22.839  29.353  0.00  0.00    +0.000 C 
ATOM      6  C   UNL     1      27.859  22.091  27.868  0.00  0.00    +0.000 C 
ATOM      7  C   UNL     1      27.203  23.282  27.057  0.00  0.00    +0.000 C 
ATOM      8  C   UNL     1      26.994  22.595  25.701  0.00  0.00    +0.000 C 
ATOM      9  C   UNL     1      28.340  22.885  25.138  0.00  0.00    +0.000 A 
ATOM     10  C   UNL     1      28.422  23.448  23.897  0.00  0.00    +0.000 A 
ATOM     11  C   UNL     1      29.677  23.753  23.376  0.00  0.00    +0.000 A 
ATOM     12  O   UNL     1      29.802  24.333  22.103  0.00  0.00    +0.000 OA
ATOM     13  C   UNL     1      30.781  23.472  24.136  0.00  0.00    +0.000 A 
ATOM     14  C   UNL     1      30.613  22.901  25.383  0.00  0.00    +0.000 A 
ATOM     15  C   UNL     1      29.403  22.594  25.915  0.00  0.00    +0.000 A 
ATOM     16  C   UNL     1      29.404  21.940  27.276  0.00  0.00    +0.000 C 
ATOM     17  C   UNL     1      30.215  23.045  28.278  0.00  0.00    +0.000 C 
ATOM     18  C   UNL     1      29.415  24.395  27.807  0.00  0.00    +0.000 C 
ATOM     19  C   UNL     1      28.417  24.378  28.911  0.00  0.00    +0.000 C 
ATOM     20  C   UNL     1      29.241  24.837  30.137  0.00  0.00    +0.000 C 
ENDROOT
BRANCH   1  22
ATOM     21  C   UNL     1      26.821  26.575  31.069  0.00  0.00    +0.000 C 
ATOM     22  C   UNL     1      26.989  25.875  30.098  0.00  0.00    +0.000 C 
ENDBRANCH   1  22
BRANCH  17  23
ATOM     23  O   UNL     1      31.425  23.226  27.440  0.00  0.00    +0.000 OA
ATOM     24  C   UNL     1      32.387  23.662  28.401  0.00  0.00    +0.000 C 
ENDBRANCH  17  23
TORSDOF 2
ENDMDL
MODEL 4
REMARK VINA RESULT:      -6.5      1.529      2.070
REMARK  Name = 
REMARK  2 active torsions:
REMARK  status: ('A' for Active; 'I' for Inactive)
REMARK    1  A    between atoms: C_2  and  C_3
REMARK    2  A    between atoms: C_19  and  O_20
REMARK                            x       y       z     vdW  Elec       q    Type
REMARK                         _______ _______ _______ _____ _____    ______ ____
ROOT
ATOM      1  C   UNL     1      30.825  24.185  27.314  0.00  0.00    +0.000 C 
ATOM      2  O   UNL     1      30.374  25.387  27.857  0.00  0.00    +0.000 OA
ATOM      3  C   UNL     1      30.881  23.080  28.314  0.00  0.00    +0.000 C 
ATOM      4  C   UNL     1      30.907  21.903  27.479  0.00  0.00    +0.000 C 
ATOM      5  C   UNL     1      29.911  22.183  26.235  0.00  0.00    +0.000 C 
ATOM      6  C   UNL     1      28.505  22.018  27.167  0.00  0.00    +0.000 C 
ATOM      7  C   UNL     1      28.587  23.307  28.084  0.00  0.00    +0.000 C 
ATOM      8  C   UNL     1      27.266  23.167  28.853  0.00  0.00    +0.000 C 
ATOM      9  C   UNL     1      26.402  23.864  27.862  0.00  0.00    +0.000 A 
ATOM     10  C   UNL     1      25.583  24.865  28.298  0.00  0.00    +0.000 A 
ATOM     11  C   UNL     1      24.794  25.543  27.372  0.00  0.00    +0.000 A 
ATOM     12  O   UNL     1      23.939  26.579  27.783  0.00  0.00    +0.000 OA
ATOM     13  C   UNL     1      24.876  25.175  26.055  0.00  0.00    +0.000 A 
ATOM     14  C   UNL     1      25.730  24.150  25.695  0.00  0.00    +0.000 A 
ATOM     15  C   UNL     1      26.509  23.472  26.576  0.00  0.00    +0.000 A 
ATOM     16  C   UNL     1      27.357  22.357  26.014  0.00  0.00    +0.000 C 
ATOM     17  C   UNL     1      28.327  23.108  24.842  0.00  0.00    +0.000 C 
ATOM     18  C   UNL     1      28.810  24.387  25.743  0.00  0.00    +0.000 C 
ATOM     19  C   UNL     1      30.098  23.788  26.188  0.00  0.00    +0.000 C 
ATOM     20  C   UNL     1      30.979  23.869  24.919  0.00  0.00    +0.000 C 
ENDROOT
BRANCH   1  22
ATOM     21  C   UNL     1      33.398  24.713  26.681  0.00  0.00    +0.000 C 
ATOM     22  C   UNL     1      32.249  24.465  26.963  0.00  0.00    +0.000 C 
ENDBRANCH   1  22
BRANCH  17  23
ATOM     23  O   UNL     1      27.245  23.789  24.091  0.00  0.00    +0.000 OA
ATOM     24  C   UNL     1      27.796  23.858  22.775  0.00  0.00    +0.000 C 
ENDBRANCH  17  23
TORSDOF 2
ENDMDL
MODEL 5
REMARK VINA RESULT:      -6.4      1.815      5.518
REMARK  Name = 
REMARK  2 active torsions:
REMARK  status: ('A' for Active; 'I' for Inactive)
REMARK    1  A    between atoms: C_2  and  C_3
REMARK    2  A    between atoms: C_19  and  O_20
REMARK                            x       y       z     vdW  Elec       q    Type
REMARK                         _______ _______ _______ _____ _____    ______ ____
ROOT
ATOM      1  C   UNL     1      26.766  25.148  24.983  0.00  0.00    +0.000 C 
ATOM      2  O   UNL     1      27.639  25.950  24.248  0.00  0.00    +0.000 OA
ATOM      3  C   UNL     1      26.354  23.915  24.253  0.00  0.00    +0.000 C 
ATOM      4  C   UNL     1      25.877  23.066  25.318  0.00  0.00    +0.000 C 
ATOM      5  C   UNL     1      26.862  23.292  26.582  0.00  0.00    +0.000 C 
ATOM      6  C   UNL     1      28.147  22.433  25.889  0.00  0.00    +0.000 C 
ATOM      7  C   UNL     1      28.566  23.399  24.707  0.00  0.00    +0.000 C 
ATOM      8  C   UNL     1      29.776  22.632  24.155  0.00  0.00    +0.000 C 
ATOM      9  C   UNL     1      30.796  23.218  25.065  0.00  0.00    +0.000 A 
ATOM     10  C   UNL     1      31.935  23.738  24.522  0.00  0.00    +0.000 A 
ATOM     11  C   UNL     1      32.881  24.318  25.364  0.00  0.00    +0.000 A 
ATOM     12  O   UNL     1      34.065  24.864  24.842  0.00  0.00    +0.000 OA
ATOM     13  C   UNL     1      32.625  24.341  26.710  0.00  0.00    +0.000 A 
ATOM     14  C   UNL     1      31.448  23.792  27.181  0.00  0.00    +0.000 A 
ATOM     15  C   UNL     1      30.510  23.221  26.384  0.00  0.00    +0.000 A 
ATOM     16  C   UNL     1      29.298  22.638  27.070  0.00  0.00    +0.000 C 
ATOM     17  C   UNL     1      28.621  23.943  27.919  0.00  0.00    +0.000 C 
ATOM     18  C   UNL     1      28.663  25.040  26.705  0.00  0.00    +0.000 C 
ATOM     19  C   UNL     1      27.262  24.824  26.250  0.00  0.00    +0.000 C 
ATOM     20  C   UNL     1      26.424  25.513  27.352  0.00  0.00    +0.000 C 
ENDROOT
BRANCH   1  22
ATOM     21  C   UNL     1      24.534  26.658  25.180  0.00  0.00    +0.000 C 
ATOM     22  C   UNL     1      25.527  25.973  25.087  0.00  0.00    +0.000 C 
ENDBRANCH   1  22
BRANCH  17  23
ATOM     23  O   UNL     1      29.848  24.380  28.628  0.00  0.00    +0.000 OA
ATOM     24  C   UNL     1      29.309  25.112  29.728  0.00  0.00    +0.000 C 
ENDBRANCH  17  23
TORSDOF 2
ENDMDL
MODEL 6
REMARK VINA RESULT:      -6.2      1.855      5.619
REMARK  Name = 
REMARK  2 active torsions:
REMARK  status: ('A' for Active; 'I' for Inactive)
REMARK    1  A    between atoms: C_2  and  C_3
REMARK    2  A    between atoms: C_19  and  O_20
REMARK                            x       y       z     vdW  Elec       q    Type
REMARK                         _______ _______ _______ _____ _____    ______ ____
ROOT
ATOM      1  C   UNL     1      26.282  26.827  26.136  0.00  0.00    +0.000 C 
ATOM      2  O   UNL     1      27.535  27.383  25.883  0.00  0.00    +0.000 OA
ATOM      3  C   UNL     1      25.442  26.703  24.910  0.00  0.00    +0.000 C 
ATOM      4  C   UNL     1      24.455  25.727  25.304  0.00  0.00    +0.000 C 
ATOM      5  C   UNL     1      25.216  24.620  26.205  0.00  0.00    +0.000 C 
ATOM      6  C   UNL     1      26.014  23.918  24.885  0.00  0.00    +0.000 C 
ATOM      7  C   UNL     1      27.026  25.068  24.485  0.00  0.00    +0.000 C 
ATOM      8  C   UNL     1      27.781  24.369  23.346  0.00  0.00    +0.000 C 
ATOM      9  C   UNL     1      28.803  23.692  24.189  0.00  0.00    +0.000 A 
ATOM     10  C   UNL     1      30.119  23.828  23.856  0.00  0.00    +0.000 A 
ATOM     11  C   UNL     1      31.084  23.224  24.659  0.00  0.00    +0.000 A 
ATOM     12  O   UNL     1      32.449  23.341  24.349  0.00  0.00    +0.000 OA
ATOM     13  C   UNL     1      30.666  22.515  25.755  0.00  0.00    +0.000 A 
ATOM     14  C   UNL     1      29.314  22.425  26.022  0.00  0.00    +0.000 A 
ATOM     15  C   UNL     1      28.353  23.002  25.258  0.00  0.00    +0.000 A 
ATOM     16  C   UNL     1      26.921  22.772  25.676  0.00  0.00    +0.000 C 
ATOM     17  C   UNL     1      26.839  23.372  27.262  0.00  0.00    +0.000 C 
ATOM     18  C   UNL     1      27.595  24.800  26.995  0.00  0.00    +0.000 C 
ATOM     19  C   UNL     1      26.355  25.601  26.804  0.00  0.00    +0.000 C 
ATOM     20  C   UNL     1      25.797  25.732  28.241  0.00  0.00    +0.000 C 
ENDROOT
BRANCH   1  22
ATOM     21  C   UNL     1      25.038  28.698  27.636  0.00  0.00    +0.000 C 
ATOM     22  C   UNL     1      25.599  27.856  26.975  0.00  0.00    +0.000 C 
ENDBRANCH   1  22
BRANCH  17  23
ATOM     23  O   UNL     1      27.997  22.632  27.817  0.00  0.00    +0.000 OA
ATOM     24  C   UNL     1      27.687  22.599  29.211  0.00  0.00    +0.000 C 
ENDBRANCH  17  23
TORSDOF 2
ENDMDL
MODEL 7
REMARK VINA RESULT:      -6.2      2.167      5.741
REMARK  Name = 
REMARK  2 active torsions:
REMARK  status: ('A' for Active; 'I' for Inactive)
REMARK    1  A    between atoms: C_2  and  C_3
REMARK    2  A    between atoms: C_19  and  O_20
REMARK                            x       y       z     vdW  Elec       q    Type
REMARK                         _______ _______ _______ _____ _____    ______ ____
ROOT
ATOM      1  C   UNL     1      26.289  26.716  27.234  0.00  0.00    +0.000 C 
ATOM      2  O   UNL     1      26.795  27.469  26.176  0.00  0.00    +0.000 OA
ATOM      3  C   UNL     1      24.869  26.309  27.032  0.00  0.00    +0.000 C 
ATOM      4  C   UNL     1      24.723  25.210  27.957  0.00  0.00    +0.000 C 
ATOM      5  C   UNL     1      26.104  24.367  27.911  0.00  0.00    +0.000 C 
ATOM      6  C   UNL     1      25.783  23.694  26.389  0.00  0.00    +0.000 C 
ATOM      7  C   UNL     1      25.905  24.966  25.455  0.00  0.00    +0.000 C 
ATOM      8  C   UNL     1      25.690  24.308  24.085  0.00  0.00    +0.000 C 
ATOM      9  C   UNL     1      27.107  23.928  23.839  0.00  0.00    +0.000 A 
ATOM     10  C   UNL     1      27.680  24.274  22.649  0.00  0.00    +0.000 A 
ATOM     11  C   UNL     1      29.016  23.950  22.424  0.00  0.00    +0.000 A 
ATOM     12  O   UNL     1      29.640  24.290  21.213  0.00  0.00    +0.000 OA
ATOM     13  C   UNL     1      29.701  23.293  23.412  0.00  0.00    +0.000 A 
ATOM     14  C   UNL     1      29.047  22.977  24.588  0.00  0.00    +0.000 A 
ATOM     15  C   UNL     1      27.748  23.281  24.834  0.00  0.00    +0.000 A 
ATOM     16  C   UNL     1      27.183  22.829  26.159  0.00  0.00    +0.000 C 
ATOM     17  C   UNL     1      28.180  23.564  27.320  0.00  0.00    +0.000 C 
ATOM     18  C   UNL     1      28.180  25.074  26.684  0.00  0.00    +0.000 C 
ATOM     19  C   UNL     1      27.079  25.601  27.536  0.00  0.00    +0.000 C 
ATOM     20  C   UNL     1      27.755  25.774  28.916  0.00  0.00    +0.000 C 
ENDROOT
BRANCH   1  22
ATOM     21  C   UNL     1      26.231  28.474  29.285  0.00  0.00    +0.000 C 
ATOM     22  C   UNL     1      26.261  27.679  28.375  0.00  0.00    +0.000 C 
ENDBRANCH   1  22
BRANCH  17  23
ATOM     23  O   UNL     1      29.485  23.118  26.776  0.00  0.00    +0.000 OA
ATOM     24  C   UNL     1      30.312  23.134  27.940  0.00  0.00    +0.000 C 
ENDBRANCH  17  23
TORSDOF 2
ENDMDL
MODEL 8
REMARK VINA RESULT:      -6.1      1.975      2.933
REMARK  Name = 
REMARK  2 active torsions:
REMARK  status: ('A' for Active; 'I' for Inactive)
REMARK    1  A    between atoms: C_2  and  C_3
REMARK    2  A    between atoms: C_19  and  O_20
REMARK                            x       y       z     vdW  Elec       q    Type
REMARK                         _______ _______ _______ _____ _____    ______ ____
ROOT
ATOM      1  C   UNL     1      30.007  24.846  25.017  0.00  0.00    +0.000 C 
ATOM      2  O   UNL     1      30.613  25.761  25.877  0.00  0.00    +0.000 OA
ATOM      3  C   UNL     1      30.913  23.729  24.623  0.00  0.00    +0.000 C 
ATOM      4  C   UNL     1      29.988  22.724  24.160  0.00  0.00    +0.000 C 
ATOM      5  C   UNL     1      28.702  22.774  25.141  0.00  0.00    +0.000 C 
ATOM      6  C   UNL     1      29.514  22.047  26.439  0.00  0.00    +0.000 C 
ATOM      7  C   UNL     1      30.538  23.185  26.843  0.00  0.00    +0.000 C 
ATOM      8  C   UNL     1      31.195  22.527  28.064  0.00  0.00    +0.000 C 
ATOM      9  C   UNL     1      30.206  22.987  29.076  0.00  0.00    +0.000 A 
ATOM     10  C   UNL     1      30.663  23.599  30.207  0.00  0.00    +0.000 A 
ATOM     11  C   UNL     1      29.743  24.060  31.144  0.00  0.00    +0.000 A 
ATOM     12  O   UNL     1      30.175  24.696  32.319  0.00  0.00    +0.000 OA
ATOM     13  C   UNL     1      28.409  23.879  30.888  0.00  0.00    +0.000 A 
ATOM     14  C   UNL     1      28.028  23.248  29.720  0.00  0.00    +0.000 A 
ATOM     15  C   UNL     1      28.903  22.788  28.790  0.00  0.00    +0.000 A 
ATOM     16  C   UNL     1      28.314  22.091  27.587  0.00  0.00    +0.000 C 
ATOM     17  C   UNL     1      27.280  23.244  26.891  0.00  0.00    +0.000 C 
ATOM     18  C   UNL     1      28.317  24.511  26.916  0.00  0.00    +0.000 C 
ATOM     19  C   UNL     1      28.802  24.344  25.518  0.00  0.00    +0.000 C 
ATOM     20  C   UNL     1      27.611  24.848  24.671  0.00  0.00    +0.000 C 
ENDROOT
BRANCH   1  22
ATOM     21  C   UNL     1      29.613  26.278  22.760  0.00  0.00    +0.000 C 
ATOM     22  C   UNL     1      29.784  25.628  23.765  0.00  0.00    +0.000 C 
ENDBRANCH   1  22
BRANCH  17  23
ATOM     23  O   UNL     1      26.512  23.589  28.112  0.00  0.00    +0.000 OA
ATOM     24  C   UNL     1      25.465  24.403  27.582  0.00  0.00    +0.000 C 
ENDBRANCH  17  23
TORSDOF 2
ENDMDL
MODEL 9
REMARK VINA RESULT:      -6.0      2.281      5.043
REMARK  Name = 
REMARK  2 active torsions:
REMARK  status: ('A' for Active; 'I' for Inactive)
REMARK    1  A    between atoms: C_2  and  C_3
REMARK    2  A    between atoms: C_19  and  O_20
REMARK                            x       y       z     vdW  Elec       q    Type
REMARK                         _______ _______ _______ _____ _____    ______ ____
ROOT
ATOM      1  C   UNL     1      29.384  24.845  28.864  0.00  0.00    +0.000 C 
ATOM      2  O   UNL     1      28.455  25.688  28.256  0.00  0.00    +0.000 OA
ATOM      3  C   UNL     1      28.763  23.621  29.450  0.00  0.00    +0.000 C 
ATOM      4  C   UNL     1      29.891  22.731  29.583  0.00  0.00    +0.000 C 
ATOM      5  C   UNL     1      30.823  22.948  28.278  0.00  0.00    +0.000 C 
ATOM      6  C   UNL     1      29.759  22.142  27.235  0.00  0.00    +0.000 C 
ATOM      7  C   UNL     1      28.540  23.152  27.192  0.00  0.00    +0.000 C 
ATOM      8  C   UNL     1      27.636  22.431  26.182  0.00  0.00    +0.000 C 
ATOM      9  C   UNL     1      28.232  23.019  24.951  0.00  0.00    +0.000 A 
ATOM     10  C   UNL     1      27.401  23.583  24.028  0.00  0.00    +0.000 A 
ATOM     11  C   UNL     1      27.952  24.163  22.888  0.00  0.00    +0.000 A 
ATOM     12  O   UNL     1      27.129  24.754  21.916  0.00  0.00    +0.000 OA
ATOM     13  C   UNL     1      29.314  24.143  22.743  0.00  0.00    +0.000 A 
ATOM     14  C   UNL     1      30.087  23.550  23.725  0.00  0.00    +0.000 A 
ATOM     15  C   UNL     1      29.576  22.978  24.843  0.00  0.00    +0.000 A 
ATOM     16  C   UNL     1      30.563  22.344  25.795  0.00  0.00    +0.000 C 
ATOM     17  C   UNL     1      31.616  23.607  26.218  0.00  0.00    +0.000 C 
ATOM     18  C   UNL     1      30.479  24.738  26.549  0.00  0.00    +0.000 C 
ATOM     19  C   UNL     1      30.441  24.498  28.017  0.00  0.00    +0.000 C 
ATOM     20  C   UNL     1      31.762  25.135  28.511  0.00  0.00    +0.000 C 
ENDROOT
BRANCH   1  22
ATOM     21  C   UNL     1      30.251  26.261  30.995  0.00  0.00    +0.000 C 
ATOM     22  C   UNL     1      29.870  25.634  30.034  0.00  0.00    +0.000 C 
ENDBRANCH   1  22
BRANCH  17  23
ATOM     23  O   UNL     1      31.953  24.056  24.846  0.00  0.00    +0.000 OA
ATOM     24  C   UNL     1      33.252  24.619  25.031  0.00  0.00    +0.000 C 
ENDBRANCH  17  23
TORSDOF 2
ENDMDL
MODEL 10
REMARK VINA RESULT:      -6.0     20.180     22.027
REMARK  Name = 
REMARK  2 active torsions:
REMARK  status: ('A' for Active; 'I' for Inactive)
REMARK    1  A    between atoms: C_2  and  C_3
REMARK    2  A    between atoms: C_19  and  O_20
REMARK                            x       y       z     vdW  Elec       q    Type
REMARK                         _______ _______ _______ _____ _____    ______ ____
ROOT
ATOM      1  C   UNL     1      29.098   5.397  14.551  0.00  0.00    +0.000 C 
ATOM      2  O   UNL     1      29.036   4.004  14.527  0.00  0.00    +0.000 OA
ATOM      3  C   UNL     1      28.332   6.033  13.441  0.00  0.00    +0.000 C 
ATOM      4  C   UNL     1      28.151   7.382  13.919  0.00  0.00    +0.000 C 
ATOM      5  C   UNL     1      27.868   7.288  15.510  0.00  0.00    +0.000 C 
ATOM      6  C   UNL     1      26.296   6.685  15.317  0.00  0.00    +0.000 C 
ATOM      7  C   UNL     1      26.586   5.239  14.740  0.00  0.00    +0.000 C 
ATOM      8  C   UNL     1      25.152   4.698  14.655  0.00  0.00    +0.000 C 
ATOM      9  C   UNL     1      25.067   4.182  16.047  0.00  0.00    +0.000 A 
ATOM     10  C   UNL     1      24.648   2.898  16.244  0.00  0.00    +0.000 A 
ATOM     11  C   UNL     1      24.596   2.396  17.542  0.00  0.00    +0.000 A 
ATOM     12  O   UNL     1      24.171   1.080  17.785  0.00  0.00    +0.000 OA
ATOM     13  C   UNL     1      24.969   3.219  18.572  0.00  0.00    +0.000 A 
ATOM     14  C   UNL     1      25.380   4.508  18.289  0.00  0.00    +0.000 A 
ATOM     15  C   UNL     1      25.441   5.021  17.035  0.00  0.00    +0.000 A 
ATOM     16  C   UNL     1      25.879   6.461  16.909  0.00  0.00    +0.000 C 
ATOM     17  C   UNL     1      27.416   6.502  17.627  0.00  0.00    +0.000 C 
ATOM     18  C   UNL     1      28.043   5.188  16.878  0.00  0.00    +0.000 C 
ATOM     19  C   UNL     1      28.716   5.938  15.782  0.00  0.00    +0.000 C 
ATOM     20  C   UNL     1      29.930   6.581  16.492  0.00  0.00    +0.000 C 
ENDROOT
BRANCH   1  22
ATOM     21  C   UNL     1      31.697   5.914  14.022  0.00  0.00    +0.000 C 
ATOM     22  C   UNL     1      30.531   5.694  14.256  0.00  0.00    +0.000 C 
ENDBRANCH   1  22
BRANCH  17  23
ATOM     23  O   UNL     1      27.057   5.849  18.910  0.00  0.00    +0.000 OA
ATOM     24  C   UNL     1      28.219   6.097  19.703  0.00  0.00    +0.000 C 
ENDBRANCH  17  23
TORSDOF 2
ENDMDL
