MODEL 1
REMARK VINA RESULT:      -6.9      0.000      0.000
REMARK  Name = 
REMARK  2 active torsions:
REMARK  status: ('A' for Active; 'I' for Inactive)
REMARK    1  A    between atoms: N_12  and  C_13
REMARK    2  A    between atoms: C_13  and  C_14
REMARK                            x       y       z     vdW  Elec       q    Type
REMARK                         _______ _______ _______ _____ _____    ______ ____
ROOT
ATOM      1  O   UNL     1      22.125  -9.668  26.934  0.00  0.00    +0.000 OA
ATOM      2  C   UNL     1      22.109  -9.299  25.708  0.00  0.00    +0.000 C 
ATOM      3  N   UNL     1      23.308  -8.967  24.990  0.00  0.00    +0.000 NA
ATOM      4  C   UNL     1      22.823  -8.321  23.745  0.00  0.00    +0.000 C 
ATOM      5  C   UNL     1      23.806  -8.736  22.660  0.00  0.00    +0.000 C 
ATOM      6  C   UNL     1      25.181  -8.239  23.100  0.00  0.00    +0.000 C 
ATOM      7  C   UNL     1      25.180  -6.765  23.399  0.00  0.00    +0.000 C 
ATOM      8  C   UNL     1      24.103  -6.355  24.370  0.00  0.00    +0.000 C 
ATOM      9  C   UNL     1      22.791  -6.801  23.810  0.00  0.00    +0.000 C 
ATOM     10  C   UNL     1      21.482  -8.811  23.606  0.00  0.00    +0.000 C 
ATOM     11  O   UNL     1      20.791  -8.961  22.559  0.00  0.00    +0.000 OA
ATOM     12  N   UNL     1      21.006  -9.150  24.845  0.00  0.00    +0.000 N 
ENDROOT
BRANCH  12  13
ATOM     13  C   UNL     1      19.548  -9.099  25.389  0.00  0.00    +0.000 C 
BRANCH  13  14
ATOM     14  C   UNL     1      19.264  -7.740  25.882  0.00  0.00    +0.000 A 
ATOM     15  C   UNL     1      20.098  -6.568  25.557  0.00  0.00    +0.000 A 
ATOM     16  C   UNL     1      19.674  -5.382  26.095  0.00  0.00    +0.000 A 
ATOM     17  C   UNL     1      18.616  -5.149  26.859  0.00  0.00    +0.000 A 
ATOM     18  C   UNL     1      17.813  -6.384  27.131  0.00  0.00    +0.000 A 
ATOM     19  C   UNL     1      18.314  -7.417  26.601  0.00  0.00    +0.000 A 
ATOM     20  F   UNL     1      17.606  -8.635  27.228  0.00  0.00    +0.000 F 
ENDBRANCH  13  14
ENDBRANCH  12  13
TORSDOF 2
ENDMDL
MODEL 2
REMARK VINA RESULT:      -6.6     21.435     23.284
REMARK  Name = 
REMARK  2 active torsions:
REMARK  status: ('A' for Active; 'I' for Inactive)
REMARK    1  A    between atoms: N_12  and  C_13
REMARK    2  A    between atoms: C_13  and  C_14
REMARK                            x       y       z     vdW  Elec       q    Type
REMARK                         _______ _______ _______ _____ _____    ______ ____
ROOT
ATOM      1  O   UNL     1      19.131  13.309  38.129  0.00  0.00    +0.000 OA
ATOM      2  C   UNL     1      18.481  12.410  37.489  0.00  0.00    +0.000 C 
ATOM      3  N   UNL     1      17.268  12.700  36.776  0.00  0.00    +0.000 NA
ATOM      4  C   UNL     1      16.705  11.366  36.453  0.00  0.00    +0.000 C 
ATOM      5  C   UNL     1      16.042  11.521  35.092  0.00  0.00    +0.000 C 
ATOM      6  C   UNL     1      14.976  12.603  35.243  0.00  0.00    +0.000 C 
ATOM      7  C   UNL     1      14.019  12.301  36.364  0.00  0.00    +0.000 C 
ATOM      8  C   UNL     1      14.707  12.010  37.673  0.00  0.00    +0.000 C 
ATOM      9  C   UNL     1      15.659  10.880  37.446  0.00  0.00    +0.000 C 
ATOM     10  C   UNL     1      17.841  10.492  36.508  0.00  0.00    +0.000 C 
ATOM     11  O   UNL     1      18.040   9.400  35.905  0.00  0.00    +0.000 OA
ATOM     12  N   UNL     1      18.779  11.042  37.342  0.00  0.00    +0.000 N 
ENDROOT
BRANCH  12  13
ATOM     13  C   UNL     1      19.822  10.333  38.255  0.00  0.00    +0.000 C 
BRANCH  13  14
ATOM     14  C   UNL     1      21.178  10.629  37.760  0.00  0.00    +0.000 A 
ATOM     15  C   UNL     1      22.037  11.684  38.329  0.00  0.00    +0.000 A 
ATOM     16  C   UNL     1      23.271  11.809  37.749  0.00  0.00    +0.000 A 
ATOM     17  C   UNL     1      23.795  11.106  36.755  0.00  0.00    +0.000 A 
ATOM     18  C   UNL     1      22.869  10.045  36.243  0.00  0.00    +0.000 A 
ATOM     19  C   UNL     1      21.755  10.042  36.840  0.00  0.00    +0.000 A 
ATOM     20  F   UNL     1      20.799   9.162  36.010  0.00  0.00    +0.000 F 
ENDBRANCH  13  14
ENDBRANCH  12  13
TORSDOF 2
ENDMDL
MODEL 3
REMARK VINA RESULT:      -6.5     32.965     34.221
REMARK  Name = 
REMARK  2 active torsions:
REMARK  status: ('A' for Active; 'I' for Inactive)
REMARK    1  A    between atoms: N_12  and  C_13
REMARK    2  A    between atoms: C_13  and  C_14
REMARK                            x       y       z     vdW  Elec       q    Type
REMARK                         _______ _______ _______ _____ _____    ______ ____
ROOT
ATOM      1  O   UNL     1      29.998  26.343  24.756  0.00  0.00    +0.000 OA
ATOM      2  C   UNL     1      29.741  26.206  23.509  0.00  0.00    +0.000 C 
ATOM      3  N   UNL     1      29.440  27.324  22.659  0.00  0.00    +0.000 NA
ATOM      4  C   UNL     1      28.923  26.708  21.412  0.00  0.00    +0.000 C 
ATOM      5  C   UNL     1      29.405  27.607  20.282  0.00  0.00    +0.000 C 
ATOM      6  C   UNL     1      28.830  28.995  20.550  0.00  0.00    +0.000 C 
ATOM      7  C   UNL     1      27.336  28.966  20.719  0.00  0.00    +0.000 C 
ATOM      8  C   UNL     1      26.872  27.964  21.745  0.00  0.00    +0.000 C 
ATOM      9  C   UNL     1      27.405  26.625  21.347  0.00  0.00    +0.000 C 
ATOM     10  C   UNL     1      29.462  25.379  21.437  0.00  0.00    +0.000 C 
ATOM     11  O   UNL     1      29.726  24.605  20.475  0.00  0.00    +0.000 OA
ATOM     12  N   UNL     1      29.702  25.027  22.740  0.00  0.00    +0.000 N 
ENDROOT
BRANCH  12  13
ATOM     13  C   UNL     1      29.645  23.621  23.407  0.00  0.00    +0.000 C 
BRANCH  13  14
ATOM     14  C   UNL     1      28.295  23.402  23.957  0.00  0.00    +0.000 A 
ATOM     15  C   UNL     1      27.064  23.522  23.155  0.00  0.00    +0.000 A 
ATOM     16  C   UNL     1      25.900  23.272  23.832  0.00  0.00    +0.000 A 
ATOM     17  C   UNL     1      25.735  22.931  25.102  0.00  0.00    +0.000 A 
ATOM     18  C   UNL     1      27.032  22.814  25.844  0.00  0.00    +0.000 A 
ATOM     19  C   UNL     1      28.032  23.089  25.122  0.00  0.00    +0.000 A 
ATOM     20  F   UNL     1      29.238  23.265  26.067  0.00  0.00    +0.000 F 
ENDBRANCH  13  14
ENDBRANCH  12  13
TORSDOF 2
ENDMDL
MODEL 4
REMARK VINA RESULT:      -6.4     31.900     33.113
REMARK  Name = 
REMARK  2 active torsions:
REMARK  status: ('A' for Active; 'I' for Inactive)
REMARK    1  A    between atoms: N_12  and  C_13
REMARK    2  A    between atoms: C_13  and  C_14
REMARK                            x       y       z     vdW  Elec       q    Type
REMARK                         _______ _______ _______ _____ _____    ______ ____
ROOT
ATOM      1  O   UNL     1      29.340  23.769  25.901  0.00  0.00    +0.000 OA
ATOM      2  C   UNL     1      28.665  23.958  24.830  0.00  0.00    +0.000 C 
ATOM      3  N   UNL     1      29.114  24.834  23.783  0.00  0.00    +0.000 NA
ATOM      4  C   UNL     1      27.930  24.991  22.903  0.00  0.00    +0.000 C 
ATOM      5  C   UNL     1      28.483  25.096  21.489  0.00  0.00    +0.000 C 
ATOM      6  C   UNL     1      29.413  26.306  21.469  0.00  0.00    +0.000 C 
ATOM      7  C   UNL     1      28.727  27.554  21.957  0.00  0.00    +0.000 C 
ATOM      8  C   UNL     1      28.064  27.383  23.298  0.00  0.00    +0.000 C 
ATOM      9  C   UNL     1      27.108  26.239  23.192  0.00  0.00    +0.000 C 
ATOM     10  C   UNL     1      27.135  23.832  23.188  0.00  0.00    +0.000 C 
ATOM     11  O   UNL     1      26.302  23.234  22.451  0.00  0.00    +0.000 OA
ATOM     12  N   UNL     1      27.429  23.397  24.453  0.00  0.00    +0.000 N 
ENDROOT
BRANCH  12  13
ATOM     13  C   UNL     1      26.512  22.681  25.488  0.00  0.00    +0.000 C 
BRANCH  13  14
ATOM     14  C   UNL     1      26.002  23.673  26.450  0.00  0.00    +0.000 A 
ATOM     15  C   UNL     1      25.179  24.833  26.059  0.00  0.00    +0.000 A 
ATOM     16  C   UNL     1      24.786  25.644  27.091  0.00  0.00    +0.000 A 
ATOM     17  C   UNL     1      25.039  25.520  28.386  0.00  0.00    +0.000 A 
ATOM     18  C   UNL     1      25.865  24.311  28.703  0.00  0.00    +0.000 A 
ATOM     19  C   UNL     1      26.185  23.655  27.671  0.00  0.00    +0.000 A 
ATOM     20  F   UNL     1      27.289  22.664  28.088  0.00  0.00    +0.000 F 
ENDBRANCH  13  14
ENDBRANCH  12  13
TORSDOF 2
ENDMDL
MODEL 5
REMARK VINA RESULT:      -6.3     31.915     33.253
REMARK  Name = 
REMARK  2 active torsions:
REMARK  status: ('A' for Active; 'I' for Inactive)
REMARK    1  A    between atoms: N_12  and  C_13
REMARK    2  A    between atoms: C_13  and  C_14
REMARK                            x       y       z     vdW  Elec       q    Type
REMARK                         _______ _______ _______ _____ _____    ______ ____
ROOT
ATOM      1  O   UNL     1      28.241  26.761  25.950  0.00  0.00    +0.000 OA
ATOM      2  C   UNL     1      28.000  25.504  25.919  0.00  0.00    +0.000 C 
ATOM      3  N   UNL     1      28.696  24.567  26.756  0.00  0.00    +0.000 NA
ATOM      4  C   UNL     1      28.339  23.239  26.198  0.00  0.00    +0.000 C 
ATOM      5  C   UNL     1      28.253  22.302  27.394  0.00  0.00    +0.000 C 
ATOM      6  C   UNL     1      29.622  22.323  28.068  0.00  0.00    +0.000 C 
ATOM      7  C   UNL     1      30.731  21.993  27.105  0.00  0.00    +0.000 C 
ATOM      8  C   UNL     1      30.710  22.841  25.860  0.00  0.00    +0.000 C 
ATOM      9  C   UNL     1      29.367  22.683  25.223  0.00  0.00    +0.000 C 
ATOM     10  C   UNL     1      27.113  23.482  25.494  0.00  0.00    +0.000 C 
ATOM     11  O   UNL     1      26.169  22.685  25.235  0.00  0.00    +0.000 OA
ATOM     12  N   UNL     1      27.071  24.802  25.127  0.00  0.00    +0.000 N 
ENDROOT
BRANCH  12  13
ATOM     13  C   UNL     1      26.402  25.458  23.883  0.00  0.00    +0.000 C 
BRANCH  13  14
ATOM     14  C   UNL     1      27.426  25.688  22.849  0.00  0.00    +0.000 A 
ATOM     15  C   UNL     1      27.899  27.029  22.459  0.00  0.00    +0.000 A 
ATOM     16  C   UNL     1      28.863  27.049  21.487  0.00  0.00    +0.000 A 
ATOM     17  C   UNL     1      29.430  26.028  20.860  0.00  0.00    +0.000 A 
ATOM     18  C   UNL     1      28.909  24.702  21.322  0.00  0.00    +0.000 A 
ATOM     19  C   UNL     1      28.009  24.812  22.202  0.00  0.00    +0.000 A 
ATOM     20  F   UNL     1      27.333  23.432  22.335  0.00  0.00    +0.000 F 
ENDBRANCH  13  14
ENDBRANCH  12  13
TORSDOF 2
ENDMDL
MODEL 6
REMARK VINA RESULT:      -6.3     31.655     33.230
REMARK  Name = 
REMARK  2 active torsions:
REMARK  status: ('A' for Active; 'I' for Inactive)
REMARK    1  A    between atoms: N_12  and  C_13
REMARK    2  A    between atoms: C_13  and  C_14
REMARK                            x       y       z     vdW  Elec       q    Type
REMARK                         _______ _______ _______ _____ _____    ______ ____
ROOT
ATOM      1  O   UNL     1      28.573  26.278  24.508  0.00  0.00    +0.000 OA
ATOM      2  C   UNL     1      27.448  25.671  24.583  0.00  0.00    +0.000 C 
ATOM      3  N   UNL     1      26.313  26.237  25.259  0.00  0.00    +0.000 NA
ATOM      4  C   UNL     1      25.352  25.112  25.366  0.00  0.00    +0.000 C 
ATOM      5  C   UNL     1      23.972  25.738  25.220  0.00  0.00    +0.000 C 
ATOM      6  C   UNL     1      23.832  26.760  26.345  0.00  0.00    +0.000 C 
ATOM      7  C   UNL     1      24.092  26.151  27.696  0.00  0.00    +0.000 C 
ATOM      8  C   UNL     1      25.403  25.413  27.775  0.00  0.00    +0.000 C 
ATOM      9  C   UNL     1      25.408  24.377  26.698  0.00  0.00    +0.000 C 
ATOM     10  C   UNL     1      25.755  24.216  24.321  0.00  0.00    +0.000 C 
ATOM     11  O   UNL     1      25.065  23.375  23.680  0.00  0.00    +0.000 OA
ATOM     12  N   UNL     1      27.085  24.415  24.060  0.00  0.00    +0.000 N 
ENDROOT
BRANCH  12  13
ATOM     13  C   UNL     1      28.157  23.396  23.572  0.00  0.00    +0.000 C 
BRANCH  13  14
ATOM     14  C   UNL     1      29.036  23.042  24.701  0.00  0.00    +0.000 A 
ATOM     15  C   UNL     1      28.538  22.487  25.973  0.00  0.00    +0.000 A 
ATOM     16  C   UNL     1      29.502  22.208  26.905  0.00  0.00    +0.000 A 
ATOM     17  C   UNL     1      30.815  22.362  26.813  0.00  0.00    +0.000 A 
ATOM     18  C   UNL     1      31.242  22.915  25.487  0.00  0.00    +0.000 A 
ATOM     19  C   UNL     1      30.265  23.153  24.721  0.00  0.00    +0.000 A 
ATOM     20  F   UNL     1      30.800  24.016  23.560  0.00  0.00    +0.000 F 
ENDBRANCH  13  14
ENDBRANCH  12  13
TORSDOF 2
ENDMDL
MODEL 7
REMARK VINA RESULT:      -6.3     14.445     16.440
REMARK  Name = 
REMARK  2 active torsions:
REMARK  status: ('A' for Active; 'I' for Inactive)
REMARK    1  A    between atoms: N_12  and  C_13
REMARK    2  A    between atoms: C_13  and  C_14
REMARK                            x       y       z     vdW  Elec       q    Type
REMARK                         _______ _______ _______ _____ _____    ______ ____
ROOT
ATOM      1  O   UNL     1      24.876   4.741  14.669  0.00  0.00    +0.000 OA
ATOM      2  C   UNL     1      24.828   4.312  15.875  0.00  0.00    +0.000 C 
ATOM      3  N   UNL     1      24.358   2.996  16.205  0.00  0.00    +0.000 NA
ATOM      4  C   UNL     1      24.187   3.026  17.678  0.00  0.00    +0.000 C 
ATOM      5  C   UNL     1      24.559   1.631  18.161  0.00  0.00    +0.000 C 
ATOM      6  C   UNL     1      23.613   0.657  17.465  0.00  0.00    +0.000 C 
ATOM      7  C   UNL     1      22.169   1.020  17.683  0.00  0.00    +0.000 C 
ATOM      8  C   UNL     1      21.854   2.450  17.331  0.00  0.00    +0.000 C 
ATOM      9  C   UNL     1      22.765   3.327  18.128  0.00  0.00    +0.000 C 
ATOM     10  C   UNL     1      25.046   4.093  18.102  0.00  0.00    +0.000 C 
ATOM     11  O   UNL     1      25.626   4.261  19.211  0.00  0.00    +0.000 OA
ATOM     12  N   UNL     1      25.199   4.973  17.062  0.00  0.00    +0.000 N 
ENDROOT
BRANCH  12  13
ATOM     13  C   UNL     1      25.425   6.514  17.100  0.00  0.00    +0.000 C 
BRANCH  13  14
ATOM     14  C   UNL     1      26.840   6.802  16.808  0.00  0.00    +0.000 A 
ATOM     15  C   UNL     1      27.908   6.728  17.821  0.00  0.00    +0.000 A 
ATOM     16  C   UNL     1      29.166   7.019  17.365  0.00  0.00    +0.000 A 
ATOM     17  C   UNL     1      29.549   7.349  16.139  0.00  0.00    +0.000 A 
ATOM     18  C   UNL     1      28.410   7.387  15.167  0.00  0.00    +0.000 A 
ATOM     19  C   UNL     1      27.299   7.123  15.707  0.00  0.00    +0.000 A 
ATOM     20  F   UNL     1      26.199   7.526  14.704  0.00  0.00    +0.000 F 
ENDBRANCH  13  14
ENDBRANCH  12  13
TORSDOF 2
ENDMDL
MODEL 8
REMARK VINA RESULT:      -6.3     21.769     23.559
REMARK  Name = 
REMARK  2 active torsions:
REMARK  status: ('A' for Active; 'I' for Inactive)
REMARK    1  A    between atoms: N_12  and  C_13
REMARK    2  A    between atoms: C_13  and  C_14
REMARK                            x       y       z     vdW  Elec       q    Type
REMARK                         _______ _______ _______ _____ _____    ______ ____
ROOT
ATOM      1  O   UNL     1      19.582  10.258  41.170  0.00  0.00    +0.000 OA
ATOM      2  C   UNL     1      20.158  10.686  40.110  0.00  0.00    +0.000 C 
ATOM      3  N   UNL     1      21.003  11.848  40.110  0.00  0.00    +0.000 NA
ATOM      4  C   UNL     1      21.204  12.155  38.673  0.00  0.00    +0.000 C 
ATOM      5  C   UNL     1      22.626  12.687  38.564  0.00  0.00    +0.000 C 
ATOM      6  C   UNL     1      22.703  13.921  39.459  0.00  0.00    +0.000 C 
ATOM      7  C   UNL     1      21.640  14.930  39.123  0.00  0.00    +0.000 C 
ATOM      8  C   UNL     1      20.251  14.347  39.097  0.00  0.00    +0.000 C 
ATOM      9  C   UNL     1      20.252  13.210  38.127  0.00  0.00    +0.000 C 
ATOM     10  C   UNL     1      20.943  10.907  38.015  0.00  0.00    +0.000 C 
ATOM     11  O   UNL     1      21.385  10.476  36.914  0.00  0.00    +0.000 OA
ATOM     12  N   UNL     1      20.107  10.161  38.804  0.00  0.00    +0.000 N 
ENDROOT
BRANCH  12  13
ATOM     13  C   UNL     1      19.025   9.121  38.386  0.00  0.00    +0.000 C 
BRANCH  13  14
ATOM     14  C   UNL     1      17.926   9.818  37.696  0.00  0.00    +0.000 A 
ATOM     15  C   UNL     1      16.791  10.441  38.403  0.00  0.00    +0.000 A 
ATOM     16  C   UNL     1      15.868  11.054  37.598  0.00  0.00    +0.000 A 
ATOM     17  C   UNL     1      15.864  11.168  36.277  0.00  0.00    +0.000 A 
ATOM     18  C   UNL     1      17.055  10.525  35.636  0.00  0.00    +0.000 A 
ATOM     19  C   UNL     1      17.822   9.974  36.476  0.00  0.00    +0.000 A 
ATOM     20  F   UNL     1      18.795   9.078  35.682  0.00  0.00    +0.000 F 
ENDBRANCH  13  14
ENDBRANCH  12  13
TORSDOF 2
ENDMDL
MODEL 9
REMARK VINA RESULT:      -6.2     32.017     32.998
REMARK  Name = 
REMARK  2 active torsions:
REMARK  status: ('A' for Active; 'I' for Inactive)
REMARK    1  A    between atoms: N_12  and  C_13
REMARK    2  A    between atoms: C_13  and  C_14
REMARK                            x       y       z     vdW  Elec       q    Type
REMARK                         _______ _______ _______ _____ _____    ______ ____
ROOT
ATOM      1  O   UNL     1      26.680  26.849  26.062  0.00  0.00    +0.000 OA
ATOM      2  C   UNL     1      27.015  25.673  25.680  0.00  0.00    +0.000 C 
ATOM      3  N   UNL     1      28.010  25.447  24.670  0.00  0.00    +0.000 NA
ATOM      4  C   UNL     1      27.869  24.009  24.331  0.00  0.00    +0.000 C 
ATOM      5  C   UNL     1      29.278  23.520  24.027  0.00  0.00    +0.000 C 
ATOM      6  C   UNL     1      29.796  24.365  22.866  0.00  0.00    +0.000 C 
ATOM      7  C   UNL     1      28.864  24.332  21.685  0.00  0.00    +0.000 C 
ATOM      8  C   UNL     1      27.442  24.683  22.037  0.00  0.00    +0.000 C 
ATOM      9  C   UNL     1      26.995  23.746  23.113  0.00  0.00    +0.000 C 
ATOM     10  C   UNL     1      27.237  23.445  25.488  0.00  0.00    +0.000 C 
ATOM     11  O   UNL     1      27.291  22.263  25.931  0.00  0.00    +0.000 OA
ATOM     12  N   UNL     1      26.530  24.429  26.128  0.00  0.00    +0.000 N 
ENDROOT
BRANCH  12  13
ATOM     13  C   UNL     1      25.219  24.317  26.961  0.00  0.00    +0.000 C 
BRANCH  13  14
ATOM     14  C   UNL     1      25.545  24.432  28.393  0.00  0.00    +0.000 A 
ATOM     15  C   UNL     1      26.287  23.400  29.141  0.00  0.00    +0.000 A 
ATOM     16  C   UNL     1      26.508  23.683  30.463  0.00  0.00    +0.000 A 
ATOM     17  C   UNL     1      26.153  24.758  31.152  0.00  0.00    +0.000 A 
ATOM     18  C   UNL     1      25.420  25.764  30.319  0.00  0.00    +0.000 A 
ATOM     19  C   UNL     1      25.256  25.383  29.125  0.00  0.00    +0.000 A 
ATOM     20  F   UNL     1      24.217  26.326  28.486  0.00  0.00    +0.000 F 
ENDBRANCH  13  14
ENDBRANCH  12  13
TORSDOF 2
ENDMDL
MODEL 10
REMARK VINA RESULT:      -6.1      3.563      5.833
REMARK  Name = 
REMARK  2 active torsions:
REMARK  status: ('A' for Active; 'I' for Inactive)
REMARK    1  A    between atoms: N_12  and  C_13
REMARK    2  A    between atoms: C_13  and  C_14
REMARK                            x       y       z     vdW  Elec       q    Type
REMARK                         _______ _______ _______ _____ _____    ______ ____
ROOT
ATOM      1  O   UNL     1      16.832 -11.168  26.604  0.00  0.00    +0.000 OA
ATOM      2  C   UNL     1      17.932 -10.885  27.195  0.00  0.00    +0.000 C 
ATOM      3  N   UNL     1      18.226 -11.333  28.528  0.00  0.00    +0.000 NA
ATOM      4  C   UNL     1      19.424 -10.551  28.922  0.00  0.00    +0.000 C 
ATOM      5  C   UNL     1      20.254 -11.486  29.790  0.00  0.00    +0.000 C 
ATOM      6  C   UNL     1      19.376 -11.880  30.975  0.00  0.00    +0.000 C 
ATOM      7  C   UNL     1      18.836 -10.678  31.703  0.00  0.00    +0.000 C 
ATOM      8  C   UNL     1      18.141  -9.695  30.797  0.00  0.00    +0.000 C 
ATOM      9  C   UNL     1      19.107  -9.299  29.727  0.00  0.00    +0.000 C 
ATOM     10  C   UNL     1      20.008 -10.165  27.670  0.00  0.00    +0.000 C 
ATOM     11  O   UNL     1      21.212  -9.904  27.397  0.00  0.00    +0.000 OA
ATOM     12  N   UNL     1      19.024 -10.135  26.716  0.00  0.00    +0.000 N 
ENDROOT
BRANCH  12  13
ATOM     13  C   UNL     1      18.899  -9.228  25.456  0.00  0.00    +0.000 C 
BRANCH  13  14
ATOM     14  C   UNL     1      18.867  -7.817  25.879  0.00  0.00    +0.000 A 
ATOM     15  C   UNL     1      17.741  -7.218  26.619  0.00  0.00    +0.000 A 
ATOM     16  C   UNL     1      17.889  -5.895  26.937  0.00  0.00    +0.000 A 
ATOM     17  C   UNL     1      18.908  -5.088  26.676  0.00  0.00    +0.000 A 
ATOM     18  C   UNL     1      20.016  -5.773  25.937  0.00  0.00    +0.000 A 
ATOM     19  C   UNL     1      19.755  -6.983  25.681  0.00  0.00    +0.000 A 
ATOM     20  F   UNL     1      20.794  -7.462  24.646  0.00  0.00    +0.000 F 
ENDBRANCH  13  14
ENDBRANCH  12  13
TORSDOF 2
ENDMDL
