MODEL 1
REMARK VINA RESULT:      -7.3      0.000      0.000
REMARK  Name = 
REMARK  3 active torsions:
REMARK  status: ('A' for Active; 'I' for Inactive)
REMARK    1  A    between atoms: C_8  and  N_9
REMARK    2  A    between atoms: C_10  and  C_12
REMARK    3  A    between atoms: C_16  and  N_17
REMARK                            x       y       z     vdW  Elec       q    Type
REMARK                         _______ _______ _______ _____ _____    ______ ____
ROOT
ATOM      1  N   UNL     1      15.103  11.295  33.883  0.00  0.00    +0.000 NA
ATOM      2  C   UNL     1      16.463  11.395  34.269  0.00  0.00    +0.000 C 
ATOM      3  O   UNL     1      17.194  12.343  33.774  0.00  0.00    +0.000 OA
ENDROOT
BRANCH   1  11
ATOM      4  C   UNL     1      15.425  10.770  31.195  0.00  0.00    +0.000 C 
ATOM      5  C   UNL     1      14.793  12.060  31.584  0.00  0.00    +0.000 A 
ATOM      6  C   UNL     1      14.385  12.987  30.626  0.00  0.00    +0.000 A 
ATOM      7  C   UNL     1      13.801  14.161  31.075  0.00  0.00    +0.000 A 
ATOM      8  C   UNL     1      13.638  14.396  32.404  0.00  0.00    +0.000 A 
ATOM      9  C   UNL     1      14.057  13.443  33.335  0.00  0.00    +0.000 A 
ATOM     10  C   UNL     1      13.875  13.689  34.791  0.00  0.00    +0.000 C 
ATOM     11  C   UNL     1      14.637  12.272  32.947  0.00  0.00    +0.000 A 
ENDBRANCH   1  11
BRANCH   2  12
ATOM     12  C   UNL     1      17.054  10.475  35.221  0.00  0.00    +0.000 A 
ATOM     13  C   UNL     1      17.675   9.299  34.767  0.00  0.00    +0.000 A 
ATOM     14  C   UNL     1      18.307   8.426  35.635  0.00  0.00    +0.000 A 
ATOM     15  C   UNL     1      18.321   8.723  36.980  0.00  0.00    +0.000 A 
ATOM     16  C   UNL     1      17.719   9.872  37.471  0.00  0.00    +0.000 A 
ATOM     17  C   UNL     1      17.087  10.736  36.567  0.00  0.00    +0.000 A 
ATOM     18  C   UNL     1      16.444  11.957  37.117  0.00  0.00    +0.000 C 
BRANCH  16  19
ATOM     19  N   UNL     1      17.676  10.160  38.852  0.00  0.00    +0.000 N 
ATOM     20  O   UNL     1      18.664  10.638  39.429  0.00  0.00    +0.000 OA
ATOM     21  O   UNL     1      16.538   9.929  39.598  0.00  0.00    +0.000 OA
ENDBRANCH  16  19
ENDBRANCH   2  12
TORSDOF 3
ENDMDL
MODEL 2
REMARK VINA RESULT:      -6.9     18.018     19.127
REMARK  Name = 
REMARK  3 active torsions:
REMARK  status: ('A' for Active; 'I' for Inactive)
REMARK    1  A    between atoms: C_8  and  N_9
REMARK    2  A    between atoms: C_10  and  C_12
REMARK    3  A    between atoms: C_16  and  N_17
REMARK                            x       y       z     vdW  Elec       q    Type
REMARK                         _______ _______ _______ _____ _____    ______ ____
ROOT
ATOM      1  N   UNL     1      28.478  22.930  25.245  0.00  0.00    +0.000 NA
ATOM      2  C   UNL     1      28.513  23.852  26.321  0.00  0.00    +0.000 C 
ATOM      3  O   UNL     1      28.449  25.122  26.069  0.00  0.00    +0.000 OA
ENDROOT
BRANCH   1  11
ATOM      4  C   UNL     1      30.805  23.709  23.988  0.00  0.00    +0.000 C 
ATOM      5  C   UNL     1      29.519  23.915  23.267  0.00  0.00    +0.000 A 
ATOM      6  C   UNL     1      29.481  24.494  22.000  0.00  0.00    +0.000 A 
ATOM      7  C   UNL     1      28.241  24.644  21.398  0.00  0.00    +0.000 A 
ATOM      8  C   UNL     1      27.106  24.241  22.028  0.00  0.00    +0.000 A 
ATOM      9  C   UNL     1      27.183  23.662  23.296  0.00  0.00    +0.000 A 
ATOM     10  C   UNL     1      25.946  23.210  23.989  0.00  0.00    +0.000 C 
ATOM     11  C   UNL     1      28.376  23.491  23.933  0.00  0.00    +0.000 A 
ENDBRANCH   1  11
BRANCH   2  12
ATOM     12  C   UNL     1      28.600  23.412  27.699  0.00  0.00    +0.000 A 
ATOM     13  C   UNL     1      29.852  23.110  28.261  0.00  0.00    +0.000 A 
ATOM     14  C   UNL     1      29.987  22.748  29.590  0.00  0.00    +0.000 A 
ATOM     15  C   UNL     1      28.858  22.682  30.377  0.00  0.00    +0.000 A 
ATOM     16  C   UNL     1      27.603  22.970  29.862  0.00  0.00    +0.000 A 
ATOM     17  C   UNL     1      27.498  23.334  28.513  0.00  0.00    +0.000 A 
ATOM     18  C   UNL     1      26.144  23.632  27.983  0.00  0.00    +0.000 C 
BRANCH  16  19
ATOM     19  N   UNL     1      26.432  22.851  30.641  0.00  0.00    +0.000 N 
ATOM     20  O   UNL     1      25.920  23.848  31.170  0.00  0.00    +0.000 OA
ATOM     21  O   UNL     1      25.816  21.629  30.829  0.00  0.00    +0.000 OA
ENDBRANCH  16  19
ENDBRANCH   2  12
TORSDOF 3
ENDMDL
MODEL 3
REMARK VINA RESULT:      -6.5      1.689      2.144
REMARK  Name = 
REMARK  3 active torsions:
REMARK  status: ('A' for Active; 'I' for Inactive)
REMARK    1  A    between atoms: C_8  and  N_9
REMARK    2  A    between atoms: C_10  and  C_12
REMARK    3  A    between atoms: C_16  and  N_17
REMARK                            x       y       z     vdW  Elec       q    Type
REMARK                         _______ _______ _______ _____ _____    ______ ____
ROOT
ATOM      1  N   UNL     1      15.765  10.964  35.472  0.00  0.00    +0.000 NA
ATOM      2  C   UNL     1      16.840  11.465  36.249  0.00  0.00    +0.000 C 
ATOM      3  O   UNL     1      17.181  12.709  36.128  0.00  0.00    +0.000 OA
ENDROOT
BRANCH   1  11
ATOM      4  C   UNL     1      16.420  10.863  32.796  0.00  0.00    +0.000 C 
ATOM      5  C   UNL     1      15.443  11.895  33.237  0.00  0.00    +0.000 A 
ATOM      6  C   UNL     1      14.880  12.796  32.335  0.00  0.00    +0.000 A 
ATOM      7  C   UNL     1      13.974  13.721  32.830  0.00  0.00    +0.000 A 
ATOM      8  C   UNL     1      13.653  13.747  34.150  0.00  0.00    +0.000 A 
ATOM      9  C   UNL     1      14.235  12.826  35.025  0.00  0.00    +0.000 A 
ATOM     10  C   UNL     1      13.883  12.841  36.471  0.00  0.00    +0.000 C 
ATOM     11  C   UNL     1      15.131  11.895  34.591  0.00  0.00    +0.000 A 
ENDBRANCH   1  11
BRANCH   2  12
ATOM     12  C   UNL     1      17.555  10.627  37.191  0.00  0.00    +0.000 A 
ATOM     13  C   UNL     1      18.867  10.212  36.903  0.00  0.00    +0.000 A 
ATOM     14  C   UNL     1      19.608   9.464  37.802  0.00  0.00    +0.000 A 
ATOM     15  C   UNL     1      19.038   9.121  39.008  0.00  0.00    +0.000 A 
ATOM     16  C   UNL     1      17.746   9.509  39.331  0.00  0.00    +0.000 A 
ATOM     17  C   UNL     1      17.021  10.265  38.401  0.00  0.00    +0.000 A 
ATOM     18  C   UNL     1      15.637  10.664  38.767  0.00  0.00    +0.000 C 
BRANCH  16  19
ATOM     19  N   UNL     1      17.129   9.116  40.538  0.00  0.00    +0.000 N 
ATOM     20  O   UNL     1      16.537   8.031  40.621  0.00  0.00    +0.000 OA
ATOM     21  O   UNL     1      17.176   9.918  41.661  0.00  0.00    +0.000 OA
ENDBRANCH  16  19
ENDBRANCH   2  12
TORSDOF 3
ENDMDL
MODEL 4
REMARK VINA RESULT:      -6.4      2.291      6.560
REMARK  Name = 
REMARK  3 active torsions:
REMARK  status: ('A' for Active; 'I' for Inactive)
REMARK    1  A    between atoms: C_8  and  N_9
REMARK    2  A    between atoms: C_10  and  C_12
REMARK    3  A    between atoms: C_16  and  N_17
REMARK                            x       y       z     vdW  Elec       q    Type
REMARK                         _______ _______ _______ _____ _____    ______ ____
ROOT
ATOM      1  N   UNL     1      17.264  11.127  36.026  0.00  0.00    +0.000 NA
ATOM      2  C   UNL     1      16.680  10.319  35.018  0.00  0.00    +0.000 C 
ATOM      3  O   UNL     1      16.487   9.059  35.251  0.00  0.00    +0.000 OA
ENDROOT
BRANCH   1  11
ATOM      4  C   UNL     1      19.731   9.908  36.190  0.00  0.00    +0.000 C 
ATOM      5  C   UNL     1      18.831   9.824  37.372  0.00  0.00    +0.000 A 
ATOM      6  C   UNL     1      19.209   9.142  38.527  0.00  0.00    +0.000 A 
ATOM      7  C   UNL     1      18.311   9.117  39.583  0.00  0.00    +0.000 A 
ATOM      8  C   UNL     1      17.105   9.736  39.488  0.00  0.00    +0.000 A 
ATOM      9  C   UNL     1      16.761  10.413  38.316  0.00  0.00    +0.000 A 
ATOM     10  C   UNL     1      15.446  11.101  38.207  0.00  0.00    +0.000 C 
ATOM     11  C   UNL     1      17.606  10.468  37.248  0.00  0.00    +0.000 A 
ENDBRANCH   1  11
BRANCH   2  12
ATOM     12  C   UNL     1      16.275  10.868  33.740  0.00  0.00    +0.000 A 
ATOM     13  C   UNL     1      16.796  10.333  32.550  0.00  0.00    +0.000 A 
ATOM     14  C   UNL     1      16.388  10.785  31.307  0.00  0.00    +0.000 A 
ATOM     15  C   UNL     1      15.447  11.789  31.243  0.00  0.00    +0.000 A 
ATOM     16  C   UNL     1      14.909  12.346  32.392  0.00  0.00    +0.000 A 
ATOM     17  C   UNL     1      15.341  11.868  33.636  0.00  0.00    +0.000 A 
ATOM     18  C   UNL     1      14.754  12.484  34.853  0.00  0.00    +0.000 C 
BRANCH  16  19
ATOM     19  N   UNL     1      13.986  13.414  32.342  0.00  0.00    +0.000 N 
ATOM     20  O   UNL     1      13.732  14.078  33.357  0.00  0.00    +0.000 OA
ATOM     21  O   UNL     1      13.351  13.757  31.165  0.00  0.00    +0.000 OA
ENDBRANCH  16  19
ENDBRANCH   2  12
TORSDOF 3
ENDMDL
MODEL 5
REMARK VINA RESULT:      -6.3     18.869     20.775
REMARK  Name = 
REMARK  3 active torsions:
REMARK  status: ('A' for Active; 'I' for Inactive)
REMARK    1  A    between atoms: C_8  and  N_9
REMARK    2  A    between atoms: C_10  and  C_12
REMARK    3  A    between atoms: C_16  and  N_17
REMARK                            x       y       z     vdW  Elec       q    Type
REMARK                         _______ _______ _______ _____ _____    ______ ____
ROOT
ATOM      1  N   UNL     1      28.538  22.535  26.859  0.00  0.00    +0.000 NA
ATOM      2  C   UNL     1      28.253  23.755  26.197  0.00  0.00    +0.000 C 
ATOM      3  O   UNL     1      28.419  24.873  26.830  0.00  0.00    +0.000 OA
ENDROOT
BRANCH   1  11
ATOM      4  C   UNL     1      31.258  22.608  27.307  0.00  0.00    +0.000 C 
ATOM      5  C   UNL     1      30.354  22.661  28.488  0.00  0.00    +0.000 A 
ATOM      6  C   UNL     1      30.857  22.734  29.785  0.00  0.00    +0.000 A 
ATOM      7  C   UNL     1      29.945  22.785  30.828  0.00  0.00    +0.000 A 
ATOM      8  C   UNL     1      28.608  22.762  30.587  0.00  0.00    +0.000 A 
ATOM      9  C   UNL     1      28.139  22.693  29.273  0.00  0.00    +0.000 A 
ATOM     10  C   UNL     1      26.676  22.675  28.999  0.00  0.00    +0.000 C 
ATOM     11  C   UNL     1      28.993  22.639  28.212  0.00  0.00    +0.000 A 
ENDBRANCH   1  11
BRANCH   2  12
ATOM     12  C   UNL     1      27.799  23.787  24.820  0.00  0.00    +0.000 A 
ATOM     13  C   UNL     1      26.517  23.313  24.494  0.00  0.00    +0.000 A 
ATOM     14  C   UNL     1      26.020  23.383  23.204  0.00  0.00    +0.000 A 
ATOM     15  C   UNL     1      26.810  23.932  22.218  0.00  0.00    +0.000 A 
ATOM     16  C   UNL     1      28.082  24.409  22.497  0.00  0.00    +0.000 A 
ATOM     17  C   UNL     1      28.557  24.325  23.812  0.00  0.00    +0.000 A 
ATOM     18  C   UNL     1      29.924  24.838  24.084  0.00  0.00    +0.000 C 
BRANCH  16  19
ATOM     19  N   UNL     1      28.924  24.922  21.486  0.00  0.00    +0.000 N 
ATOM     20  O   UNL     1      29.728  24.184  20.899  0.00  0.00    +0.000 OA
ATOM     21  O   UNL     1      28.871  26.250  21.114  0.00  0.00    +0.000 OA
ENDBRANCH  16  19
ENDBRANCH   2  12
TORSDOF 3
ENDMDL
MODEL 6
REMARK VINA RESULT:      -6.3     20.723     22.962
REMARK  Name = 
REMARK  3 active torsions:
REMARK  status: ('A' for Active; 'I' for Inactive)
REMARK    1  A    between atoms: C_8  and  N_9
REMARK    2  A    between atoms: C_10  and  C_12
REMARK    3  A    between atoms: C_16  and  N_17
REMARK                            x       y       z     vdW  Elec       q    Type
REMARK                         _______ _______ _______ _____ _____    ______ ____
ROOT
ATOM      1  N   UNL     1      22.493  -8.018  25.495  0.00  0.00    +0.000 NA
ATOM      2  C   UNL     1      21.177  -7.932  24.978  0.00  0.00    +0.000 C 
ATOM      3  O   UNL     1      20.959  -8.260  23.744  0.00  0.00    +0.000 OA
ENDROOT
BRANCH   1  11
ATOM      4  C   UNL     1      23.926  -6.112  24.110  0.00  0.00    +0.000 C 
ATOM      5  C   UNL     1      24.239  -7.545  23.853  0.00  0.00    +0.000 A 
ATOM      6  C   UNL     1      25.215  -7.921  22.933  0.00  0.00    +0.000 A 
ATOM      7  C   UNL     1      25.446  -9.277  22.758  0.00  0.00    +0.000 A 
ATOM      8  C   UNL     1      24.739 -10.202  23.460  0.00  0.00    +0.000 A 
ATOM      9  C   UNL     1      23.770  -9.787  24.377  0.00  0.00    +0.000 A 
ATOM     10  C   UNL     1      22.997 -10.792  25.156  0.00  0.00    +0.000 C 
ATOM     11  C   UNL     1      23.503  -8.467  24.587  0.00  0.00    +0.000 A 
ENDBRANCH   1  11
BRANCH   2  12
ATOM     12  C   UNL     1      20.062  -7.505  25.800  0.00  0.00    +0.000 A 
ATOM     13  C   UNL     1      19.734  -6.141  25.884  0.00  0.00    +0.000 A 
ATOM     14  C   UNL     1      18.640  -5.697  26.606  0.00  0.00    +0.000 A 
ATOM     15  C   UNL     1      17.856  -6.623  27.258  0.00  0.00    +0.000 A 
ATOM     16  C   UNL     1      18.145  -7.978  27.203  0.00  0.00    +0.000 A 
ATOM     17  C   UNL     1      19.259  -8.397  26.464  0.00  0.00    +0.000 A 
ATOM     18  C   UNL     1      19.550  -9.853  26.425  0.00  0.00    +0.000 C 
BRANCH  16  19
ATOM     19  N   UNL     1      17.384  -8.931  27.913  0.00  0.00    +0.000 N 
ATOM     20  O   UNL     1      17.648  -9.198  29.094  0.00  0.00    +0.000 OA
ATOM     21  O   UNL     1      16.321  -9.585  27.322  0.00  0.00    +0.000 OA
ENDBRANCH  16  19
ENDBRANCH   2  12
TORSDOF 3
ENDMDL
MODEL 7
REMARK VINA RESULT:      -6.1      3.630      5.743
REMARK  Name = 
REMARK  3 active torsions:
REMARK  status: ('A' for Active; 'I' for Inactive)
REMARK    1  A    between atoms: C_8  and  N_9
REMARK    2  A    between atoms: C_10  and  C_12
REMARK    3  A    between atoms: C_16  and  N_17
REMARK                            x       y       z     vdW  Elec       q    Type
REMARK                         _______ _______ _______ _____ _____    ______ ____
ROOT
ATOM      1  N   UNL     1      18.691   9.526  37.191  0.00  0.00    +0.000 NA
ATOM      2  C   UNL     1      19.793  10.355  37.520  0.00  0.00    +0.000 C 
ATOM      3  O   UNL     1      19.584  11.599  37.814  0.00  0.00    +0.000 OA
ENDROOT
BRANCH   1  11
ATOM      4  C   UNL     1      17.695  10.496  34.810  0.00  0.00    +0.000 C 
ATOM      5  C   UNL     1      16.868  10.669  36.035  0.00  0.00    +0.000 A 
ATOM      6  C   UNL     1      15.632  11.311  35.992  0.00  0.00    +0.000 A 
ATOM      7  C   UNL     1      14.924  11.425  37.179  0.00  0.00    +0.000 A 
ATOM      8  C   UNL     1      15.425  10.929  38.341  0.00  0.00    +0.000 A 
ATOM      9  C   UNL     1      16.667  10.288  38.345  0.00  0.00    +0.000 A 
ATOM     10  C   UNL     1      17.219   9.734  39.611  0.00  0.00    +0.000 C 
ATOM     11  C   UNL     1      17.403  10.149  37.207  0.00  0.00    +0.000 A 
ENDBRANCH   1  11
BRANCH   2  12
ATOM     12  C   UNL     1      21.148   9.842  37.555  0.00  0.00    +0.000 A 
ATOM     13  C   UNL     1      21.917   9.812  36.379  0.00  0.00    +0.000 A 
ATOM     14  C   UNL     1      23.235   9.389  36.380  0.00  0.00    +0.000 A 
ATOM     15  C   UNL     1      23.802   8.988  37.570  0.00  0.00    +0.000 A 
ATOM     16  C   UNL     1      23.078   9.000  38.753  0.00  0.00    +0.000 A 
ATOM     17  C   UNL     1      21.746   9.433  38.720  0.00  0.00    +0.000 A 
ATOM     18  C   UNL     1      20.990   9.432  39.998  0.00  0.00    +0.000 C 
BRANCH  16  19
ATOM     19  N   UNL     1      23.628   8.537  39.968  0.00  0.00    +0.000 N 
ATOM     20  O   UNL     1      24.265   9.303  40.705  0.00  0.00    +0.000 OA
ATOM     21  O   UNL     1      23.465   7.228  40.376  0.00  0.00    +0.000 OA
ENDBRANCH  16  19
ENDBRANCH   2  12
TORSDOF 3
ENDMDL
MODEL 8
REMARK VINA RESULT:      -6.1     18.383     19.346
REMARK  Name = 
REMARK  3 active torsions:
REMARK  status: ('A' for Active; 'I' for Inactive)
REMARK    1  A    between atoms: C_8  and  N_9
REMARK    2  A    between atoms: C_10  and  C_12
REMARK    3  A    between atoms: C_16  and  N_17
REMARK                            x       y       z     vdW  Elec       q    Type
REMARK                         _______ _______ _______ _____ _____    ______ ____
ROOT
ATOM      1  N   UNL     1      28.396  22.619  25.941  0.00  0.00    +0.000 NA
ATOM      2  C   UNL     1      28.611  23.598  26.942  0.00  0.00    +0.000 C 
ATOM      3  O   UNL     1      28.602  24.851  26.615  0.00  0.00    +0.000 OA
ENDROOT
BRANCH   1  11
ATOM      4  C   UNL     1      25.799  23.007  25.102  0.00  0.00    +0.000 C 
ATOM      5  C   UNL     1      26.895  23.301  24.139  0.00  0.00    +0.000 A 
ATOM      6  C   UNL     1      26.626  23.747  22.846  0.00  0.00    +0.000 A 
ATOM      7  C   UNL     1      27.707  24.002  22.016  0.00  0.00    +0.000 A 
ATOM      8  C   UNL     1      28.981  23.818  22.452  0.00  0.00    +0.000 A 
ATOM      9  C   UNL     1      29.212  23.372  23.755  0.00  0.00    +0.000 A 
ATOM     10  C   UNL     1      30.604  23.176  24.243  0.00  0.00    +0.000 C 
ATOM     11  C   UNL     1      28.186  23.107  24.612  0.00  0.00    +0.000 A 
ENDBRANCH   1  11
BRANCH   2  12
ATOM     12  C   UNL     1      28.822  23.235  28.330  0.00  0.00    +0.000 A 
ATOM     13  C   UNL     1      27.722  23.094  29.193  0.00  0.00    +0.000 A 
ATOM     14  C   UNL     1      27.873  22.687  30.507  0.00  0.00    +0.000 A 
ATOM     15  C   UNL     1      29.140  22.417  30.976  0.00  0.00    +0.000 A 
ATOM     16  C   UNL     1      30.253  22.545  30.159  0.00  0.00    +0.000 A 
ATOM     17  C   UNL     1      30.068  22.958  28.833  0.00  0.00    +0.000 A 
ATOM     18  C   UNL     1      31.276  23.094  27.979  0.00  0.00    +0.000 C 
BRANCH  16  19
ATOM     19  N   UNL     1      31.561  22.327  30.642  0.00  0.00    +0.000 N 
ATOM     20  O   UNL     1      32.059  21.192  30.627  0.00  0.00    +0.000 OA
ATOM     21  O   UNL     1      32.327  23.365  31.133  0.00  0.00    +0.000 OA
ENDBRANCH  16  19
ENDBRANCH   2  12
TORSDOF 3
ENDMDL
MODEL 9
REMARK VINA RESULT:      -6.0      2.351      7.380
REMARK  Name = 
REMARK  3 active torsions:
REMARK  status: ('A' for Active; 'I' for Inactive)
REMARK    1  A    between atoms: C_8  and  N_9
REMARK    2  A    between atoms: C_10  and  C_12
REMARK    3  A    between atoms: C_16  and  N_17
REMARK                            x       y       z     vdW  Elec       q    Type
REMARK                         _______ _______ _______ _____ _____    ______ ____
ROOT
ATOM      1  N   UNL     1      17.814  10.978  37.972  0.00  0.00    +0.000 NA
ATOM      2  C   UNL     1      17.253  10.337  36.840  0.00  0.00    +0.000 C 
ATOM      3  O   UNL     1      17.528   9.091  36.616  0.00  0.00    +0.000 OA
ENDROOT
BRANCH   1  11
ATOM      4  C   UNL     1      16.677   9.661  40.111  0.00  0.00    +0.000 C 
ATOM      5  C   UNL     1      18.142   9.508  39.896  0.00  0.00    +0.000 A 
ATOM      6  C   UNL     1      18.925   8.736  40.751  0.00  0.00    +0.000 A 
ATOM      7  C   UNL     1      20.281   8.644  40.475  0.00  0.00    +0.000 A 
ATOM      8  C   UNL     1      20.821   9.290  39.408  0.00  0.00    +0.000 A 
ATOM      9  C   UNL     1      20.004  10.053  38.570  0.00  0.00    +0.000 A 
ATOM     10  C   UNL     1      20.586  10.756  37.395  0.00  0.00    +0.000 C 
ATOM     11  C   UNL     1      18.666  10.176  38.797  0.00  0.00    +0.000 A 
ENDBRANCH   1  11
BRANCH   2  12
ATOM     12  C   UNL     1      16.362  11.035  35.933  0.00  0.00    +0.000 A 
ATOM     13  C   UNL     1      15.360  11.876  36.445  0.00  0.00    +0.000 A 
ATOM     14  C   UNL     1      14.529  12.609  35.615  0.00  0.00    +0.000 A 
ATOM     15  C   UNL     1      14.695  12.505  34.251  0.00  0.00    +0.000 A 
ATOM     16  C   UNL     1      15.671  11.684  33.705  0.00  0.00    +0.000 A 
ATOM     17  C   UNL     1      16.496  10.955  34.570  0.00  0.00    +0.000 A 
ATOM     18  C   UNL     1      17.530  10.080  33.961  0.00  0.00    +0.000 C 
BRANCH  16  19
ATOM     19  N   UNL     1      15.814  11.524  32.310  0.00  0.00    +0.000 N 
ATOM     20  O   UNL     1      16.469  12.339  31.644  0.00  0.00    +0.000 OA
ATOM     21  O   UNL     1      15.242  10.456  31.648  0.00  0.00    +0.000 OA
ENDBRANCH  16  19
ENDBRANCH   2  12
TORSDOF 3
ENDMDL
MODEL 10
REMARK VINA RESULT:      -6.0     17.805     19.290
REMARK  Name = 
REMARK  3 active torsions:
REMARK  status: ('A' for Active; 'I' for Inactive)
REMARK    1  A    between atoms: C_8  and  N_9
REMARK    2  A    between atoms: C_10  and  C_12
REMARK    3  A    between atoms: C_16  and  N_17
REMARK                            x       y       z     vdW  Elec       q    Type
REMARK                         _______ _______ _______ _____ _____    ______ ____
ROOT
ATOM      1  N   UNL     1      27.912  25.115  25.531  0.00  0.00    +0.000 NA
ATOM      2  C   UNL     1      26.724  24.524  26.029  0.00  0.00    +0.000 C 
ATOM      3  O   UNL     1      25.902  23.960  25.201  0.00  0.00    +0.000 OA
ENDROOT
BRANCH   1  11
ATOM      4  C   UNL     1      26.949  27.183  23.983  0.00  0.00    +0.000 C 
ATOM      5  C   UNL     1      27.627  26.052  23.293  0.00  0.00    +0.000 A 
ATOM      6  C   UNL     1      27.765  26.024  21.907  0.00  0.00    +0.000 A 
ATOM      7  C   UNL     1      28.415  24.935  21.346  0.00  0.00    +0.000 A 
ATOM      8  C   UNL     1      28.895  23.932  22.127  0.00  0.00    +0.000 A 
ATOM      9  C   UNL     1      28.742  23.995  23.514  0.00  0.00    +0.000 A 
ATOM     10  C   UNL     1      29.271  22.905  24.376  0.00  0.00    +0.000 C 
ATOM     11  C   UNL     1      28.111  25.043  24.116  0.00  0.00    +0.000 A 
ENDBRANCH   1  11
BRANCH   2  12
ATOM     12  C   UNL     1      26.412  24.517  27.444  0.00  0.00    +0.000 A 
ATOM     13  C   UNL     1      25.722  25.600  28.016  0.00  0.00    +0.000 A 
ATOM     14  C   UNL     1      25.349  25.605  29.349  0.00  0.00    +0.000 A 
ATOM     15  C   UNL     1      25.667  24.516  30.130  0.00  0.00    +0.000 A 
ATOM     16  C   UNL     1      26.348  23.427  29.607  0.00  0.00    +0.000 A 
ATOM     17  C   UNL     1      26.712  23.451  28.254  0.00  0.00    +0.000 A 
ATOM     18  C   UNL     1      27.446  22.277  27.718  0.00  0.00    +0.000 C 
BRANCH  16  19
ATOM     19  N   UNL     1      26.730  22.331  30.409  0.00  0.00    +0.000 N 
ATOM     20  O   UNL     1      25.883  21.526  30.824  0.00  0.00    +0.000 OA
ATOM     21  O   UNL     1      28.051  22.115  30.746  0.00  0.00    +0.000 OA
ENDBRANCH  16  19
ENDBRANCH   2  12
TORSDOF 3
ENDMDL
