MODEL 1
REMARK VINA RESULT:      -8.5      0.000      0.000
REMARK  Name = 
REMARK  5 active torsions:
REMARK  status: ('A' for Active; 'I' for Inactive)
REMARK    1  A    between atoms: C_19  and  C_20
REMARK    2  A    between atoms: C_24  and  O_25
REMARK    3  A    between atoms: O_25  and  C_26
REMARK    4  A    between atoms: C_26  and  C_27
REMARK    5  A    between atoms: C_27  and  N_28
REMARK                            x       y       z     vdW  Elec       q    Type
REMARK                         _______ _______ _______ _____ _____    ______ ____
ROOT
ATOM      1  O   UNL     1      40.363  -0.213   7.988  0.00  0.00    +0.000 OA
ATOM      2  C   UNL     1      40.100  -0.579   9.320  0.00  0.00    +0.000 A 
ATOM      3  C   UNL     1      40.600  -1.760   9.786  0.00  0.00    +0.000 A 
ATOM      4  C   UNL     1      40.360  -2.156  11.091  0.00  0.00    +0.000 A 
ATOM      5  C   UNL     1      39.608  -1.352  11.939  0.00  0.00    +0.000 A 
ATOM      6  C   UNL     1      39.116  -0.166  11.441  0.00  0.00    +0.000 A 
ATOM      7  C   UNL     1      39.345   0.240  10.144  0.00  0.00    +0.000 A 
ATOM      8  C   UNL     1      38.348   0.510  12.512  0.00  0.00    +0.000 C 
ATOM      9  C   UNL     1      38.461  -0.386  13.679  0.00  0.00    +0.000 A 
ATOM     10  C   UNL     1      39.211  -1.511  13.340  0.00  0.00    +0.000 A 
ATOM     11  C   UNL     1      39.474  -2.509  14.251  0.00  0.00    +0.000 A 
ATOM     12  C   UNL     1      38.969  -2.359  15.521  0.00  0.00    +0.000 A 
ATOM     13  C   UNL     1      39.222  -3.356  16.440  0.00  0.00    +0.000 A 
ATOM     14  C   UNL     1      38.724  -3.246  17.732  0.00  0.00    +0.000 A 
ATOM     15  C   UNL     1      37.984  -2.119  18.043  0.00  0.00    +0.000 A 
ATOM     16  O   UNL     1      37.483  -2.016  19.351  0.00  0.00    +0.000 OA
ATOM     17  C   UNL     1      37.736  -1.132  17.128  0.00  0.00    +0.000 A 
ATOM     18  C   UNL     1      38.242  -1.259  15.841  0.00  0.00    +0.000 A 
ATOM     19  C   UNL     1      37.957  -0.235  14.950  0.00  0.00    +0.000 A 
ENDROOT
BRANCH  19  20
ATOM     20  C   UNL     1      37.139   0.886  15.386  0.00  0.00    +0.000 A 
ATOM     21  C   UNL     1      35.759   0.690  15.354  0.00  0.00    +0.000 A 
ATOM     22  C   UNL     1      34.888   1.676  15.740  0.00  0.00    +0.000 A 
ATOM     23  C   UNL     1      35.406   2.891  16.172  0.00  0.00    +0.000 A 
ATOM     24  C   UNL     1      36.776   3.097  16.205  0.00  0.00    +0.000 A 
ATOM     25  C   UNL     1      37.624   2.093  15.812  0.00  0.00    +0.000 A 
BRANCH  24  26
ATOM     26  O   UNL     1      37.248   4.345  16.647  0.00  0.00    +0.000 OA
BRANCH  26  27
ATOM     27  C   UNL     1      38.649   4.498  16.848  0.00  0.00    +0.000 C 
BRANCH  27  28
ATOM     28  C   UNL     1      38.813   4.966  18.283  0.00  0.00    +0.000 C 
BRANCH  28  29
ATOM     29  N   UNL     1      39.583   6.156  18.432  0.00  0.00    +0.000 NA
ATOM     30  C   UNL     1      39.776   6.611  19.775  0.00  0.00    +0.000 C 
ATOM     31  C   UNL     1      41.251   6.413  20.087  0.00  0.00    +0.000 C 
ATOM     32  C   UNL     1      41.899   6.523  18.726  0.00  0.00    +0.000 C 
ATOM     33  C   UNL     1      40.825   6.177  17.738  0.00  0.00    +0.000 C 
ENDBRANCH  28  29
ENDBRANCH  27  28
ENDBRANCH  26  27
ENDBRANCH  24  26
ENDBRANCH  19  20
TORSDOF 5
ENDMDL
MODEL 2
REMARK VINA RESULT:      -8.4     26.175     29.567
REMARK  Name = 
REMARK  5 active torsions:
REMARK  status: ('A' for Active; 'I' for Inactive)
REMARK    1  A    between atoms: C_19  and  C_20
REMARK    2  A    between atoms: C_24  and  O_25
REMARK    3  A    between atoms: O_25  and  C_26
REMARK    4  A    between atoms: C_26  and  C_27
REMARK    5  A    between atoms: C_27  and  N_28
REMARK                            x       y       z     vdW  Elec       q    Type
REMARK                         _______ _______ _______ _____ _____    ______ ____
ROOT
ATOM      1  O   UNL     1      22.463  15.162  42.039  0.00  0.00    +0.000 OA
ATOM      2  C   UNL     1      23.584  15.241  41.193  0.00  0.00    +0.000 A 
ATOM      3  C   UNL     1      24.828  15.257  41.753  0.00  0.00    +0.000 A 
ATOM      4  C   UNL     1      25.955  15.336  40.953  0.00  0.00    +0.000 A 
ATOM      5  C   UNL     1      25.829  15.400  39.571  0.00  0.00    +0.000 A 
ATOM      6  C   UNL     1      24.560  15.383  39.034  0.00  0.00    +0.000 A 
ATOM      7  C   UNL     1      23.429  15.306  39.818  0.00  0.00    +0.000 A 
ATOM      8  C   UNL     1      24.673  15.468  37.560  0.00  0.00    +0.000 C 
ATOM      9  C   UNL     1      26.125  15.513  37.295  0.00  0.00    +0.000 A 
ATOM     10  C   UNL     1      26.825  15.480  38.500  0.00  0.00    +0.000 A 
ATOM     11  C   UNL     1      28.201  15.506  38.540  0.00  0.00    +0.000 A 
ATOM     12  C   UNL     1      28.870  15.565  37.341  0.00  0.00    +0.000 A 
ATOM     13  C   UNL     1      30.249  15.597  37.370  0.00  0.00    +0.000 A 
ATOM     14  C   UNL     1      30.963  15.664  36.180  0.00  0.00    +0.000 A 
ATOM     15  C   UNL     1      30.243  15.694  34.999  0.00  0.00    +0.000 A 
ATOM     16  O   UNL     1      30.973  15.763  33.800  0.00  0.00    +0.000 OA
ATOM     17  C   UNL     1      28.875  15.661  34.974  0.00  0.00    +0.000 A 
ATOM     18  C   UNL     1      28.178  15.595  36.174  0.00  0.00    +0.000 A 
ATOM     19  C   UNL     1      26.794  15.571  36.095  0.00  0.00    +0.000 A 
ENDROOT
BRANCH  19  20
ATOM     20  C   UNL     1      26.149  15.640  34.793  0.00  0.00    +0.000 A 
ATOM     21  C   UNL     1      26.049  14.439  34.092  0.00  0.00    +0.000 A 
ATOM     22  C   UNL     1      25.463  14.381  32.855  0.00  0.00    +0.000 A 
ATOM     23  C   UNL     1      24.960  15.551  32.300  0.00  0.00    +0.000 A 
ATOM     24  C   UNL     1      25.056  16.751  32.987  0.00  0.00    +0.000 A 
ATOM     25  C   UNL     1      25.649  16.780  34.225  0.00  0.00    +0.000 A 
BRANCH  24  26
ATOM     26  O   UNL     1      24.533  17.907  32.381  0.00  0.00    +0.000 OA
BRANCH  26  27
ATOM     27  C   UNL     1      24.346  19.061  33.191  0.00  0.00    +0.000 C 
BRANCH  27  28
ATOM     28  C   UNL     1      25.082  20.186  32.486  0.00  0.00    +0.000 C 
BRANCH  28  29
ATOM     29  N   UNL     1      26.024  20.878  33.301  0.00  0.00    +0.000 NA
ATOM     30  C   UNL     1      26.355  20.249  34.543  0.00  0.00    +0.000 C 
ATOM     31  C   UNL     1      27.801  19.792  34.421  0.00  0.00    +0.000 C 
ATOM     32  C   UNL     1      28.382  20.780  33.436  0.00  0.00    +0.000 C 
ATOM     33  C   UNL     1      27.216  21.296  32.646  0.00  0.00    +0.000 C 
ENDBRANCH  28  29
ENDBRANCH  27  28
ENDBRANCH  26  27
ENDBRANCH  24  26
ENDBRANCH  19  20
TORSDOF 5
ENDMDL
MODEL 3
REMARK VINA RESULT:      -8.3      2.775      7.977
REMARK  Name = 
REMARK  5 active torsions:
REMARK  status: ('A' for Active; 'I' for Inactive)
REMARK    1  A    between atoms: C_19  and  C_20
REMARK    2  A    between atoms: C_24  and  O_25
REMARK    3  A    between atoms: O_25  and  C_26
REMARK    4  A    between atoms: C_26  and  C_27
REMARK    5  A    between atoms: C_27  and  N_28
REMARK                            x       y       z     vdW  Elec       q    Type
REMARK                         _______ _______ _______ _____ _____    ______ ____
ROOT
ATOM      1  O   UNL     1      40.553   7.709  20.380  0.00  0.00    +0.000 OA
ATOM      2  C   UNL     1      40.242   7.043  19.181  0.00  0.00    +0.000 A 
ATOM      3  C   UNL     1      40.821   7.473  18.023  0.00  0.00    +0.000 A 
ATOM      4  C   UNL     1      40.539   6.844  16.822  0.00  0.00    +0.000 A 
ATOM      5  C   UNL     1      39.662   5.766  16.787  0.00  0.00    +0.000 A 
ATOM      6  C   UNL     1      39.092   5.355  17.971  0.00  0.00    +0.000 A 
ATOM      7  C   UNL     1      39.363   5.972  19.173  0.00  0.00    +0.000 A 
ATOM      8  C   UNL     1      38.196   4.209  17.689  0.00  0.00    +0.000 C 
ATOM      9  C   UNL     1      38.320   3.984  16.235  0.00  0.00    +0.000 A 
ATOM     10  C   UNL     1      39.194   4.922  15.686  0.00  0.00    +0.000 A 
ATOM     11  C   UNL     1      39.492   4.934  14.341  0.00  0.00    +0.000 A 
ATOM     12  C   UNL     1      38.896   3.982  13.550  0.00  0.00    +0.000 A 
ATOM     13  C   UNL     1      39.184   3.989  12.201  0.00  0.00    +0.000 A 
ATOM     14  C   UNL     1      38.597   3.047  11.364  0.00  0.00    +0.000 A 
ATOM     15  C   UNL     1      37.735   2.128  11.936  0.00  0.00    +0.000 A 
ATOM     16  O   UNL     1      37.145   1.180  11.084  0.00  0.00    +0.000 OA
ATOM     17  C   UNL     1      37.453   2.124  13.276  0.00  0.00    +0.000 A 
ATOM     18  C   UNL     1      38.049   3.073  14.096  0.00  0.00    +0.000 A 
ATOM     19  C   UNL     1      37.725   3.031  15.443  0.00  0.00    +0.000 A 
ENDROOT
BRANCH  19  20
ATOM     20  C   UNL     1      36.779   2.034  15.921  0.00  0.00    +0.000 A 
ATOM     21  C   UNL     1      35.466   2.469  16.103  0.00  0.00    +0.000 A 
ATOM     22  C   UNL     1      34.488   1.621  16.550  0.00  0.00    +0.000 A 
ATOM     23  C   UNL     1      34.825   0.301  16.824  0.00  0.00    +0.000 A 
ATOM     24  C   UNL     1      36.126  -0.141  16.649  0.00  0.00    +0.000 A 
ATOM     25  C   UNL     1      37.086   0.730  16.200  0.00  0.00    +0.000 A 
BRANCH  24  26
ATOM     26  O   UNL     1      36.415  -1.486  16.943  0.00  0.00    +0.000 OA
BRANCH  26  27
ATOM     27  C   UNL     1      37.779  -1.888  16.963  0.00  0.00    +0.000 C 
BRANCH  27  28
ATOM     28  C   UNL     1      37.889  -3.029  15.967  0.00  0.00    +0.000 C 
BRANCH  28  29
ATOM     29  N   UNL     1      38.921  -2.869  14.997  0.00  0.00    +0.000 NA
ATOM     30  C   UNL     1      38.502  -2.403  13.711  0.00  0.00    +0.000 C 
ATOM     31  C   UNL     1      39.061  -0.996  13.561  0.00  0.00    +0.000 C 
ATOM     32  C   UNL     1      40.297  -1.032  14.430  0.00  0.00    +0.000 C 
ATOM     33  C   UNL     1      40.059  -2.129  15.425  0.00  0.00    +0.000 C 
ENDBRANCH  28  29
ENDBRANCH  27  28
ENDBRANCH  26  27
ENDBRANCH  24  26
ENDBRANCH  19  20
TORSDOF 5
ENDMDL
MODEL 4
REMARK VINA RESULT:      -8.2      6.235      9.937
REMARK  Name = 
REMARK  5 active torsions:
REMARK  status: ('A' for Active; 'I' for Inactive)
REMARK    1  A    between atoms: C_19  and  C_20
REMARK    2  A    between atoms: C_24  and  O_25
REMARK    3  A    between atoms: O_25  and  C_26
REMARK    4  A    between atoms: C_26  and  C_27
REMARK    5  A    between atoms: C_27  and  N_28
REMARK                            x       y       z     vdW  Elec       q    Type
REMARK                         _______ _______ _______ _____ _____    ______ ____
ROOT
ATOM      1  O   UNL     1      32.948   9.152   6.646  0.00  0.00    +0.000 OA
ATOM      2  C   UNL     1      33.436   7.878   6.303  0.00  0.00    +0.000 A 
ATOM      3  C   UNL     1      33.147   7.376   5.068  0.00  0.00    +0.000 A 
ATOM      4  C   UNL     1      33.609   6.124   4.695  0.00  0.00    +0.000 A 
ATOM      5  C   UNL     1      34.372   5.369   5.577  0.00  0.00    +0.000 A 
ATOM      6  C   UNL     1      34.647   5.902   6.817  0.00  0.00    +0.000 A 
ATOM      7  C   UNL     1      34.194   7.145   7.203  0.00  0.00    +0.000 A 
ATOM      8  C   UNL     1      35.459   4.925   7.579  0.00  0.00    +0.000 C 
ATOM      9  C   UNL     1      35.645   3.789   6.655  0.00  0.00    +0.000 A 
ATOM     10  C   UNL     1      34.987   4.046   5.453  0.00  0.00    +0.000 A 
ATOM     11  C   UNL     1      35.005   3.147   4.410  0.00  0.00    +0.000 A 
ATOM     12  C   UNL     1      35.699   1.975   4.594  0.00  0.00    +0.000 A 
ATOM     13  C   UNL     1      35.717   1.065   3.557  0.00  0.00    +0.000 A 
ATOM     14  C   UNL     1      36.402  -0.136   3.704  0.00  0.00    +0.000 A 
ATOM     15  C   UNL     1      37.046  -0.365   4.907  0.00  0.00    +0.000 A 
ATOM     16  O   UNL     1      37.735  -1.581   5.049  0.00  0.00    +0.000 OA
ATOM     17  C   UNL     1      37.026   0.541   5.933  0.00  0.00    +0.000 A 
ATOM     18  C   UNL     1      36.337   1.736   5.767  0.00  0.00    +0.000 A 
ATOM     19  C   UNL     1      36.340   2.616   6.838  0.00  0.00    +0.000 A 
ENDROOT
BRANCH  19  20
ATOM     20  C   UNL     1      37.029   2.248   8.066  0.00  0.00    +0.000 A 
ATOM     21  C   UNL     1      38.377   2.597   8.144  0.00  0.00    +0.000 A 
ATOM     22  C   UNL     1      39.128   2.302   9.250  0.00  0.00    +0.000 A 
ATOM     23  C   UNL     1      38.521   1.641  10.311  0.00  0.00    +0.000 A 
ATOM     24  C   UNL     1      37.183   1.288  10.244  0.00  0.00    +0.000 A 
ATOM     25  C   UNL     1      36.454   1.596   9.123  0.00  0.00    +0.000 A 
BRANCH  24  26
ATOM     26  O   UNL     1      36.617   0.619  11.343  0.00  0.00    +0.000 OA
BRANCH  26  27
ATOM     27  C   UNL     1      37.325   0.644  12.578  0.00  0.00    +0.000 C 
BRANCH  27  28
ATOM     28  C   UNL     1      36.478   1.478  13.523  0.00  0.00    +0.000 C 
BRANCH  28  29
ATOM     29  N   UNL     1      36.650   1.165  14.902  0.00  0.00    +0.000 NA
ATOM     30  C   UNL     1      36.235   2.174  15.828  0.00  0.00    +0.000 C 
ATOM     31  C   UNL     1      35.010   1.623  16.542  0.00  0.00    +0.000 C 
ATOM     32  C   UNL     1      35.232   0.129  16.485  0.00  0.00    +0.000 C 
ATOM     33  C   UNL     1      36.142  -0.099  15.315  0.00  0.00    +0.000 C 
ENDBRANCH  28  29
ENDBRANCH  27  28
ENDBRANCH  26  27
ENDBRANCH  24  26
ENDBRANCH  19  20
TORSDOF 5
ENDMDL
MODEL 5
REMARK VINA RESULT:      -8.1      3.170      8.086
REMARK  Name = 
REMARK  5 active torsions:
REMARK  status: ('A' for Active; 'I' for Inactive)
REMARK    1  A    between atoms: C_19  and  C_20
REMARK    2  A    between atoms: C_24  and  O_25
REMARK    3  A    between atoms: O_25  and  C_26
REMARK    4  A    between atoms: C_26  and  C_27
REMARK    5  A    between atoms: C_27  and  N_28
REMARK                            x       y       z     vdW  Elec       q    Type
REMARK                         _______ _______ _______ _____ _____    ______ ____
ROOT
ATOM      1  O   UNL     1      40.847   7.552  20.606  0.00  0.00    +0.000 OA
ATOM      2  C   UNL     1      40.593   6.950  19.360  0.00  0.00    +0.000 A 
ATOM      3  C   UNL     1      41.310   7.361  18.275  0.00  0.00    +0.000 A 
ATOM      4  C   UNL     1      41.087   6.793  17.032  0.00  0.00    +0.000 A 
ATOM      5  C   UNL     1      40.130   5.798  16.879  0.00  0.00    +0.000 A 
ATOM      6  C   UNL     1      39.421   5.403  17.992  0.00  0.00    +0.000 A 
ATOM      7  C   UNL     1      39.631   5.960  19.235  0.00  0.00    +0.000 A 
ATOM      8  C   UNL     1      38.462   4.348  17.589  0.00  0.00    +0.000 C 
ATOM      9  C   UNL     1      38.700   4.156  16.145  0.00  0.00    +0.000 A 
ATOM     10  C   UNL     1      39.696   5.029  15.711  0.00  0.00    +0.000 A 
ATOM     11  C   UNL     1      40.117   5.054  14.399  0.00  0.00    +0.000 A 
ATOM     12  C   UNL     1      39.518   4.180  13.524  0.00  0.00    +0.000 A 
ATOM     13  C   UNL     1      39.929   4.201  12.207  0.00  0.00    +0.000 A 
ATOM     14  C   UNL     1      39.345   3.338  11.288  0.00  0.00    +0.000 A 
ATOM     15  C   UNL     1      38.359   2.481  11.747  0.00  0.00    +0.000 A 
ATOM     16  O   UNL     1      37.773   1.613  10.811  0.00  0.00    +0.000 OA
ATOM     17  C   UNL     1      37.956   2.463  13.054  0.00  0.00    +0.000 A 
ATOM     18  C   UNL     1      38.551   3.333  13.958  0.00  0.00    +0.000 A 
ATOM     19  C   UNL     1      38.102   3.281  15.269  0.00  0.00    +0.000 A 
ENDROOT
BRANCH  19  20
ATOM     20  C   UNL     1      37.036   2.357  15.624  0.00  0.00    +0.000 A 
ATOM     21  C   UNL     1      35.875   2.928  16.147  0.00  0.00    +0.000 A 
ATOM     22  C   UNL     1      34.805   2.158  16.518  0.00  0.00    +0.000 A 
ATOM     23  C   UNL     1      34.890   0.780  16.364  0.00  0.00    +0.000 A 
ATOM     24  C   UNL     1      36.039   0.201  15.848  0.00  0.00    +0.000 A 
ATOM     25  C   UNL     1      37.096   0.997  15.485  0.00  0.00    +0.000 A 
BRANCH  24  26
ATOM     26  O   UNL     1      36.075  -1.198  15.715  0.00  0.00    +0.000 OA
BRANCH  26  27
ATOM     27  C   UNL     1      35.428  -1.981  16.711  0.00  0.00    +0.000 C 
BRANCH  27  28
ATOM     28  C   UNL     1      36.412  -3.078  17.080  0.00  0.00    +0.000 C 
BRANCH  28  29
ATOM     29  N   UNL     1      37.558  -2.626  17.795  0.00  0.00    +0.000 NA
ATOM     30  C   UNL     1      37.300  -1.783  18.922  0.00  0.00    +0.000 C 
ATOM     31  C   UNL     1      37.673  -2.589  20.156  0.00  0.00    +0.000 C 
ATOM     32  C   UNL     1      38.740  -3.525  19.634  0.00  0.00    +0.000 C 
ATOM     33  C   UNL     1      38.494  -3.634  18.159  0.00  0.00    +0.000 C 
ENDBRANCH  28  29
ENDBRANCH  27  28
ENDBRANCH  26  27
ENDBRANCH  24  26
ENDBRANCH  19  20
TORSDOF 5
ENDMDL
MODEL 6
REMARK VINA RESULT:      -8.0      2.779      4.926
REMARK  Name = 
REMARK  5 active torsions:
REMARK  status: ('A' for Active; 'I' for Inactive)
REMARK    1  A    between atoms: C_19  and  C_20
REMARK    2  A    between atoms: C_24  and  O_25
REMARK    3  A    between atoms: O_25  and  C_26
REMARK    4  A    between atoms: C_26  and  C_27
REMARK    5  A    between atoms: C_27  and  N_28
REMARK                            x       y       z     vdW  Elec       q    Type
REMARK                         _______ _______ _______ _____ _____    ______ ____
ROOT
ATOM      1  O   UNL     1      34.185  -4.122  15.998  0.00  0.00    +0.000 OA
ATOM      2  C   UNL     1      35.472  -3.617  15.736  0.00  0.00    +0.000 A 
ATOM      3  C   UNL     1      36.551  -4.412  15.990  0.00  0.00    +0.000 A 
ATOM      4  C   UNL     1      37.834  -3.951  15.748  0.00  0.00    +0.000 A 
ATOM      5  C   UNL     1      38.032  -2.671  15.242  0.00  0.00    +0.000 A 
ATOM      6  C   UNL     1      36.924  -1.892  14.997  0.00  0.00    +0.000 A 
ATOM      7  C   UNL     1      35.642  -2.337  15.234  0.00  0.00    +0.000 A 
ATOM      8  C   UNL     1      37.378  -0.581  14.476  0.00  0.00    +0.000 C 
ATOM      9  C   UNL     1      38.849  -0.686  14.423  0.00  0.00    +0.000 A 
ATOM     10  C   UNL     1      39.250  -1.938  14.889  0.00  0.00    +0.000 A 
ATOM     11  C   UNL     1      40.577  -2.301  14.942  0.00  0.00    +0.000 A 
ATOM     12  C   UNL     1      41.504  -1.381  14.514  0.00  0.00    +0.000 A 
ATOM     13  C   UNL     1      42.837  -1.733  14.569  0.00  0.00    +0.000 A 
ATOM     14  C   UNL     1      43.808  -0.830  14.152  0.00  0.00    +0.000 A 
ATOM     15  C   UNL     1      43.382   0.404  13.692  0.00  0.00    +0.000 A 
ATOM     16  O   UNL     1      44.369   1.313  13.274  0.00  0.00    +0.000 OA
ATOM     17  C   UNL     1      42.058   0.749  13.640  0.00  0.00    +0.000 A 
ATOM     18  C   UNL     1      41.103  -0.167  14.060  0.00  0.00    +0.000 A 
ATOM     19  C   UNL     1      39.777   0.233  13.994  0.00  0.00    +0.000 A 
ENDROOT
BRANCH  19  20
ATOM     20  C   UNL     1      39.456   1.571  13.521  0.00  0.00    +0.000 A 
ATOM     21  C   UNL     1      39.267   1.709  12.146  0.00  0.00    +0.000 A 
ATOM     22  C   UNL     1      38.962   2.921  11.585  0.00  0.00    +0.000 A 
ATOM     23  C   UNL     1      38.838   4.028  12.416  0.00  0.00    +0.000 A 
ATOM     24  C   UNL     1      39.026   3.903  13.784  0.00  0.00    +0.000 A 
ATOM     25  C   UNL     1      39.332   2.677  14.318  0.00  0.00    +0.000 A 
BRANCH  24  26
ATOM     26  O   UNL     1      38.893   5.054  14.580  0.00  0.00    +0.000 OA
BRANCH  26  27
ATOM     27  C   UNL     1      39.126   4.932  15.978  0.00  0.00    +0.000 C 
BRANCH  27  28
ATOM     28  C   UNL     1      38.726   6.266  16.583  0.00  0.00    +0.000 C 
BRANCH  28  29
ATOM     29  N   UNL     1      38.378   6.207  17.963  0.00  0.00    +0.000 NA
ATOM     30  C   UNL     1      39.216   5.388  18.784  0.00  0.00    +0.000 C 
ATOM     31  C   UNL     1      39.976   6.334  19.701  0.00  0.00    +0.000 C 
ATOM     32  C   UNL     1      39.035   7.510  19.823  0.00  0.00    +0.000 C 
ATOM     33  C   UNL     1      38.169   7.463  18.600  0.00  0.00    +0.000 C 
ENDBRANCH  28  29
ENDBRANCH  27  28
ENDBRANCH  26  27
ENDBRANCH  24  26
ENDBRANCH  19  20
TORSDOF 5
ENDMDL
MODEL 7
REMARK VINA RESULT:      -8.0      3.631      7.717
REMARK  Name = 
REMARK  5 active torsions:
REMARK  status: ('A' for Active; 'I' for Inactive)
REMARK    1  A    between atoms: C_19  and  C_20
REMARK    2  A    between atoms: C_24  and  O_25
REMARK    3  A    between atoms: O_25  and  C_26
REMARK    4  A    between atoms: C_26  and  C_27
REMARK    5  A    between atoms: C_27  and  N_28
REMARK                            x       y       z     vdW  Elec       q    Type
REMARK                         _______ _______ _______ _____ _____    ______ ____
ROOT
ATOM      1  O   UNL     1      38.988  -4.878  18.500  0.00  0.00    +0.000 OA
ATOM      2  C   UNL     1      38.465  -3.694  17.952  0.00  0.00    +0.000 A 
ATOM      3  C   UNL     1      37.321  -3.175  18.484  0.00  0.00    +0.000 A 
ATOM      4  C   UNL     1      36.774  -2.011  17.971  0.00  0.00    +0.000 A 
ATOM      5  C   UNL     1      37.387  -1.361  16.907  0.00  0.00    +0.000 A 
ATOM      6  C   UNL     1      38.540  -1.908  16.389  0.00  0.00    +0.000 A 
ATOM      7  C   UNL     1      39.095  -3.066  16.889  0.00  0.00    +0.000 A 
ATOM      8  C   UNL     1      39.003  -1.056  15.269  0.00  0.00    +0.000 C 
ATOM      9  C   UNL     1      38.023   0.045  15.204  0.00  0.00    +0.000 A 
ATOM     10  C   UNL     1      37.045  -0.136  16.181  0.00  0.00    +0.000 A 
ATOM     11  C   UNL     1      36.007   0.756  16.342  0.00  0.00    +0.000 A 
ATOM     12  C   UNL     1      35.968   1.843  15.501  0.00  0.00    +0.000 A 
ATOM     13  C   UNL     1      34.929   2.738  15.650  0.00  0.00    +0.000 A 
ATOM     14  C   UNL     1      34.849   3.847  14.816  0.00  0.00    +0.000 A 
ATOM     15  C   UNL     1      35.834   4.003  13.856  0.00  0.00    +0.000 A 
ATOM     16  O   UNL     1      35.744   5.125  13.016  0.00  0.00    +0.000 OA
ATOM     17  C   UNL     1      36.862   3.111  13.712  0.00  0.00    +0.000 A 
ATOM     18  C   UNL     1      36.927   2.010  14.555  0.00  0.00    +0.000 A 
ATOM     19  C   UNL     1      37.983   1.133  14.364  0.00  0.00    +0.000 A 
ENDROOT
BRANCH  19  20
ATOM     20  C   UNL     1      38.941   1.387  13.298  0.00  0.00    +0.000 A 
ATOM     21  C   UNL     1      39.952   2.304  13.585  0.00  0.00    +0.000 A 
ATOM     22  C   UNL     1      40.910   2.624  12.659  0.00  0.00    +0.000 A 
ATOM     23  C   UNL     1      40.861   2.014  11.412  0.00  0.00    +0.000 A 
ATOM     24  C   UNL     1      39.859   1.104  11.115  0.00  0.00    +0.000 A 
ATOM     25  C   UNL     1      38.913   0.802  12.061  0.00  0.00    +0.000 A 
BRANCH  24  26
ATOM     26  O   UNL     1      39.853   0.517   9.837  0.00  0.00    +0.000 OA
BRANCH  26  27
ATOM     27  C   UNL     1      40.946  -0.323   9.482  0.00  0.00    +0.000 C 
BRANCH  27  28
ATOM     28  C   UNL     1      40.584  -1.709   9.988  0.00  0.00    +0.000 C 
BRANCH  28  29
ATOM     29  N   UNL     1      41.526  -2.270  10.896  0.00  0.00    +0.000 NA
ATOM     30  C   UNL     1      42.460  -1.352  11.475  0.00  0.00    +0.000 C 
ATOM     31  C   UNL     1      42.103  -1.250  12.950  0.00  0.00    +0.000 C 
ATOM     32  C   UNL     1      41.477  -2.595  13.238  0.00  0.00    +0.000 C 
ATOM     33  C   UNL     1      40.981  -3.100  11.916  0.00  0.00    +0.000 C 
ENDBRANCH  28  29
ENDBRANCH  27  28
ENDBRANCH  26  27
ENDBRANCH  24  26
ENDBRANCH  19  20
TORSDOF 5
ENDMDL
MODEL 8
REMARK VINA RESULT:      -7.9     24.284     28.089
REMARK  Name = 
REMARK  5 active torsions:
REMARK  status: ('A' for Active; 'I' for Inactive)
REMARK    1  A    between atoms: C_19  and  C_20
REMARK    2  A    between atoms: C_24  and  O_25
REMARK    3  A    between atoms: O_25  and  C_26
REMARK    4  A    between atoms: C_26  and  C_27
REMARK    5  A    between atoms: C_27  and  N_28
REMARK                            x       y       z     vdW  Elec       q    Type
REMARK                         _______ _______ _______ _____ _____    ______ ____
ROOT
ATOM      1  O   UNL     1       9.319  -6.482  24.523  0.00  0.00    +0.000 OA
ATOM      2  C   UNL     1       9.513  -5.118  24.808  0.00  0.00    +0.000 A 
ATOM      3  C   UNL     1       8.456  -4.265  24.678  0.00  0.00    +0.000 A 
ATOM      4  C   UNL     1       8.608  -2.915  24.948  0.00  0.00    +0.000 A 
ATOM      5  C   UNL     1       9.840  -2.418  25.354  0.00  0.00    +0.000 A 
ATOM      6  C   UNL     1      10.889  -3.303  25.475  0.00  0.00    +0.000 A 
ATOM      7  C   UNL     1      10.753  -4.648  25.209  0.00  0.00    +0.000 A 
ATOM      8  C   UNL     1      12.090  -2.551  25.908  0.00  0.00    +0.000 C 
ATOM      9  C   UNL     1      11.631  -1.155  26.046  0.00  0.00    +0.000 A 
ATOM     10  C   UNL     1      10.281  -1.067  25.707  0.00  0.00    +0.000 A 
ATOM     11  C   UNL     1       9.598   0.129  25.754  0.00  0.00    +0.000 A 
ATOM     12  C   UNL     1      10.298   1.243  26.151  0.00  0.00    +0.000 A 
ATOM     13  C   UNL     1       9.624   2.447  26.196  0.00  0.00    +0.000 A 
ATOM     14  C   UNL     1      10.295   3.599  26.586  0.00  0.00    +0.000 A 
ATOM     15  C   UNL     1      11.634   3.483  26.918  0.00  0.00    +0.000 A 
ATOM     16  O   UNL     1      12.306   4.652  27.310  0.00  0.00    +0.000 OA
ATOM     17  C   UNL     1      12.298   2.287  26.873  0.00  0.00    +0.000 A 
ATOM     18  C   UNL     1      11.610   1.145  26.481  0.00  0.00    +0.000 A 
ATOM     19  C   UNL     1      12.329  -0.040  26.444  0.00  0.00    +0.000 A 
ENDROOT
BRANCH  19  20
ATOM     20  C   UNL     1      13.743  -0.030  26.786  0.00  0.00    +0.000 A 
ATOM     21  C   UNL     1      14.052   0.227  28.122  0.00  0.00    +0.000 A 
ATOM     22  C   UNL     1      15.349   0.262  28.561  0.00  0.00    +0.000 A 
ATOM     23  C   UNL     1      16.369   0.034  27.646  0.00  0.00    +0.000 A 
ATOM     24  C   UNL     1      16.074  -0.220  26.316  0.00  0.00    +0.000 A 
ATOM     25  C   UNL     1      14.766  -0.249  25.903  0.00  0.00    +0.000 A 
BRANCH  24  26
ATOM     26  O   UNL     1      17.143  -0.441  25.430  0.00  0.00    +0.000 OA
BRANCH  26  27
ATOM     27  C   UNL     1      18.361   0.258  25.662  0.00  0.00    +0.000 C 
BRANCH  27  28
ATOM     28  C   UNL     1      18.985   0.469  24.294  0.00  0.00    +0.000 C 
BRANCH  28  29
ATOM     29  N   UNL     1      20.122  -0.347  24.032  0.00  0.00    +0.000 NA
ATOM     30  C   UNL     1      19.847  -1.703  23.664  0.00  0.00    +0.000 C 
ATOM     31  C   UNL     1      20.244  -1.840  22.202  0.00  0.00    +0.000 C 
ATOM     32  C   UNL     1      21.331  -0.800  22.051  0.00  0.00    +0.000 C 
ATOM     33  C   UNL     1      21.083   0.203  23.138  0.00  0.00    +0.000 C 
ENDBRANCH  28  29
ENDBRANCH  27  28
ENDBRANCH  26  27
ENDBRANCH  24  26
ENDBRANCH  19  20
TORSDOF 5
ENDMDL
MODEL 9
REMARK VINA RESULT:      -7.9      2.728      3.664
REMARK  Name = 
REMARK  5 active torsions:
REMARK  status: ('A' for Active; 'I' for Inactive)
REMARK    1  A    between atoms: C_19  and  C_20
REMARK    2  A    between atoms: C_24  and  O_25
REMARK    3  A    between atoms: O_25  and  C_26
REMARK    4  A    between atoms: C_26  and  C_27
REMARK    5  A    between atoms: C_27  and  N_28
REMARK                            x       y       z     vdW  Elec       q    Type
REMARK                         _______ _______ _______ _____ _____    ______ ____
ROOT
ATOM      1  O   UNL     1      44.739  -1.525  12.740  0.00  0.00    +0.000 OA
ATOM      2  C   UNL     1      43.460  -1.258  13.261  0.00  0.00    +0.000 A 
ATOM      3  C   UNL     1      42.853  -2.211  14.025  0.00  0.00    +0.000 A 
ATOM      4  C   UNL     1      41.593  -1.987  14.555  0.00  0.00    +0.000 A 
ATOM      5  C   UNL     1      40.936  -0.786  14.312  0.00  0.00    +0.000 A 
ATOM      6  C   UNL     1      41.574   0.157  13.537  0.00  0.00    +0.000 A 
ATOM      7  C   UNL     1      42.827  -0.053  13.002  0.00  0.00    +0.000 A 
ATOM      8  C   UNL     1      40.689   1.337  13.409  0.00  0.00    +0.000 C 
ATOM      9  C   UNL     1      39.491   0.996  14.202  0.00  0.00    +0.000 A 
ATOM     10  C   UNL     1      39.630  -0.282  14.741  0.00  0.00    +0.000 A 
ATOM     11  C   UNL     1      38.653  -0.846  15.530  0.00  0.00    +0.000 A 
ATOM     12  C   UNL     1      37.524  -0.101  15.773  0.00  0.00    +0.000 A 
ATOM     13  C   UNL     1      36.536  -0.660  16.557  0.00  0.00    +0.000 A 
ATOM     14  C   UNL     1      35.376   0.058  16.822  0.00  0.00    +0.000 A 
ATOM     15  C   UNL     1      35.265   1.325  16.275  0.00  0.00    +0.000 A 
ATOM     16  O   UNL     1      34.088   2.043  16.546  0.00  0.00    +0.000 OA
ATOM     17  C   UNL     1      36.247   1.875  15.498  0.00  0.00    +0.000 A 
ATOM     18  C   UNL     1      37.400   1.143  15.245  0.00  0.00    +0.000 A 
ATOM     19  C   UNL     1      38.362   1.742  14.446  0.00  0.00    +0.000 A 
ENDROOT
BRANCH  19  20
ATOM     20  C   UNL     1      38.115   3.069  13.902  0.00  0.00    +0.000 A 
ATOM     21  C   UNL     1      37.378   3.122  12.719  0.00  0.00    +0.000 A 
ATOM     22  C   UNL     1      37.085   4.315  12.113  0.00  0.00    +0.000 A 
ATOM     23  C   UNL     1      37.537   5.490  12.701  0.00  0.00    +0.000 A 
ATOM     24  C   UNL     1      38.272   5.449  13.875  0.00  0.00    +0.000 A 
ATOM     25  C   UNL     1      38.551   4.240  14.460  0.00  0.00    +0.000 A 
BRANCH  24  26
ATOM     26  O   UNL     1      38.707   6.666  14.428  0.00  0.00    +0.000 OA
BRANCH  26  27
ATOM     27  C   UNL     1      39.607   6.617  15.530  0.00  0.00    +0.000 C 
BRANCH  27  28
ATOM     28  C   UNL     1      39.211   7.768  16.438  0.00  0.00    +0.000 C 
BRANCH  28  29
ATOM     29  N   UNL     1      38.685   7.370  17.701  0.00  0.00    +0.000 NA
ATOM     30  C   UNL     1      38.340   5.987  17.825  0.00  0.00    +0.000 C 
ATOM     31  C   UNL     1      39.338   5.381  18.800  0.00  0.00    +0.000 C 
ATOM     32  C   UNL     1      39.716   6.559  19.668  0.00  0.00    +0.000 C 
ATOM     33  C   UNL     1      39.437   7.778  18.838  0.00  0.00    +0.000 C 
ENDBRANCH  28  29
ENDBRANCH  27  28
ENDBRANCH  26  27
ENDBRANCH  24  26
ENDBRANCH  19  20
TORSDOF 5
ENDMDL
MODEL 10
REMARK VINA RESULT:      -7.8      3.783      6.626
REMARK  Name = 
REMARK  5 active torsions:
REMARK  status: ('A' for Active; 'I' for Inactive)
REMARK    1  A    between atoms: C_19  and  C_20
REMARK    2  A    between atoms: C_24  and  O_25
REMARK    3  A    between atoms: O_25  and  C_26
REMARK    4  A    between atoms: C_26  and  C_27
REMARK    5  A    between atoms: C_27  and  N_28
REMARK                            x       y       z     vdW  Elec       q    Type
REMARK                         _______ _______ _______ _____ _____    ______ ____
ROOT
ATOM      1  O   UNL     1      35.983   6.513  11.153  0.00  0.00    +0.000 OA
ATOM      2  C   UNL     1      35.989   5.536  12.165  0.00  0.00    +0.000 A 
ATOM      3  C   UNL     1      35.230   5.744  13.280  0.00  0.00    +0.000 A 
ATOM      4  C   UNL     1      35.211   4.805  14.299  0.00  0.00    +0.000 A 
ATOM      5  C   UNL     1      35.966   3.643  14.193  0.00  0.00    +0.000 A 
ATOM      6  C   UNL     1      36.722   3.462  13.057  0.00  0.00    +0.000 A 
ATOM      7  C   UNL     1      36.752   4.387  12.036  0.00  0.00    +0.000 A 
ATOM      8  C   UNL     1      37.440   2.171  13.171  0.00  0.00    +0.000 C 
ATOM      9  C   UNL     1      37.009   1.615  14.468  0.00  0.00    +0.000 A 
ATOM     10  C   UNL     1      36.129   2.499  15.092  0.00  0.00    +0.000 A 
ATOM     11  C   UNL     1      35.570   2.220  16.320  0.00  0.00    +0.000 A 
ATOM     12  C   UNL     1      35.911   1.030  16.917  0.00  0.00    +0.000 A 
ATOM     13  C   UNL     1      35.361   0.745  18.150  0.00  0.00    +0.000 A 
ATOM     14  C   UNL     1      35.684  -0.445  18.791  0.00  0.00    +0.000 A 
ATOM     15  C   UNL     1      36.560  -1.304  18.149  0.00  0.00    +0.000 A 
ATOM     16  O   UNL     1      36.883  -2.503  18.805  0.00  0.00    +0.000 OA
ATOM     17  C   UNL     1      37.102  -1.017  16.926  0.00  0.00    +0.000 A 
ATOM     18  C   UNL     1      36.767   0.177  16.300  0.00  0.00    +0.000 A 
ATOM     19  C   UNL     1      37.349   0.424  15.066  0.00  0.00    +0.000 A 
ENDROOT
BRANCH  19  20
ATOM     20  C   UNL     1      38.281  -0.544  14.507  0.00  0.00    +0.000 A 
ATOM     21  C   UNL     1      37.721  -1.562  13.736  0.00  0.00    +0.000 A 
ATOM     22  C   UNL     1      38.500  -2.531  13.159  0.00  0.00    +0.000 A 
ATOM     23  C   UNL     1      39.874  -2.484  13.354  0.00  0.00    +0.000 A 
ATOM     24  C   UNL     1      40.441  -1.479  14.121  0.00  0.00    +0.000 A 
ATOM     25  C   UNL     1      39.637  -0.521  14.687  0.00  0.00    +0.000 A 
BRANCH  24  26
ATOM     26  O   UNL     1      41.837  -1.479  14.289  0.00  0.00    +0.000 OA
BRANCH  26  27
ATOM     27  C   UNL     1      42.641  -1.015  13.211  0.00  0.00    +0.000 C 
BRANCH  27  28
ATOM     28  C   UNL     1      42.192   0.410  12.943  0.00  0.00    +0.000 C 
BRANCH  28  29
ATOM     29  N   UNL     1      41.811   0.666  11.594  0.00  0.00    +0.000 NA
ATOM     30  C   UNL     1      41.716  -0.481  10.744  0.00  0.00    +0.000 C 
ATOM     31  C   UNL     1      40.240  -0.659  10.426  0.00  0.00    +0.000 C 
ATOM     32  C   UNL     1      39.703   0.750  10.527  0.00  0.00    +0.000 C 
ATOM     33  C   UNL     1      40.658   1.482  11.423  0.00  0.00    +0.000 C 
ENDBRANCH  28  29
ENDBRANCH  27  28
ENDBRANCH  26  27
ENDBRANCH  24  26
ENDBRANCH  19  20
TORSDOF 5
ENDMDL
