MODEL 1
REMARK VINA RESULT:      -7.8      0.000      0.000
REMARK  Name = 
REMARK  8 active torsions:
REMARK  status: ('A' for Active; 'I' for Inactive)
REMARK    1  A    between atoms: C_5  and  N_6
REMARK    2  A    between atoms: C_7  and  C_9
REMARK    3  A    between atoms: C_9  and  C_10
REMARK    4  A    between atoms: C_9  and  N_17
REMARK    5  A    between atoms: C_10  and  C_11
REMARK    6  A    between atoms: C_18  and  O_20
REMARK    7  A    between atoms: O_20  and  C_21
REMARK    8  A    between atoms: C_21  and  C_22
REMARK                            x       y       z     vdW  Elec       q    Type
REMARK                         _______ _______ _______ _____ _____    ______ ____
ROOT
ATOM      1  C   UNL     1      39.150   0.708  13.938  0.00  0.00    +0.000 C 
ENDROOT
BRANCH   1   3
ATOM      2  N   UNL     1      37.843  -0.360  15.899  0.00  0.00    +0.000 NA
ATOM      3  C   UNL     1      37.830   0.120  14.587  0.00  0.00    +0.000 C 
ATOM      4  O   UNL     1      36.805   0.133  13.863  0.00  0.00    +0.000 OA
BRANCH   2   9
ATOM      5  C   UNL     1      32.696  -1.964  17.540  0.00  0.00    +0.000 C 
ATOM      6  C   UNL     1      34.068  -1.545  17.150  0.00  0.00    +0.000 A 
ATOM      7  C   UNL     1      34.478  -0.283  17.345  0.00  0.00    +0.000 A 
ATOM      8  C   UNL     1      35.783   0.111  16.979  0.00  0.00    +0.000 A 
ATOM      9  C   UNL     1      36.617  -0.921  16.390  0.00  0.00    +0.000 A 
ATOM     10  C   UNL     1      36.130  -2.141  16.236  0.00  0.00    +0.000 A 
ATOM     11  C   UNL     1      37.099  -3.178  15.673  0.00  0.00    +0.000 C 
ATOM     12  C   UNL     1      34.841  -2.599  16.582  0.00  0.00    +0.000 A 
ENDBRANCH   2   9
ENDBRANCH   1   3
BRANCH   1  13
ATOM     13  N   UNL     1      39.289   1.922  14.822  0.00  0.00    +0.000 NA
ATOM     14  C   UNL     1      38.774   3.190  14.538  0.00  0.00    +0.000 C 
ATOM     15  O   UNL     1      38.108   3.446  13.498  0.00  0.00    +0.000 OA
BRANCH  14  16
ATOM     16  O   UNL     1      39.013   4.223  15.444  0.00  0.00    +0.000 OA
BRANCH  16  17
ATOM     17  C   UNL     1      38.357   4.512  16.617  0.00  0.00    +0.000 C 
BRANCH  17  18
ATOM     18  C   UNL     1      39.330   5.269  17.468  0.00  0.00    +0.000 A 
ATOM     19  C   UNL     1      39.137   5.445  18.784  0.00  0.00    +0.000 A 
ATOM     20  C   UNL     1      40.073   6.173  19.519  0.00  0.00    +0.000 A 
ATOM     21  C   UNL     1      41.203   6.712  18.937  0.00  0.00    +0.000 A 
ATOM     22  C   UNL     1      41.359   6.502  17.576  0.00  0.00    +0.000 A 
ATOM     23  C   UNL     1      40.450   5.796  16.834  0.00  0.00    +0.000 A 
ENDBRANCH  17  18
ENDBRANCH  16  17
ENDBRANCH  14  16
ENDBRANCH   1  13
BRANCH   1  24
ATOM     24  C   UNL     1      40.238  -0.256  14.694  0.00  0.00    +0.000 C 
BRANCH  24  25
ATOM     25  C   UNL     1      40.511  -1.198  13.574  0.00  0.00    +0.000 A 
ATOM     26  C   UNL     1      41.155  -2.397  13.891  0.00  0.00    +0.000 A 
ATOM     27  C   UNL     1      41.433  -3.306  12.902  0.00  0.00    +0.000 A 
ATOM     28  C   UNL     1      41.088  -3.036  11.617  0.00  0.00    +0.000 A 
ATOM     29  C   UNL     1      40.455  -1.870  11.281  0.00  0.00    +0.000 A 
ATOM     30  C   UNL     1      40.168  -0.937  12.296  0.00  0.00    +0.000 A 
ENDBRANCH  24  25
ENDBRANCH   1  24
TORSDOF 8
ENDMDL
MODEL 2
REMARK VINA RESULT:      -7.7      3.713      8.355
REMARK  Name = 
REMARK  8 active torsions:
REMARK  status: ('A' for Active; 'I' for Inactive)
REMARK    1  A    between atoms: C_5  and  N_6
REMARK    2  A    between atoms: C_7  and  C_9
REMARK    3  A    between atoms: C_9  and  C_10
REMARK    4  A    between atoms: C_9  and  N_17
REMARK    5  A    between atoms: C_10  and  C_11
REMARK    6  A    between atoms: C_18  and  O_20
REMARK    7  A    between atoms: O_20  and  C_21
REMARK    8  A    between atoms: C_21  and  C_22
REMARK                            x       y       z     vdW  Elec       q    Type
REMARK                         _______ _______ _______ _____ _____    ______ ____
ROOT
ATOM      1  C   UNL     1      37.392   4.702  15.841  0.00  0.00    +0.000 C 
ENDROOT
BRANCH   1   3
ATOM      2  N   UNL     1      35.814   5.043  13.819  0.00  0.00    +0.000 NA
ATOM      3  C   UNL     1      36.824   5.558  14.635  0.00  0.00    +0.000 C 
ATOM      4  O   UNL     1      37.324   6.699  14.485  0.00  0.00    +0.000 OA
BRANCH   2   9
ATOM      5  C   UNL     1      34.238   7.656   9.081  0.00  0.00    +0.000 C 
ATOM      6  C   UNL     1      34.686   6.998  10.336  0.00  0.00    +0.000 A 
ATOM      7  C   UNL     1      35.753   6.187  10.339  0.00  0.00    +0.000 A 
ATOM      8  C   UNL     1      36.180   5.567  11.533  0.00  0.00    +0.000 A 
ATOM      9  C   UNL     1      35.396   5.864  12.719  0.00  0.00    +0.000 A 
ATOM     10  C   UNL     1      34.358   6.679  12.624  0.00  0.00    +0.000 A 
ATOM     11  C   UNL     1      33.634   6.988  13.932  0.00  0.00    +0.000 C 
ATOM     12  C   UNL     1      33.882   7.329  11.467  0.00  0.00    +0.000 A 
ENDBRANCH   2   9
ENDBRANCH   1   3
BRANCH   1  13
ATOM     13  N   UNL     1      37.026   3.338  15.312  0.00  0.00    +0.000 NA
ATOM     14  C   UNL     1      36.759   2.213  16.098  0.00  0.00    +0.000 C 
ATOM     15  O   UNL     1      36.778   2.233  17.359  0.00  0.00    +0.000 OA
BRANCH  14  16
ATOM     16  O   UNL     1      36.464   1.009  15.457  0.00  0.00    +0.000 OA
BRANCH  16  17
ATOM     17  C   UNL     1      36.201  -0.222  16.009  0.00  0.00    +0.000 C 
BRANCH  17  18
ATOM     18  C   UNL     1      37.469  -1.013  15.898  0.00  0.00    +0.000 A 
ATOM     19  C   UNL     1      38.281  -0.908  14.835  0.00  0.00    +0.000 A 
ATOM     20  C   UNL     1      39.440  -1.683  14.785  0.00  0.00    +0.000 A 
ATOM     21  C   UNL     1      39.787  -2.550  15.802  0.00  0.00    +0.000 A 
ATOM     22  C   UNL     1      38.917  -2.621  16.878  0.00  0.00    +0.000 A 
ATOM     23  C   UNL     1      37.772  -1.875  16.947  0.00  0.00    +0.000 A 
ENDBRANCH  17  18
ENDBRANCH  16  17
ENDBRANCH  14  16
ENDBRANCH   1  13
BRANCH   1  24
ATOM     24  C   UNL     1      38.973   4.702  15.412  0.00  0.00    +0.000 C 
BRANCH  24  25
ATOM     25  C   UNL     1      39.536   5.301  16.653  0.00  0.00    +0.000 A 
ATOM     26  C   UNL     1      38.805   5.129  17.832  0.00  0.00    +0.000 A 
ATOM     27  C   UNL     1      39.272   5.657  19.009  0.00  0.00    +0.000 A 
ATOM     28  C   UNL     1      40.439   6.350  19.025  0.00  0.00    +0.000 A 
ATOM     29  C   UNL     1      41.175   6.530  17.885  0.00  0.00    +0.000 A 
ATOM     30  C   UNL     1      40.696   5.987  16.677  0.00  0.00    +0.000 A 
ENDBRANCH  24  25
ENDBRANCH   1  24
TORSDOF 8
ENDMDL
MODEL 3
REMARK VINA RESULT:      -7.6      2.547      7.203
REMARK  Name = 
REMARK  8 active torsions:
REMARK  status: ('A' for Active; 'I' for Inactive)
REMARK    1  A    between atoms: C_5  and  N_6
REMARK    2  A    between atoms: C_7  and  C_9
REMARK    3  A    between atoms: C_9  and  C_10
REMARK    4  A    between atoms: C_9  and  N_17
REMARK    5  A    between atoms: C_10  and  C_11
REMARK    6  A    between atoms: C_18  and  O_20
REMARK    7  A    between atoms: O_20  and  C_21
REMARK    8  A    between atoms: C_21  and  C_22
REMARK                            x       y       z     vdW  Elec       q    Type
REMARK                         _______ _______ _______ _____ _____    ______ ____
ROOT
ATOM      1  C   UNL     1      36.811   2.076  15.208  0.00  0.00    +0.000 C 
ENDROOT
BRANCH   1   3
ATOM      2  N   UNL     1      38.393   0.029  15.160  0.00  0.00    +0.000 NA
ATOM      3  C   UNL     1      37.833   1.111  14.476  0.00  0.00    +0.000 C 
ATOM      4  O   UNL     1      38.079   1.375  13.274  0.00  0.00    +0.000 OA
BRANCH   2   9
ATOM      5  C   UNL     1      42.573  -3.021  12.927  0.00  0.00    +0.000 C 
ATOM      6  C   UNL     1      41.472  -2.189  13.480  0.00  0.00    +0.000 A 
ATOM      7  C   UNL     1      41.738  -1.039  14.116  0.00  0.00    +0.000 A 
ATOM      8  C   UNL     1      40.690  -0.248  14.636  0.00  0.00    +0.000 A 
ATOM      9  C   UNL     1      39.347  -0.763  14.438  0.00  0.00    +0.000 A 
ATOM     10  C   UNL     1      39.178  -1.907  13.797  0.00  0.00    +0.000 A 
ATOM     11  C   UNL     1      37.730  -2.337  13.575  0.00  0.00    +0.000 C 
ATOM     12  C   UNL     1      40.177  -2.741  13.254  0.00  0.00    +0.000 A 
ENDBRANCH   2   9
ENDBRANCH   1   3
BRANCH   1  13
ATOM     13  N   UNL     1      36.833   1.410  16.560  0.00  0.00    +0.000 NA
ATOM     14  C   UNL     1      35.712   1.159  17.355  0.00  0.00    +0.000 C 
ATOM     15  O   UNL     1      34.537   1.455  17.002  0.00  0.00    +0.000 OA
BRANCH  14  16
ATOM     16  O   UNL     1      35.899   0.560  18.601  0.00  0.00    +0.000 OA
BRANCH  16  17
ATOM     17  C   UNL     1      35.512  -0.689  19.026  0.00  0.00    +0.000 C 
BRANCH  17  18
ATOM     18  C   UNL     1      36.404  -1.668  18.325  0.00  0.00    +0.000 A 
ATOM     19  C   UNL     1      35.927  -2.561  17.446  0.00  0.00    +0.000 A 
ATOM     20  C   UNL     1      36.808  -3.456  16.838  0.00  0.00    +0.000 A 
ATOM     21  C   UNL     1      38.162  -3.446  17.104  0.00  0.00    +0.000 A 
ATOM     22  C   UNL     1      38.607  -2.503  18.017  0.00  0.00    +0.000 A 
ATOM     23  C   UNL     1      37.761  -1.619  18.630  0.00  0.00    +0.000 A 
ENDBRANCH  17  18
ENDBRANCH  16  17
ENDBRANCH  14  16
ENDBRANCH   1  13
BRANCH   1  24
ATOM     24  C   UNL     1      37.840   3.308  15.538  0.00  0.00    +0.000 C 
BRANCH  24  25
ATOM     25  C   UNL     1      37.012   4.430  15.017  0.00  0.00    +0.000 A 
ATOM     26  C   UNL     1      37.572   5.709  15.059  0.00  0.00    +0.000 A 
ATOM     27  C   UNL     1      36.858   6.784  14.593  0.00  0.00    +0.000 A 
ATOM     28  C   UNL     1      35.607   6.603  14.098  0.00  0.00    +0.000 A 
ATOM     29  C   UNL     1      35.037   5.360  14.043  0.00  0.00    +0.000 A 
ATOM     30  C   UNL     1      35.770   4.257  14.521  0.00  0.00    +0.000 A 
ENDBRANCH  24  25
ENDBRANCH   1  24
TORSDOF 8
ENDMDL
MODEL 4
REMARK VINA RESULT:      -7.6      1.133      1.928
REMARK  Name = 
REMARK  8 active torsions:
REMARK  status: ('A' for Active; 'I' for Inactive)
REMARK    1  A    between atoms: C_5  and  N_6
REMARK    2  A    between atoms: C_7  and  C_9
REMARK    3  A    between atoms: C_9  and  C_10
REMARK    4  A    between atoms: C_9  and  N_17
REMARK    5  A    between atoms: C_10  and  C_11
REMARK    6  A    between atoms: C_18  and  O_20
REMARK    7  A    between atoms: O_20  and  C_21
REMARK    8  A    between atoms: C_21  and  C_22
REMARK                            x       y       z     vdW  Elec       q    Type
REMARK                         _______ _______ _______ _____ _____    ______ ____
ROOT
ATOM      1  C   UNL     1      39.407   0.248  13.984  0.00  0.00    +0.000 C 
ENDROOT
BRANCH   1   3
ATOM      2  N   UNL     1      37.814  -1.387  15.203  0.00  0.00    +0.000 NA
ATOM      3  C   UNL     1      38.042  -0.547  14.110  0.00  0.00    +0.000 C 
ATOM      4  O   UNL     1      37.206  -0.358  13.194  0.00  0.00    +0.000 OA
BRANCH   2   9
ATOM      5  C   UNL     1      33.357  -4.835  15.274  0.00  0.00    +0.000 C 
ATOM      6  C   UNL     1      34.517  -3.908  15.216  0.00  0.00    +0.000 A 
ATOM      7  C   UNL     1      35.564  -4.171  14.421  0.00  0.00    +0.000 A 
ATOM      8  C   UNL     1      36.662  -3.285  14.365  0.00  0.00    +0.000 A 
ATOM      9  C   UNL     1      36.574  -2.108  15.211  0.00  0.00    +0.000 A 
ATOM     10  C   UNL     1      35.501  -1.928  15.963  0.00  0.00    +0.000 A 
ATOM     11  C   UNL     1      35.464  -0.631  16.767  0.00  0.00    +0.000 C 
ATOM     12  C   UNL     1      34.373  -2.769  16.064  0.00  0.00    +0.000 A 
ENDBRANCH   2   9
ENDBRANCH   1   3
BRANCH   1  13
ATOM     13  N   UNL     1      39.169   1.238  15.097  0.00  0.00    +0.000 NA
ATOM     14  C   UNL     1      38.618   2.512  14.938  0.00  0.00    +0.000 C 
ATOM     15  O   UNL     1      38.236   2.964  13.824  0.00  0.00    +0.000 OA
BRANCH  14  16
ATOM     16  O   UNL     1      38.489   3.326  16.064  0.00  0.00    +0.000 OA
BRANCH  16  17
ATOM     17  C   UNL     1      38.192   4.666  16.132  0.00  0.00    +0.000 C 
BRANCH  17  18
ATOM     18  C   UNL     1      39.190   5.271  17.073  0.00  0.00    +0.000 A 
ATOM     19  C   UNL     1      38.987   5.303  18.399  0.00  0.00    +0.000 A 
ATOM     20  C   UNL     1      39.947   5.894  19.220  0.00  0.00    +0.000 A 
ATOM     21  C   UNL     1      41.110   6.440  18.713  0.00  0.00    +0.000 A 
ATOM     22  C   UNL     1      41.274   6.381  17.339  0.00  0.00    +0.000 A 
ATOM     23  C   UNL     1      40.342   5.811  16.513  0.00  0.00    +0.000 A 
ENDBRANCH  17  18
ENDBRANCH  16  17
ENDBRANCH  14  16
ENDBRANCH   1  13
BRANCH   1  24
ATOM     24  C   UNL     1      40.368  -0.796  14.803  0.00  0.00    +0.000 C 
BRANCH  24  25
ATOM     25  C   UNL     1      40.963  -1.506  13.637  0.00  0.00    +0.000 A 
ATOM     26  C   UNL     1      41.662  -0.731  12.709  0.00  0.00    +0.000 A 
ATOM     27  C   UNL     1      42.233  -1.327  11.613  0.00  0.00    +0.000 A 
ATOM     28  C   UNL     1      42.112  -2.667  11.430  0.00  0.00    +0.000 A 
ATOM     29  C   UNL     1      41.434  -3.448  12.326  0.00  0.00    +0.000 A 
ATOM     30  C   UNL     1      40.848  -2.837  13.451  0.00  0.00    +0.000 A 
ENDBRANCH  24  25
ENDBRANCH   1  24
TORSDOF 8
ENDMDL
MODEL 5
REMARK VINA RESULT:      -7.5      2.945      5.414
REMARK  Name = 
REMARK  8 active torsions:
REMARK  status: ('A' for Active; 'I' for Inactive)
REMARK    1  A    between atoms: C_5  and  N_6
REMARK    2  A    between atoms: C_7  and  C_9
REMARK    3  A    between atoms: C_9  and  C_10
REMARK    4  A    between atoms: C_9  and  N_17
REMARK    5  A    between atoms: C_10  and  C_11
REMARK    6  A    between atoms: C_18  and  O_20
REMARK    7  A    between atoms: O_20  and  C_21
REMARK    8  A    between atoms: C_21  and  C_22
REMARK                            x       y       z     vdW  Elec       q    Type
REMARK                         _______ _______ _______ _____ _____    ______ ____
ROOT
ATOM      1  C   UNL     1      36.164   4.206  15.059  0.00  0.00    +0.000 C 
ENDROOT
BRANCH   1   3
ATOM      2  N   UNL     1      36.657   1.885  16.091  0.00  0.00    +0.000 NA
ATOM      3  C   UNL     1      35.927   2.644  15.173  0.00  0.00    +0.000 C 
ATOM      4  O   UNL     1      35.054   2.161  14.412  0.00  0.00    +0.000 OA
BRANCH   2   9
ATOM      5  C   UNL     1      34.989  -3.498  16.039  0.00  0.00    +0.000 C 
ATOM      6  C   UNL     1      35.451  -2.086  16.092  0.00  0.00    +0.000 A 
ATOM      7  C   UNL     1      34.823  -1.190  16.867  0.00  0.00    +0.000 A 
ATOM      8  C   UNL     1      35.267   0.149  16.919  0.00  0.00    +0.000 A 
ATOM      9  C   UNL     1      36.416   0.471  16.092  0.00  0.00    +0.000 A 
ATOM     10  C   UNL     1      36.975  -0.478  15.359  0.00  0.00    +0.000 A 
ATOM     11  C   UNL     1      38.218  -0.066  14.574  0.00  0.00    +0.000 C 
ATOM     12  C   UNL     1      36.583  -1.830  15.263  0.00  0.00    +0.000 A 
ENDBRANCH   2   9
ENDBRANCH   1   3
BRANCH   1  13
ATOM     13  N   UNL     1      37.597   4.230  15.528  0.00  0.00    +0.000 NA
ATOM     14  C   UNL     1      38.312   5.377  15.880  0.00  0.00    +0.000 C 
ATOM     15  O   UNL     1      37.811   6.535  15.860  0.00  0.00    +0.000 OA
BRANCH  14  16
ATOM     16  O   UNL     1      39.645   5.238  16.267  0.00  0.00    +0.000 OA
BRANCH  16  17
ATOM     17  C   UNL     1      40.637   6.190  16.309  0.00  0.00    +0.000 C 
BRANCH  17  18
ATOM     18  C   UNL     1      41.031   6.324  17.748  0.00  0.00    +0.000 A 
ATOM     19  C   UNL     1      40.134   6.232  18.742  0.00  0.00    +0.000 A 
ATOM     20  C   UNL     1      40.563   6.381  20.061  0.00  0.00    +0.000 A 
ATOM     21  C   UNL     1      41.886   6.609  20.381  0.00  0.00    +0.000 A 
ATOM     22  C   UNL     1      42.774   6.694  19.320  0.00  0.00    +0.000 A 
ATOM     23  C   UNL     1      42.375   6.557  18.018  0.00  0.00    +0.000 A 
ENDBRANCH  17  18
ENDBRANCH  16  17
ENDBRANCH  14  16
ENDBRANCH   1  13
BRANCH   1  24
ATOM     24  C   UNL     1      36.445   4.289  13.447  0.00  0.00    +0.000 C 
BRANCH  24  25
ATOM     25  C   UNL     1      35.513   5.403  13.120  0.00  0.00    +0.000 A 
ATOM     26  C   UNL     1      35.626   5.977  11.851  0.00  0.00    +0.000 A 
ATOM     27  C   UNL     1      34.795   7.007  11.491  0.00  0.00    +0.000 A 
ATOM     28  C   UNL     1      33.869   7.470  12.369  0.00  0.00    +0.000 A 
ATOM     29  C   UNL     1      33.737   6.923  13.616  0.00  0.00    +0.000 A 
ATOM     30  C   UNL     1      34.589   5.865  13.986  0.00  0.00    +0.000 A 
ENDBRANCH  24  25
ENDBRANCH   1  24
TORSDOF 8
ENDMDL
MODEL 6
REMARK VINA RESULT:      -7.5      3.473      6.685
REMARK  Name = 
REMARK  8 active torsions:
REMARK  status: ('A' for Active; 'I' for Inactive)
REMARK    1  A    between atoms: C_5  and  N_6
REMARK    2  A    between atoms: C_7  and  C_9
REMARK    3  A    between atoms: C_9  and  C_10
REMARK    4  A    between atoms: C_9  and  N_17
REMARK    5  A    between atoms: C_10  and  C_11
REMARK    6  A    between atoms: C_18  and  O_20
REMARK    7  A    between atoms: O_20  and  C_21
REMARK    8  A    between atoms: C_21  and  C_22
REMARK                            x       y       z     vdW  Elec       q    Type
REMARK                         _______ _______ _______ _____ _____    ______ ____
ROOT
ATOM      1  C   UNL     1      36.341   2.963  15.167  0.00  0.00    +0.000 C 
ENDROOT
BRANCH   1   3
ATOM      2  N   UNL     1      36.792   5.031  13.678  0.00  0.00    +0.000 NA
ATOM      3  C   UNL     1      35.887   4.305  14.456  0.00  0.00    +0.000 C 
ATOM      4  O   UNL     1      34.691   4.643  14.627  0.00  0.00    +0.000 OA
BRANCH   2   9
ATOM      5  C   UNL     1      34.300   9.472  11.264  0.00  0.00    +0.000 C 
ATOM      6  C   UNL     1      34.993   8.307  11.874  0.00  0.00    +0.000 A 
ATOM      7  C   UNL     1      35.014   7.121  11.250  0.00  0.00    +0.000 A 
ATOM      8  C   UNL     1      35.678   6.018  11.829  0.00  0.00    +0.000 A 
ATOM      9  C   UNL     1      36.312   6.260  13.113  0.00  0.00    +0.000 A 
ATOM     10  C   UNL     1      36.242   7.464  13.655  0.00  0.00    +0.000 A 
ATOM     11  C   UNL     1      36.994   7.645  14.971  0.00  0.00    +0.000 C 
ATOM     12  C   UNL     1      35.599   8.604  13.130  0.00  0.00    +0.000 A 
ENDBRANCH   2   9
ENDBRANCH   1   3
BRANCH   1  13
ATOM     13  N   UNL     1      36.902   3.579  16.424  0.00  0.00    +0.000 NA
ATOM     14  C   UNL     1      38.250   3.877  16.644  0.00  0.00    +0.000 C 
ATOM     15  O   UNL     1      39.150   3.674  15.784  0.00  0.00    +0.000 OA
BRANCH  14  16
ATOM     16  O   UNL     1      38.619   4.418  17.876  0.00  0.00    +0.000 OA
BRANCH  16  17
ATOM     17  C   UNL     1      38.607   5.732  18.281  0.00  0.00    +0.000 C 
BRANCH  17  18
ATOM     18  C   UNL     1      40.022   6.078  18.630  0.00  0.00    +0.000 A 
ATOM     19  C   UNL     1      40.415   6.264  19.899  0.00  0.00    +0.000 A 
ATOM     20  C   UNL     1      41.744   6.599  20.158  0.00  0.00    +0.000 A 
ATOM     21  C   UNL     1      42.676   6.735  19.148  0.00  0.00    +0.000 A 
ATOM     22  C   UNL     1      42.222   6.532  17.855  0.00  0.00    +0.000 A 
ATOM     23  C   UNL     1      40.921   6.208  17.577  0.00  0.00    +0.000 A 
ENDBRANCH  17  18
ENDBRANCH  16  17
ENDBRANCH  14  16
ENDBRANCH   1  13
BRANCH   1  24
ATOM     24  C   UNL     1      34.885   2.504  15.763  0.00  0.00    +0.000 C 
BRANCH  24  25
ATOM     25  C   UNL     1      35.204   1.076  16.038  0.00  0.00    +0.000 A 
ATOM     26  C   UNL     1      34.738   0.539  17.241  0.00  0.00    +0.000 A 
ATOM     27  C   UNL     1      34.998  -0.771  17.551  0.00  0.00    +0.000 A 
ATOM     28  C   UNL     1      35.714  -1.542  16.692  0.00  0.00    +0.000 A 
ATOM     29  C   UNL     1      36.179  -1.041  15.507  0.00  0.00    +0.000 A 
ATOM     30  C   UNL     1      35.911   0.304  15.187  0.00  0.00    +0.000 A 
ENDBRANCH  24  25
ENDBRANCH   1  24
TORSDOF 8
ENDMDL
MODEL 7
REMARK VINA RESULT:      -7.4      3.412      6.528
REMARK  Name = 
REMARK  8 active torsions:
REMARK  status: ('A' for Active; 'I' for Inactive)
REMARK    1  A    between atoms: C_5  and  N_6
REMARK    2  A    between atoms: C_7  and  C_9
REMARK    3  A    between atoms: C_9  and  C_10
REMARK    4  A    between atoms: C_9  and  N_17
REMARK    5  A    between atoms: C_10  and  C_11
REMARK    6  A    between atoms: C_18  and  O_20
REMARK    7  A    between atoms: O_20  and  C_21
REMARK    8  A    between atoms: C_21  and  C_22
REMARK                            x       y       z     vdW  Elec       q    Type
REMARK                         _______ _______ _______ _____ _____    ______ ____
ROOT
ATOM      1  C   UNL     1      39.462  -0.687  14.230  0.00  0.00    +0.000 C 
ENDROOT
BRANCH   1   3
ATOM      2  N   UNL     1      37.304   0.727  14.037  0.00  0.00    +0.000 NA
ATOM      3  C   UNL     1      38.622   0.631  14.490  0.00  0.00    +0.000 C 
ATOM      4  O   UNL     1      39.206   1.542  15.125  0.00  0.00    +0.000 OA
BRANCH   2   9
ATOM      5  C   UNL     1      34.632   5.686  14.211  0.00  0.00    +0.000 C 
ATOM      6  C   UNL     1      35.370   4.396  14.190  0.00  0.00    +0.000 A 
ATOM      7  C   UNL     1      36.400   4.211  13.352  0.00  0.00    +0.000 A 
ATOM      8  C   UNL     1      37.102   2.986  13.338  0.00  0.00    +0.000 A 
ATOM      9  C   UNL     1      36.634   1.975  14.270  0.00  0.00    +0.000 A 
ATOM     10  C   UNL     1      35.611   2.245  15.062  0.00  0.00    +0.000 A 
ATOM     11  C   UNL     1      35.232   1.149  16.055  0.00  0.00    +0.000 C 
ATOM     12  C   UNL     1      34.870   3.444  15.127  0.00  0.00    +0.000 A 
ENDBRANCH   2   9
ENDBRANCH   1   3
BRANCH   1  13
ATOM     13  N   UNL     1      39.116  -1.405  15.510  0.00  0.00    +0.000 NA
ATOM     14  C   UNL     1      39.707  -2.590  15.956  0.00  0.00    +0.000 C 
ATOM     15  O   UNL     1      40.626  -3.181  15.326  0.00  0.00    +0.000 OA
BRANCH  14  16
ATOM     16  O   UNL     1      39.256  -3.151  17.151  0.00  0.00    +0.000 OA
BRANCH  16  17
ATOM     17  C   UNL     1      38.428  -4.232  17.340  0.00  0.00    +0.000 C 
BRANCH  17  18
ATOM     18  C   UNL     1      37.121  -3.878  16.699  0.00  0.00    +0.000 A 
ATOM     19  C   UNL     1      36.295  -2.963  17.228  0.00  0.00    +0.000 A 
ATOM     20  C   UNL     1      35.084  -2.690  16.590  0.00  0.00    +0.000 A 
ATOM     21  C   UNL     1      34.711  -3.324  15.422  0.00  0.00    +0.000 A 
ATOM     22  C   UNL     1      35.599  -4.259  14.915  0.00  0.00    +0.000 A 
ATOM     23  C   UNL     1      36.789  -4.548  15.526  0.00  0.00    +0.000 A 
ENDBRANCH  17  18
ENDBRANCH  16  17
ENDBRANCH  14  16
ENDBRANCH   1  13
BRANCH   1  24
ATOM     24  C   UNL     1      38.404  -1.454  13.240  0.00  0.00    +0.000 C 
BRANCH  24  25
ATOM     25  C   UNL     1      39.259  -1.526  12.023  0.00  0.00    +0.000 A 
ATOM     26  C   UNL     1      39.903  -2.739  11.768  0.00  0.00    +0.000 A 
ATOM     27  C   UNL     1      40.703  -2.868  10.661  0.00  0.00    +0.000 A 
ATOM     28  C   UNL     1      40.873  -1.815   9.820  0.00  0.00    +0.000 A 
ATOM     29  C   UNL     1      40.251  -0.618  10.047  0.00  0.00    +0.000 A 
ATOM     30  C   UNL     1      39.428  -0.485  11.182  0.00  0.00    +0.000 A 
ENDBRANCH  24  25
ENDBRANCH   1  24
TORSDOF 8
ENDMDL
MODEL 8
REMARK VINA RESULT:      -7.3      2.107      7.930
REMARK  Name = 
REMARK  8 active torsions:
REMARK  status: ('A' for Active; 'I' for Inactive)
REMARK    1  A    between atoms: C_5  and  N_6
REMARK    2  A    between atoms: C_7  and  C_9
REMARK    3  A    between atoms: C_9  and  C_10
REMARK    4  A    between atoms: C_9  and  N_17
REMARK    5  A    between atoms: C_10  and  C_11
REMARK    6  A    between atoms: C_18  and  O_20
REMARK    7  A    between atoms: O_20  and  C_21
REMARK    8  A    between atoms: C_21  and  C_22
REMARK                            x       y       z     vdW  Elec       q    Type
REMARK                         _______ _______ _______ _____ _____    ______ ____
ROOT
ATOM      1  C   UNL     1      36.354   2.145  15.800  0.00  0.00    +0.000 C 
ENDROOT
BRANCH   1   3
ATOM      2  N   UNL     1      38.584   3.421  16.108  0.00  0.00    +0.000 NA
ATOM      3  C   UNL     1      37.245   3.451  15.709  0.00  0.00    +0.000 C 
ATOM      4  O   UNL     1      36.680   4.475  15.253  0.00  0.00    +0.000 OA
BRANCH   2   9
ATOM      5  C   UNL     1      41.042   8.411  15.206  0.00  0.00    +0.000 C 
ATOM      6  C   UNL     1      40.435   7.076  15.447  0.00  0.00    +0.000 A 
ATOM      7  C   UNL     1      40.329   6.183  14.452  0.00  0.00    +0.000 A 
ATOM      8  C   UNL     1      39.757   4.914  14.685  0.00  0.00    +0.000 A 
ATOM      9  C   UNL     1      39.302   4.661  16.040  0.00  0.00    +0.000 A 
ATOM     10  C   UNL     1      39.448   5.600  16.960  0.00  0.00    +0.000 A 
ATOM     11  C   UNL     1      39.005   5.222  18.371  0.00  0.00    +0.000 C 
ATOM     12  C   UNL     1      40.011   6.882  16.794  0.00  0.00    +0.000 A 
ENDBRANCH   2   9
ENDBRANCH   1   3
BRANCH   1  13
ATOM     13  N   UNL     1      37.446   1.135  15.547  0.00  0.00    +0.000 NA
ATOM     14  C   UNL     1      37.566   0.349  14.397  0.00  0.00    +0.000 C 
ATOM     15  O   UNL     1      36.766   0.422  13.425  0.00  0.00    +0.000 OA
BRANCH  14  16
ATOM     16  O   UNL     1      38.618  -0.564  14.324  0.00  0.00    +0.000 OA
BRANCH  16  17
ATOM     17  C   UNL     1      39.355  -1.118  15.344  0.00  0.00    +0.000 C 
BRANCH  17  18
ATOM     18  C   UNL     1      38.664  -2.393  15.718  0.00  0.00    +0.000 A 
ATOM     19  C   UNL     1      37.642  -2.884  15.000  0.00  0.00    +0.000 A 
ATOM     20  C   UNL     1      37.030  -4.070  15.410  0.00  0.00    +0.000 A 
ATOM     21  C   UNL     1      37.450  -4.763  16.527  0.00  0.00    +0.000 A 
ATOM     22  C   UNL     1      38.509  -4.217  17.233  0.00  0.00    +0.000 A 
ATOM     23  C   UNL     1      39.121  -3.053  16.854  0.00  0.00    +0.000 A 
ENDBRANCH  17  18
ENDBRANCH  16  17
ENDBRANCH  14  16
ENDBRANCH   1  13
BRANCH   1  24
ATOM     24  C   UNL     1      36.290   2.012  17.433  0.00  0.00    +0.000 C 
BRANCH  24  25
ATOM     25  C   UNL     1      35.839   0.596  17.518  0.00  0.00    +0.000 A 
ATOM     26  C   UNL     1      36.575  -0.259  18.343  0.00  0.00    +0.000 A 
ATOM     27  C   UNL     1      36.209  -1.575  18.464  0.00  0.00    +0.000 A 
ATOM     28  C   UNL     1      35.136  -2.046  17.778  0.00  0.00    +0.000 A 
ATOM     29  C   UNL     1      34.397  -1.229  16.966  0.00  0.00    +0.000 A 
ATOM     30  C   UNL     1      34.772   0.122  16.842  0.00  0.00    +0.000 A 
ENDBRANCH  24  25
ENDBRANCH   1  24
TORSDOF 8
ENDMDL
MODEL 9
REMARK VINA RESULT:      -7.2      2.586      3.918
REMARK  Name = 
REMARK  8 active torsions:
REMARK  status: ('A' for Active; 'I' for Inactive)
REMARK    1  A    between atoms: C_5  and  N_6
REMARK    2  A    between atoms: C_7  and  C_9
REMARK    3  A    between atoms: C_9  and  C_10
REMARK    4  A    between atoms: C_9  and  N_17
REMARK    5  A    between atoms: C_10  and  C_11
REMARK    6  A    between atoms: C_18  and  O_20
REMARK    7  A    between atoms: O_20  and  C_21
REMARK    8  A    between atoms: C_21  and  C_22
REMARK                            x       y       z     vdW  Elec       q    Type
REMARK                         _______ _______ _______ _____ _____    ______ ____
ROOT
ATOM      1  C   UNL     1      36.936   2.318  13.407  0.00  0.00    +0.000 C 
ENDROOT
BRANCH   1   3
ATOM      2  N   UNL     1      37.416   0.740  15.401  0.00  0.00    +0.000 NA
ATOM      3  C   UNL     1      37.028   0.880  14.066  0.00  0.00    +0.000 C 
ATOM      4  O   UNL     1      36.721  -0.086  13.327  0.00  0.00    +0.000 OA
BRANCH   2   9
ATOM      5  C   UNL     1      38.505  -4.325  17.618  0.00  0.00    +0.000 C 
ATOM      6  C   UNL     1      38.211  -3.009  16.993  0.00  0.00    +0.000 A 
ATOM      7  C   UNL     1      39.140  -2.375  16.264  0.00  0.00    +0.000 A 
ATOM      8  C   UNL     1      38.855  -1.128  15.668  0.00  0.00    +0.000 A 
ATOM      9  C   UNL     1      37.523  -0.601  15.901  0.00  0.00    +0.000 A 
ATOM     10  C   UNL     1      36.668  -1.296  16.632  0.00  0.00    +0.000 A 
ATOM     11  C   UNL     1      35.270  -0.699  16.768  0.00  0.00    +0.000 C 
ATOM     12  C   UNL     1      36.888  -2.544  17.252  0.00  0.00    +0.000 A 
ENDBRANCH   2   9
ENDBRANCH   1   3
BRANCH   1  13
ATOM     13  N   UNL     1      37.556   3.100  14.538  0.00  0.00    +0.000 NA
ATOM     14  C   UNL     1      37.336   4.456  14.797  0.00  0.00    +0.000 C 
ATOM     15  O   UNL     1      36.562   5.173  14.106  0.00  0.00    +0.000 OA
BRANCH  14  16
ATOM     16  O   UNL     1      38.010   5.046  15.867  0.00  0.00    +0.000 OA
BRANCH  16  17
ATOM     17  C   UNL     1      38.121   4.608  17.165  0.00  0.00    +0.000 C 
BRANCH  17  18
ATOM     18  C   UNL     1      39.278   5.350  17.762  0.00  0.00    +0.000 A 
ATOM     19  C   UNL     1      39.327   5.660  19.066  0.00  0.00    +0.000 A 
ATOM     20  C   UNL     1      40.426   6.365  19.558  0.00  0.00    +0.000 A 
ATOM     21  C   UNL     1      41.475   6.746  18.746  0.00  0.00    +0.000 A 
ATOM     22  C   UNL     1      41.379   6.401  17.407  0.00  0.00    +0.000 A 
ATOM     23  C   UNL     1      40.308   5.714  16.902  0.00  0.00    +0.000 A 
ENDBRANCH  17  18
ENDBRANCH  16  17
ENDBRANCH  14  16
ENDBRANCH   1  13
BRANCH   1  24
ATOM     24  C   UNL     1      38.255   2.223  12.439  0.00  0.00    +0.000 C 
BRANCH  24  25
ATOM     25  C   UNL     1      37.590   2.501  11.137  0.00  0.00    +0.000 A 
ATOM     26  C   UNL     1      37.304   3.836  10.839  0.00  0.00    +0.000 A 
ATOM     27  C   UNL     1      36.692   4.156   9.654  0.00  0.00    +0.000 A 
ATOM     28  C   UNL     1      36.360   3.175   8.776  0.00  0.00    +0.000 A 
ATOM     29  C   UNL     1      36.631   1.861   9.043  0.00  0.00    +0.000 A 
ATOM     30  C   UNL     1      37.260   1.532  10.259  0.00  0.00    +0.000 A 
ENDBRANCH  24  25
ENDBRANCH   1  24
TORSDOF 8
ENDMDL
MODEL 10
REMARK VINA RESULT:      -7.1      3.950      7.998
REMARK  Name = 
REMARK  8 active torsions:
REMARK  status: ('A' for Active; 'I' for Inactive)
REMARK    1  A    between atoms: C_5  and  N_6
REMARK    2  A    between atoms: C_7  and  C_9
REMARK    3  A    between atoms: C_9  and  C_10
REMARK    4  A    between atoms: C_9  and  N_17
REMARK    5  A    between atoms: C_10  and  C_11
REMARK    6  A    between atoms: C_18  and  O_20
REMARK    7  A    between atoms: O_20  and  C_21
REMARK    8  A    between atoms: C_21  and  C_22
REMARK                            x       y       z     vdW  Elec       q    Type
REMARK                         _______ _______ _______ _____ _____    ______ ____
ROOT
ATOM      1  C   UNL     1      39.480  -1.594  13.903  0.00  0.00    +0.000 C 
ENDROOT
BRANCH   1   3
ATOM      2  N   UNL     1      41.968  -1.649  13.198  0.00  0.00    +0.000 NA
ATOM      3  C   UNL     1      40.969  -2.110  14.059  0.00  0.00    +0.000 C 
ATOM      4  O   UNL     1      41.178  -2.924  14.991  0.00  0.00    +0.000 OA
BRANCH   2   9
ATOM      5  C   UNL     1      47.115  -3.944  13.161  0.00  0.00    +0.000 C 
ATOM      6  C   UNL     1      45.745  -3.370  13.201  0.00  0.00    +0.000 A 
ATOM      7  C   UNL     1      44.747  -3.934  12.505  0.00  0.00    +0.000 A 
ATOM      8  C   UNL     1      43.446  -3.390  12.549  0.00  0.00    +0.000 A 
ATOM      9  C   UNL     1      43.278  -2.208  13.376  0.00  0.00    +0.000 A 
ATOM     10  C   UNL     1      44.319  -1.720  14.030  0.00  0.00    +0.000 A 
ATOM     11  C   UNL     1      44.035  -0.518  14.928  0.00  0.00    +0.000 C 
ATOM     12  C   UNL     1      45.639  -2.215  14.031  0.00  0.00    +0.000 A 
ENDBRANCH   2   9
ENDBRANCH   1   3
BRANCH   1  13
ATOM     13  N   UNL     1      38.848  -2.475  14.952  0.00  0.00    +0.000 NA
ATOM     14  C   UNL     1      37.713  -3.267  14.763  0.00  0.00    +0.000 C 
ATOM     15  O   UNL     1      37.100  -3.342  13.662  0.00  0.00    +0.000 OA
BRANCH  14  16
ATOM     16  O   UNL     1      37.230  -4.007  15.843  0.00  0.00    +0.000 OA
BRANCH  16  17
ATOM     17  C   UNL     1      35.977  -3.992  16.409  0.00  0.00    +0.000 C 
BRANCH  17  18
ATOM     18  C   UNL     1      35.889  -2.726  17.204  0.00  0.00    +0.000 A 
ATOM     19  C   UNL     1      36.850  -2.361  18.068  0.00  0.00    +0.000 A 
ATOM     20  C   UNL     1      36.702  -1.177  18.790  0.00  0.00    +0.000 A 
ATOM     21  C   UNL     1      35.600  -0.358  18.638  0.00  0.00    +0.000 A 
ATOM     22  C   UNL     1      34.638  -0.777  17.734  0.00  0.00    +0.000 A 
ATOM     23  C   UNL     1      34.759  -1.937  17.018  0.00  0.00    +0.000 A 
ENDBRANCH  17  18
ENDBRANCH  16  17
ENDBRANCH  14  16
ENDBRANCH   1  13
BRANCH   1  24
ATOM     24  C   UNL     1      39.607  -0.225  14.796  0.00  0.00    +0.000 C 
BRANCH  24  25
ATOM     25  C   UNL     1      38.279   0.368  14.475  0.00  0.00    +0.000 A 
ATOM     26  C   UNL     1      37.481   0.763  15.551  0.00  0.00    +0.000 A 
ATOM     27  C   UNL     1      36.248   1.317  15.320  0.00  0.00    +0.000 A 
ATOM     28  C   UNL     1      35.803   1.474  14.047  0.00  0.00    +0.000 A 
ATOM     29  C   UNL     1      36.566   1.098  12.976  0.00  0.00    +0.000 A 
ATOM     30  C   UNL     1      37.833   0.530  13.213  0.00  0.00    +0.000 A 
ENDBRANCH  24  25
ENDBRANCH   1  24
TORSDOF 8
ENDMDL
