MODEL 1
REMARK VINA RESULT:      -7.8      0.000      0.000
REMARK  Name = 
REMARK  7 active torsions:
REMARK  status: ('A' for Active; 'I' for Inactive)
REMARK    1  A    between atoms: C_2  and  C_3
REMARK    2  A    between atoms: C_3  and  O_4
REMARK    3  A    between atoms: O_4  and  C_5
REMARK    4  A    between atoms: C_8  and  C_9
REMARK    5  A    between atoms: C_19  and  O_20
REMARK    6  A    between atoms: O_20  and  C_21
REMARK    7  A    between atoms: C_21  and  C_22
REMARK                            x       y       z     vdW  Elec       q    Type
REMARK                         _______ _______ _______ _____ _____    ______ ____
ROOT
ATOM      1  C   UNL     1      37.263   3.954  14.981  0.00  0.00    +0.000 C 
ATOM      2  N   UNL     1      36.075   3.691  16.017  0.00  0.00    +0.000 NA
ATOM      3  C   UNL     1      35.075   3.047  15.173  0.00  0.00    +0.000 C 
ATOM      4  C   UNL     1      35.450   1.575  15.097  0.00  0.00    +0.000 C 
ATOM      5  C   UNL     1      36.940   1.437  15.012  0.00  0.00    +0.000 A 
ATOM      6  C   UNL     1      37.778   2.476  14.959  0.00  0.00    +0.000 A 
ATOM      7  N   UNL     1      39.012   2.047  14.890  0.00  0.00    +0.000 NA
ATOM      8  C   UNL     1      39.063   0.691  14.893  0.00  0.00    +0.000 A 
ATOM      9  C   UNL     1      40.053  -0.263  14.840  0.00  0.00    +0.000 A 
ATOM     10  C   UNL     1      39.728  -1.603  14.863  0.00  0.00    +0.000 A 
ATOM     11  C   UNL     1      38.422  -2.039  14.941  0.00  0.00    +0.000 A 
ATOM     12  C   UNL     1      37.455  -1.056  14.992  0.00  0.00    +0.000 A 
ATOM     13  C   UNL     1      37.717   0.289  14.972  0.00  0.00    +0.000 A 
ENDROOT
BRANCH   1  17
ATOM     14  C   UNL     1      40.061   5.783  17.693  0.00  0.00    +0.000 A 
ATOM     15  C   UNL     1      39.076   4.983  18.196  0.00  0.00    +0.000 A 
ATOM     16  C   UNL     1      38.171   4.387  17.359  0.00  0.00    +0.000 A 
ATOM     17  C   UNL     1      38.240   4.579  16.056  0.00  0.00    +0.000 A 
ATOM     18  C   UNL     1      39.202   5.368  15.504  0.00  0.00    +0.000 A 
ATOM     19  C   UNL     1      40.155   6.002  16.333  0.00  0.00    +0.000 A 
BRANCH  14  20
ATOM     20  O   UNL     1      41.005   6.408  18.546  0.00  0.00    +0.000 OA
BRANCH  20  21
ATOM     21  C   UNL     1      40.731   6.383  19.930  0.00  0.00    +0.000 C 
BRANCH  21  23
ATOM     22  C   UNL     1      43.156   6.783  19.798  0.00  0.00    +0.000 C 
ATOM     23  C   UNL     1      42.040   6.190  20.648  0.00  0.00    +0.000 C 
ENDBRANCH  21  23
ENDBRANCH  20  21
ENDBRANCH  14  20
ENDBRANCH   1  17
BRANCH  11  24
ATOM     24  O   UNL     1      38.023  -3.358  14.969  0.00  0.00    +0.000 OA
BRANCH  24  25
ATOM     25  C   UNL     1      37.363  -4.037  15.967  0.00  0.00    +0.000 C 
BRANCH  25  26
ATOM     26  C   UNL     1      35.921  -4.166  15.642  0.00  0.00    +0.000 A 
ATOM     27  C   UNL     1      35.049  -3.294  16.260  0.00  0.00    +0.000 A 
ATOM     28  C   UNL     1      33.710  -3.422  15.951  0.00  0.00    +0.000 A 
ATOM     29  C   UNL     1      33.297  -4.372  15.072  0.00  0.00    +0.000 A 
ATOM     30  C   UNL     1      34.170  -5.237  14.461  0.00  0.00    +0.000 A 
ATOM     31  C   UNL     1      35.517  -5.129  14.754  0.00  0.00    +0.000 A 
ENDBRANCH  25  26
ENDBRANCH  24  25
ENDBRANCH  11  24
TORSDOF 7
ENDMDL
MODEL 2
REMARK VINA RESULT:      -7.8      2.271      9.254
REMARK  Name = 
REMARK  7 active torsions:
REMARK  status: ('A' for Active; 'I' for Inactive)
REMARK    1  A    between atoms: C_2  and  C_3
REMARK    2  A    between atoms: C_3  and  O_4
REMARK    3  A    between atoms: O_4  and  C_5
REMARK    4  A    between atoms: C_8  and  C_9
REMARK    5  A    between atoms: C_19  and  O_20
REMARK    6  A    between atoms: O_20  and  C_21
REMARK    7  A    between atoms: C_21  and  C_22
REMARK                            x       y       z     vdW  Elec       q    Type
REMARK                         _______ _______ _______ _____ _____    ______ ____
ROOT
ATOM      1  C   UNL     1      36.370   2.822  14.500  0.00  0.00    +0.000 C 
ATOM      2  N   UNL     1      37.530   2.251  13.560  0.00  0.00    +0.000 NA
ATOM      3  C   UNL     1      37.868   3.420  12.755  0.00  0.00    +0.000 C 
ATOM      4  C   UNL     1      38.833   4.256  13.582  0.00  0.00    +0.000 C 
ATOM      5  C   UNL     1      38.417   4.230  15.022  0.00  0.00    +0.000 A 
ATOM      6  C   UNL     1      37.326   3.600  15.467  0.00  0.00    +0.000 A 
ATOM      7  N   UNL     1      37.223   3.752  16.762  0.00  0.00    +0.000 NA
ATOM      8  C   UNL     1      38.245   4.496  17.253  0.00  0.00    +0.000 A 
ATOM      9  C   UNL     1      38.631   4.955  18.493  0.00  0.00    +0.000 A 
ATOM     10  C   UNL     1      39.772   5.716  18.627  0.00  0.00    +0.000 A 
ATOM     11  C   UNL     1      40.565   6.045  17.547  0.00  0.00    +0.000 A 
ATOM     12  C   UNL     1      40.149   5.569  16.321  0.00  0.00    +0.000 A 
ATOM     13  C   UNL     1      39.025   4.809  16.126  0.00  0.00    +0.000 A 
ENDROOT
BRANCH   1  17
ATOM     14  C   UNL     1      36.107  -0.929  16.595  0.00  0.00    +0.000 A 
ATOM     15  C   UNL     1      35.110  -0.011  16.752  0.00  0.00    +0.000 A 
ATOM     16  C   UNL     1      35.165   1.191  16.099  0.00  0.00    +0.000 A 
ATOM     17  C   UNL     1      36.183   1.477  15.310  0.00  0.00    +0.000 A 
ATOM     18  C   UNL     1      37.203   0.597  15.120  0.00  0.00    +0.000 A 
ATOM     19  C   UNL     1      37.185  -0.656  15.775  0.00  0.00    +0.000 A 
BRANCH  14  20
ATOM     20  O   UNL     1      36.066  -2.179  17.264  0.00  0.00    +0.000 OA
BRANCH  20  21
ATOM     21  C   UNL     1      37.209  -2.544  18.006  0.00  0.00    +0.000 C 
BRANCH  21  23
ATOM     22  C   UNL     1      37.695  -2.672  20.416  0.00  0.00    +0.000 C 
ATOM     23  C   UNL     1      37.175  -1.775  19.300  0.00  0.00    +0.000 C 
ENDBRANCH  21  23
ENDBRANCH  20  21
ENDBRANCH  14  20
ENDBRANCH   1  17
BRANCH  11  24
ATOM     24  O   UNL     1      41.717   6.799  17.606  0.00  0.00    +0.000 OA
BRANCH  24  25
ATOM     25  C   UNL     1      42.123   7.676  18.585  0.00  0.00    +0.000 C 
BRANCH  25  26
ATOM     26  C   UNL     1      43.101   7.024  19.493  0.00  0.00    +0.000 A 
ATOM     27  C   UNL     1      42.624   6.519  20.684  0.00  0.00    +0.000 A 
ATOM     28  C   UNL     1      43.540   5.915  21.520  0.00  0.00    +0.000 A 
ATOM     29  C   UNL     1      44.848   5.835  21.161  0.00  0.00    +0.000 A 
ATOM     30  C   UNL     1      45.316   6.340  19.974  0.00  0.00    +0.000 A 
ATOM     31  C   UNL     1      44.417   6.951  19.119  0.00  0.00    +0.000 A 
ENDBRANCH  25  26
ENDBRANCH  24  25
ENDBRANCH  11  24
TORSDOF 7
ENDMDL
MODEL 3
REMARK VINA RESULT:      -7.8      1.466      2.398
REMARK  Name = 
REMARK  7 active torsions:
REMARK  status: ('A' for Active; 'I' for Inactive)
REMARK    1  A    between atoms: C_2  and  C_3
REMARK    2  A    between atoms: C_3  and  O_4
REMARK    3  A    between atoms: O_4  and  C_5
REMARK    4  A    between atoms: C_8  and  C_9
REMARK    5  A    between atoms: C_19  and  O_20
REMARK    6  A    between atoms: O_20  and  C_21
REMARK    7  A    between atoms: C_21  and  C_22
REMARK                            x       y       z     vdW  Elec       q    Type
REMARK                         _______ _______ _______ _____ _____    ______ ____
ROOT
ATOM      1  C   UNL     1      37.917   4.531  14.642  0.00  0.00    +0.000 C 
ATOM      2  N   UNL     1      36.509   4.361  15.381  0.00  0.00    +0.000 NA
ATOM      3  C   UNL     1      35.654   3.891  14.297  0.00  0.00    +0.000 C 
ATOM      4  C   UNL     1      35.874   2.390  14.187  0.00  0.00    +0.000 C 
ATOM      5  C   UNL     1      37.323   2.074  14.407  0.00  0.00    +0.000 A 
ATOM      6  C   UNL     1      38.260   3.003  14.614  0.00  0.00    +0.000 A 
ATOM      7  N   UNL     1      39.425   2.430  14.773  0.00  0.00    +0.000 NA
ATOM      8  C   UNL     1      39.327   1.080  14.680  0.00  0.00    +0.000 A 
ATOM      9  C   UNL     1      40.195   0.015  14.763  0.00  0.00    +0.000 A 
ATOM     10  C   UNL     1      39.729  -1.273  14.612  0.00  0.00    +0.000 A 
ATOM     11  C   UNL     1      38.398  -1.549  14.378  0.00  0.00    +0.000 A 
ATOM     12  C   UNL     1      37.556  -0.459  14.301  0.00  0.00    +0.000 A 
ATOM     13  C   UNL     1      37.961   0.843  14.442  0.00  0.00    +0.000 A 
ENDROOT
BRANCH   1  17
ATOM     14  C   UNL     1      39.845   5.596  18.340  0.00  0.00    +0.000 A 
ATOM     15  C   UNL     1      40.390   6.019  17.162  0.00  0.00    +0.000 A 
ATOM     16  C   UNL     1      39.799   5.697  15.970  0.00  0.00    +0.000 A 
ATOM     17  C   UNL     1      38.697   4.973  15.944  0.00  0.00    +0.000 A 
ATOM     18  C   UNL     1      38.115   4.525  17.090  0.00  0.00    +0.000 A 
ATOM     19  C   UNL     1      38.692   4.836  18.342  0.00  0.00    +0.000 A 
BRANCH  14  20
ATOM     20  O   UNL     1      40.443   5.920  19.584  0.00  0.00    +0.000 OA
BRANCH  20  21
ATOM     21  C   UNL     1      40.535   7.290  19.910  0.00  0.00    +0.000 C 
BRANCH  21  23
ATOM     22  C   UNL     1      42.566   6.215  20.793  0.00  0.00    +0.000 C 
ATOM     23  C   UNL     1      41.935   7.546  20.402  0.00  0.00    +0.000 C 
ENDBRANCH  21  23
ENDBRANCH  20  21
ENDBRANCH  14  20
ENDBRANCH   1  17
BRANCH  11  24
ATOM     24  O   UNL     1      37.862  -2.809  14.218  0.00  0.00    +0.000 OA
BRANCH  24  25
ATOM     25  C   UNL     1      37.010  -3.494  15.053  0.00  0.00    +0.000 C 
BRANCH  25  26
ATOM     26  C   UNL     1      37.374  -3.259  16.473  0.00  0.00    +0.000 A 
ATOM     27  C   UNL     1      38.453  -3.953  16.977  0.00  0.00    +0.000 A 
ATOM     28  C   UNL     1      38.783  -3.727  18.298  0.00  0.00    +0.000 A 
ATOM     29  C   UNL     1      38.060  -2.853  19.045  0.00  0.00    +0.000 A 
ATOM     30  C   UNL     1      36.986  -2.165  18.537  0.00  0.00    +0.000 A 
ATOM     31  C   UNL     1      36.635  -2.375  17.216  0.00  0.00    +0.000 A 
ENDBRANCH  25  26
ENDBRANCH  24  25
ENDBRANCH  11  24
TORSDOF 7
ENDMDL
MODEL 4
REMARK VINA RESULT:      -7.3      4.398      9.653
REMARK  Name = 
REMARK  7 active torsions:
REMARK  status: ('A' for Active; 'I' for Inactive)
REMARK    1  A    between atoms: C_2  and  C_3
REMARK    2  A    between atoms: C_3  and  O_4
REMARK    3  A    between atoms: O_4  and  C_5
REMARK    4  A    between atoms: C_8  and  C_9
REMARK    5  A    between atoms: C_19  and  O_20
REMARK    6  A    between atoms: O_20  and  C_21
REMARK    7  A    between atoms: C_21  and  C_22
REMARK                            x       y       z     vdW  Elec       q    Type
REMARK                         _______ _______ _______ _____ _____    ______ ____
ROOT
ATOM      1  C   UNL     1      36.717   3.211  13.929  0.00  0.00    +0.000 C 
ATOM      2  N   UNL     1      35.410   3.410  14.827  0.00  0.00    +0.000 NA
ATOM      3  C   UNL     1      35.606   2.412  15.872  0.00  0.00    +0.000 C 
ATOM      4  C   UNL     1      36.521   3.041  16.911  0.00  0.00    +0.000 C 
ATOM      5  C   UNL     1      37.571   3.864  16.227  0.00  0.00    +0.000 A 
ATOM      6  C   UNL     1      37.687   3.963  14.901  0.00  0.00    +0.000 A 
ATOM      7  N   UNL     1      38.690   4.747  14.601  0.00  0.00    +0.000 NA
ATOM      8  C   UNL     1      39.301   5.216  15.718  0.00  0.00    +0.000 A 
ATOM      9  C   UNL     1      40.365   6.044  15.992  0.00  0.00    +0.000 A 
ATOM     10  C   UNL     1      40.718   6.310  17.298  0.00  0.00    +0.000 A 
ATOM     11  C   UNL     1      40.034   5.771  18.368  0.00  0.00    +0.000 A 
ATOM     12  C   UNL     1      38.974   4.946  18.056  0.00  0.00    +0.000 A 
ATOM     13  C   UNL     1      38.576   4.645  16.780  0.00  0.00    +0.000 A 
ENDROOT
BRANCH   1  17
ATOM     14  C   UNL     1      35.579   6.489  11.383  0.00  0.00    +0.000 A 
ATOM     15  C   UNL     1      36.492   5.582  10.927  0.00  0.00    +0.000 A 
ATOM     16  C   UNL     1      36.873   4.528  11.714  0.00  0.00    +0.000 A 
ATOM     17  C   UNL     1      36.365   4.377  12.921  0.00  0.00    +0.000 A 
ATOM     18  C   UNL     1      35.453   5.254  13.423  0.00  0.00    +0.000 A 
ATOM     19  C   UNL     1      35.032   6.356  12.643  0.00  0.00    +0.000 A 
BRANCH  14  20
ATOM     20  O   UNL     1      35.173   7.586  10.582  0.00  0.00    +0.000 OA
BRANCH  20  21
ATOM     21  C   UNL     1      34.052   7.388   9.748  0.00  0.00    +0.000 C 
BRANCH  21  23
ATOM     22  C   UNL     1      34.474   6.058   7.720  0.00  0.00    +0.000 C 
ATOM     23  C   UNL     1      34.530   7.457   8.322  0.00  0.00    +0.000 C 
ENDBRANCH  21  23
ENDBRANCH  20  21
ENDBRANCH  14  20
ENDBRANCH   1  17
BRANCH  11  24
ATOM     24  O   UNL     1      40.330   5.993  19.695  0.00  0.00    +0.000 OA
BRANCH  24  25
ATOM     25  C   UNL     1      40.987   7.059  20.265  0.00  0.00    +0.000 C 
BRANCH  25  26
ATOM     26  C   UNL     1      40.082   8.231  20.371  0.00  0.00    +0.000 A 
ATOM     27  C   UNL     1      40.656   9.484  20.327  0.00  0.00    +0.000 A 
ATOM     28  C   UNL     1      39.807  10.567  20.426  0.00  0.00    +0.000 A 
ATOM     29  C   UNL     1      38.468  10.378  20.560  0.00  0.00    +0.000 A 
ATOM     30  C   UNL     1      37.904   9.127  20.604  0.00  0.00    +0.000 A 
ATOM     31  C   UNL     1      38.734   8.026  20.506  0.00  0.00    +0.000 A 
ENDBRANCH  25  26
ENDBRANCH  24  25
ENDBRANCH  11  24
TORSDOF 7
ENDMDL
MODEL 5
REMARK VINA RESULT:      -7.2      2.652      9.441
REMARK  Name = 
REMARK  7 active torsions:
REMARK  status: ('A' for Active; 'I' for Inactive)
REMARK    1  A    between atoms: C_2  and  C_3
REMARK    2  A    between atoms: C_3  and  O_4
REMARK    3  A    between atoms: O_4  and  C_5
REMARK    4  A    between atoms: C_8  and  C_9
REMARK    5  A    between atoms: C_19  and  O_20
REMARK    6  A    between atoms: O_20  and  C_21
REMARK    7  A    between atoms: C_21  and  C_22
REMARK                            x       y       z     vdW  Elec       q    Type
REMARK                         _______ _______ _______ _____ _____    ______ ____
ROOT
ATOM      1  C   UNL     1      37.306   4.451  14.450  0.00  0.00    +0.000 C 
ATOM      2  N   UNL     1      38.456   3.792  13.556  0.00  0.00    +0.000 NA
ATOM      3  C   UNL     1      39.063   4.963  12.934  0.00  0.00    +0.000 C 
ATOM      4  C   UNL     1      40.052   5.530  13.942  0.00  0.00    +0.000 C 
ATOM      5  C   UNL     1      39.481   5.424  15.324  0.00  0.00    +0.000 A 
ATOM      6  C   UNL     1      38.261   4.947  15.587  0.00  0.00    +0.000 A 
ATOM      7  N   UNL     1      38.042   4.978  16.876  0.00  0.00    +0.000 NA
ATOM      8  C   UNL     1      39.109   5.479  17.546  0.00  0.00    +0.000 A 
ATOM      9  C   UNL     1      39.424   5.732  18.862  0.00  0.00    +0.000 A 
ATOM     10  C   UNL     1      40.651   6.268  19.191  0.00  0.00    +0.000 A 
ATOM     11  C   UNL     1      41.600   6.568  18.237  0.00  0.00    +0.000 A 
ATOM     12  C   UNL     1      41.251   6.302  16.929  0.00  0.00    +0.000 A 
ATOM     13  C   UNL     1      40.049   5.771  16.541  0.00  0.00    +0.000 A 
ENDROOT
BRANCH   1  17
ATOM     14  C   UNL     1      36.220   0.602  16.041  0.00  0.00    +0.000 A 
ATOM     15  C   UNL     1      35.362   1.651  16.200  0.00  0.00    +0.000 A 
ATOM     16  C   UNL     1      35.679   2.888  15.705  0.00  0.00    +0.000 A 
ATOM     17  C   UNL     1      36.818   3.080  15.068  0.00  0.00    +0.000 A 
ATOM     18  C   UNL     1      37.709   2.068  14.884  0.00  0.00    +0.000 A 
ATOM     19  C   UNL     1      37.420   0.775  15.379  0.00  0.00    +0.000 A 
BRANCH  14  20
ATOM     20  O   UNL     1      35.907  -0.685  16.548  0.00  0.00    +0.000 OA
BRANCH  20  21
ATOM     21  C   UNL     1      36.092  -0.889  17.932  0.00  0.00    +0.000 C 
BRANCH  21  23
ATOM     22  C   UNL     1      37.519  -2.043  19.572  0.00  0.00    +0.000 C 
ATOM     23  C   UNL     1      37.395  -1.619  18.113  0.00  0.00    +0.000 C 
ENDBRANCH  21  23
ENDBRANCH  20  21
ENDBRANCH  14  20
ENDBRANCH   1  17
BRANCH  11  24
ATOM     24  O   UNL     1      42.845   7.103  18.492  0.00  0.00    +0.000 OA
BRANCH  24  25
ATOM     25  C   UNL     1      43.328   7.639  19.663  0.00  0.00    +0.000 C 
BRANCH  25  26
ATOM     26  C   UNL     1      44.136   6.635  20.399  0.00  0.00    +0.000 A 
ATOM     27  C   UNL     1      43.570   6.055  21.513  0.00  0.00    +0.000 A 
ATOM     28  C   UNL     1      44.329   5.123  22.191  0.00  0.00    +0.000 A 
ATOM     29  C   UNL     1      45.577   4.809  21.756  0.00  0.00    +0.000 A 
ATOM     30  C   UNL     1      46.136   5.391  20.645  0.00  0.00    +0.000 A 
ATOM     31  C   UNL     1      45.395   6.328  19.949  0.00  0.00    +0.000 A 
ENDBRANCH  25  26
ENDBRANCH  24  25
ENDBRANCH  11  24
TORSDOF 7
ENDMDL
MODEL 6
REMARK VINA RESULT:      -7.0      2.092      9.638
REMARK  Name = 
REMARK  7 active torsions:
REMARK  status: ('A' for Active; 'I' for Inactive)
REMARK    1  A    between atoms: C_2  and  C_3
REMARK    2  A    between atoms: C_3  and  O_4
REMARK    3  A    between atoms: O_4  and  C_5
REMARK    4  A    between atoms: C_8  and  C_9
REMARK    5  A    between atoms: C_19  and  O_20
REMARK    6  A    between atoms: O_20  and  C_21
REMARK    7  A    between atoms: C_21  and  C_22
REMARK                            x       y       z     vdW  Elec       q    Type
REMARK                         _______ _______ _______ _____ _____    ______ ____
ROOT
ATOM      1  C   UNL     1      37.139   2.817  14.135  0.00  0.00    +0.000 C 
ATOM      2  N   UNL     1      38.449   2.578  13.249  0.00  0.00    +0.000 NA
ATOM      3  C   UNL     1      38.618   3.876  12.605  0.00  0.00    +0.000 C 
ATOM      4  C   UNL     1      39.349   4.765  13.599  0.00  0.00    +0.000 C 
ATOM      5  C   UNL     1      38.845   4.493  14.985  0.00  0.00    +0.000 A 
ATOM      6  C   UNL     1      37.863   3.631  15.260  0.00  0.00    +0.000 A 
ATOM      7  N   UNL     1      37.643   3.606  16.549  0.00  0.00    +0.000 NA
ATOM      8  C   UNL     1      38.471   4.456  17.207  0.00  0.00    +0.000 A 
ATOM      9  C   UNL     1      38.676   4.824  18.517  0.00  0.00    +0.000 A 
ATOM     10  C   UNL     1      39.643   5.755  18.833  0.00  0.00    +0.000 A 
ATOM     11  C   UNL     1      40.434   6.346  17.870  0.00  0.00    +0.000 A 
ATOM     12  C   UNL     1      40.201   5.954  16.568  0.00  0.00    +0.000 A 
ATOM     13  C   UNL     1      39.256   5.036  16.194  0.00  0.00    +0.000 A 
ENDROOT
BRANCH   1  17
ATOM     14  C   UNL     1      36.894  -1.079  15.948  0.00  0.00    +0.000 A 
ATOM     15  C   UNL     1      38.087  -0.663  15.430  0.00  0.00    +0.000 A 
ATOM     16  C   UNL     1      38.196   0.571  14.847  0.00  0.00    +0.000 A 
ATOM     17  C   UNL     1      37.151   1.373  14.779  0.00  0.00    +0.000 A 
ATOM     18  C   UNL     1      35.940   1.005  15.279  0.00  0.00    +0.000 A 
ATOM     19  C   UNL     1      35.784  -0.260  15.889  0.00  0.00    +0.000 A 
BRANCH  14  20
ATOM     20  O   UNL     1      36.763  -2.354  16.555  0.00  0.00    +0.000 OA
BRANCH  20  21
ATOM     21  C   UNL     1      35.893  -3.273  15.930  0.00  0.00    +0.000 C 
BRANCH  21  23
ATOM     22  C   UNL     1      37.511  -4.983  16.649  0.00  0.00    +0.000 C 
ATOM     23  C   UNL     1      36.724  -4.438  15.463  0.00  0.00    +0.000 C 
ENDBRANCH  21  23
ENDBRANCH  20  21
ENDBRANCH  14  20
ENDBRANCH   1  17
BRANCH  11  24
ATOM     24  O   UNL     1      41.418   7.281  18.112  0.00  0.00    +0.000 OA
BRANCH  24  25
ATOM     25  C   UNL     1      41.322   8.653  18.102  0.00  0.00    +0.000 C 
BRANCH  25  26
ATOM     26  C   UNL     1      40.115   9.095  18.845  0.00  0.00    +0.000 A 
ATOM     27  C   UNL     1      39.010   9.458  18.106  0.00  0.00    +0.000 A 
ATOM     28  C   UNL     1      37.893   9.867  18.806  0.00  0.00    +0.000 A 
ATOM     29  C   UNL     1      37.909   9.900  20.163  0.00  0.00    +0.000 A 
ATOM     30  C   UNL     1      39.014   9.537  20.894  0.00  0.00    +0.000 A 
ATOM     31  C   UNL     1      40.145   9.124  20.216  0.00  0.00    +0.000 A 
ENDBRANCH  25  26
ENDBRANCH  24  25
ENDBRANCH  11  24
TORSDOF 7
ENDMDL
MODEL 7
REMARK VINA RESULT:      -7.0      3.745      9.134
REMARK  Name = 
REMARK  7 active torsions:
REMARK  status: ('A' for Active; 'I' for Inactive)
REMARK    1  A    between atoms: C_2  and  C_3
REMARK    2  A    between atoms: C_3  and  O_4
REMARK    3  A    between atoms: O_4  and  C_5
REMARK    4  A    between atoms: C_8  and  C_9
REMARK    5  A    between atoms: C_19  and  O_20
REMARK    6  A    between atoms: O_20  and  C_21
REMARK    7  A    between atoms: C_21  and  C_22
REMARK                            x       y       z     vdW  Elec       q    Type
REMARK                         _______ _______ _______ _____ _____    ______ ____
ROOT
ATOM      1  C   UNL     1      37.948  -1.440  16.263  0.00  0.00    +0.000 C 
ATOM      2  N   UNL     1      36.622  -2.114  15.676  0.00  0.00    +0.000 NA
ATOM      3  C   UNL     1      35.611  -1.670  16.628  0.00  0.00    +0.000 C 
ATOM      4  C   UNL     1      35.192  -0.272  16.200  0.00  0.00    +0.000 C 
ATOM      5  C   UNL     1      36.392   0.490  15.723  0.00  0.00    +0.000 A 
ATOM      6  C   UNL     1      37.634   0.001  15.735  0.00  0.00    +0.000 A 
ATOM      7  N   UNL     1      38.467   0.890  15.261  0.00  0.00    +0.000 NA
ATOM      8  C   UNL     1      37.820   2.029  14.904  0.00  0.00    +0.000 A 
ATOM      9  C   UNL     1      38.178   3.245  14.369  0.00  0.00    +0.000 A 
ATOM     10  C   UNL     1      37.220   4.207  14.128  0.00  0.00    +0.000 A 
ATOM     11  C   UNL     1      35.885   3.997  14.406  0.00  0.00    +0.000 A 
ATOM     12  C   UNL     1      35.562   2.767  14.941  0.00  0.00    +0.000 A 
ATOM     13  C   UNL     1      36.470   1.774  15.202  0.00  0.00    +0.000 A 
ENDROOT
BRANCH   1  17
ATOM     14  C   UNL     1      40.276  -2.897  12.949  0.00  0.00    +0.000 A 
ATOM     15  C   UNL     1      40.908  -2.590  14.119  0.00  0.00    +0.000 A 
ATOM     16  C   UNL     1      40.195  -2.124  15.191  0.00  0.00    +0.000 A 
ATOM     17  C   UNL     1      38.888  -1.967  15.106  0.00  0.00    +0.000 A 
ATOM     18  C   UNL     1      38.210  -2.258  13.963  0.00  0.00    +0.000 A 
ATOM     19  C   UNL     1      38.909  -2.741  12.833  0.00  0.00    +0.000 A 
BRANCH  14  20
ATOM     20  O   UNL     1      40.999  -3.380  11.829  0.00  0.00    +0.000 OA
BRANCH  20  21
ATOM     21  C   UNL     1      40.965  -2.592  10.658  0.00  0.00    +0.000 C 
BRANCH  21  23
ATOM     22  C   UNL     1      40.878  -2.707   8.201  0.00  0.00    +0.000 C 
ATOM     23  C   UNL     1      40.894  -3.531   9.483  0.00  0.00    +0.000 C 
ENDBRANCH  21  23
ENDBRANCH  20  21
ENDBRANCH  14  20
ENDBRANCH   1  17
BRANCH  11  24
ATOM     24  O   UNL     1      34.874   4.909  14.192  0.00  0.00    +0.000 OA
BRANCH  24  25
ATOM     25  C   UNL     1      34.879   6.028  13.391  0.00  0.00    +0.000 C 
BRANCH  25  26
ATOM     26  C   UNL     1      34.907   7.259  14.220  0.00  0.00    +0.000 A 
ATOM     27  C   UNL     1      33.696   7.800  14.597  0.00  0.00    +0.000 A 
ATOM     28  C   UNL     1      33.731   8.944  15.367  0.00  0.00    +0.000 A 
ATOM     29  C   UNL     1      34.922   9.492  15.725  0.00  0.00    +0.000 A 
ATOM     30  C   UNL     1      36.124   8.949  15.346  0.00  0.00    +0.000 A 
ATOM     31  C   UNL     1      36.115   7.803  14.574  0.00  0.00    +0.000 A 
ENDBRANCH  25  26
ENDBRANCH  24  25
ENDBRANCH  11  24
TORSDOF 7
ENDMDL
MODEL 8
REMARK VINA RESULT:      -7.0     24.920     27.459
REMARK  Name = 
REMARK  7 active torsions:
REMARK  status: ('A' for Active; 'I' for Inactive)
REMARK    1  A    between atoms: C_2  and  C_3
REMARK    2  A    between atoms: C_3  and  O_4
REMARK    3  A    between atoms: O_4  and  C_5
REMARK    4  A    between atoms: C_8  and  C_9
REMARK    5  A    between atoms: C_19  and  O_20
REMARK    6  A    between atoms: O_20  and  C_21
REMARK    7  A    between atoms: C_21  and  C_22
REMARK                            x       y       z     vdW  Elec       q    Type
REMARK                         _______ _______ _______ _____ _____    ______ ____
ROOT
ATOM      1  C   UNL     1      31.329  15.625  35.435  0.00  0.00    +0.000 C 
ATOM      2  N   UNL     1      31.297  16.879  36.426  0.00  0.00    +0.000 NA
ATOM      3  C   UNL     1      31.279  18.000  35.494  0.00  0.00    +0.000 C 
ATOM      4  C   UNL     1      29.830  18.191  35.069  0.00  0.00    +0.000 C 
ATOM      5  C   UNL     1      29.173  16.853  34.901  0.00  0.00    +0.000 A 
ATOM      6  C   UNL     1      29.810  15.691  35.057  0.00  0.00    +0.000 A 
ATOM      7  N   UNL     1      28.983  14.700  34.847  0.00  0.00    +0.000 NA
ATOM      8  C   UNL     1      27.742  15.152  34.537  0.00  0.00    +0.000 A 
ATOM      9  C   UNL     1      26.527  14.581  34.232  0.00  0.00    +0.000 A 
ATOM     10  C   UNL     1      25.435  15.378  33.960  0.00  0.00    +0.000 A 
ATOM     11  C   UNL     1      25.508  16.755  33.983  0.00  0.00    +0.000 A 
ATOM     12  C   UNL     1      26.740  17.293  34.293  0.00  0.00    +0.000 A 
ATOM     13  C   UNL     1      27.860  16.553  34.571  0.00  0.00    +0.000 A 
ENDROOT
BRANCH   1  17
ATOM     14  C   UNL     1      31.356  12.505  38.400  0.00  0.00    +0.000 A 
ATOM     15  C   UNL     1      30.767  13.700  38.700  0.00  0.00    +0.000 A 
ATOM     16  C   UNL     1      30.742  14.711  37.777  0.00  0.00    +0.000 A 
ATOM     17  C   UNL     1      31.287  14.544  36.588  0.00  0.00    +0.000 A 
ATOM     18  C   UNL     1      31.888  13.373  36.240  0.00  0.00    +0.000 A 
ATOM     19  C   UNL     1      31.935  12.303  37.163  0.00  0.00    +0.000 A 
BRANCH  14  20
ATOM     20  O   UNL     1      31.390  11.448  39.344  0.00  0.00    +0.000 OA
BRANCH  20  21
ATOM     21  C   UNL     1      30.918  11.734  40.643  0.00  0.00    +0.000 C 
BRANCH  21  23
ATOM     22  C   UNL     1      28.997  10.218  40.376  0.00  0.00    +0.000 C 
ATOM     23  C   UNL     1      30.267  10.485  41.174  0.00  0.00    +0.000 C 
ENDBRANCH  21  23
ENDBRANCH  20  21
ENDBRANCH  14  20
ENDBRANCH   1  17
BRANCH  11  24
ATOM     24  O   UNL     1      24.461  17.613  33.723  0.00  0.00    +0.000 OA
BRANCH  24  25
ATOM     25  C   UNL     1      24.060  18.142  32.518  0.00  0.00    +0.000 C 
BRANCH  25  26
ATOM     26  C   UNL     1      23.598  19.542  32.693  0.00  0.00    +0.000 A 
ATOM     27  C   UNL     1      22.833  20.090  31.685  0.00  0.00    +0.000 A 
ATOM     28  C   UNL     1      22.408  21.391  31.857  0.00  0.00    +0.000 A 
ATOM     29  C   UNL     1      22.743  22.079  32.980  0.00  0.00    +0.000 A 
ATOM     30  C   UNL     1      23.506  21.527  33.979  0.00  0.00    +0.000 A 
ATOM     31  C   UNL     1      23.944  20.224  33.830  0.00  0.00    +0.000 A 
ENDBRANCH  25  26
ENDBRANCH  24  25
ENDBRANCH  11  24
TORSDOF 7
ENDMDL
MODEL 9
REMARK VINA RESULT:      -6.9      5.382      8.577
REMARK  Name = 
REMARK  7 active torsions:
REMARK  status: ('A' for Active; 'I' for Inactive)
REMARK    1  A    between atoms: C_2  and  C_3
REMARK    2  A    between atoms: C_3  and  O_4
REMARK    3  A    between atoms: O_4  and  C_5
REMARK    4  A    between atoms: C_8  and  C_9
REMARK    5  A    between atoms: C_19  and  O_20
REMARK    6  A    between atoms: O_20  and  C_21
REMARK    7  A    between atoms: C_21  and  C_22
REMARK                            x       y       z     vdW  Elec       q    Type
REMARK                         _______ _______ _______ _____ _____    ______ ____
ROOT
ATOM      1  C   UNL     1      38.443   3.458  15.024  0.00  0.00    +0.000 C 
ATOM      2  N   UNL     1      39.658   3.957  14.112  0.00  0.00    +0.000 NA
ATOM      3  C   UNL     1      39.428   3.222  12.874  0.00  0.00    +0.000 C 
ATOM      4  C   UNL     1      38.397   4.012  12.082  0.00  0.00    +0.000 C 
ATOM      5  C   UNL     1      37.366   4.573  13.015  0.00  0.00    +0.000 A 
ATOM      6  C   UNL     1      37.356   4.347  14.330  0.00  0.00    +0.000 A 
ATOM      7  N   UNL     1      36.342   4.964  14.879  0.00  0.00    +0.000 NA
ATOM      8  C   UNL     1      35.615   5.638  13.952  0.00  0.00    +0.000 A 
ATOM      9  C   UNL     1      34.489   6.429  13.959  0.00  0.00    +0.000 A 
ATOM     10  C   UNL     1      34.014   6.970  12.784  0.00  0.00    +0.000 A 
ATOM     11  C   UNL     1      34.633   6.749  11.571  0.00  0.00    +0.000 A 
ATOM     12  C   UNL     1      35.758   5.952  11.601  0.00  0.00    +0.000 A 
ATOM     13  C   UNL     1      36.278   5.387  12.737  0.00  0.00    +0.000 A 
ENDROOT
BRANCH   1  17
ATOM     14  C   UNL     1      39.639   6.098  18.206  0.00  0.00    +0.000 A 
ATOM     15  C   UNL     1      38.714   5.127  18.462  0.00  0.00    +0.000 A 
ATOM     16  C   UNL     1      38.314   4.272  17.471  0.00  0.00    +0.000 A 
ATOM     17  C   UNL     1      38.817   4.376  16.256  0.00  0.00    +0.000 A 
ATOM     18  C   UNL     1      39.740   5.327  15.948  0.00  0.00    +0.000 A 
ATOM     19  C   UNL     1      40.181   6.230  16.943  0.00  0.00    +0.000 A 
BRANCH  14  20
ATOM     20  O   UNL     1      40.064   6.992  19.221  0.00  0.00    +0.000 OA
BRANCH  20  21
ATOM     21  C   UNL     1      39.587   8.318  19.146  0.00  0.00    +0.000 C 
BRANCH  21  23
ATOM     22  C   UNL     1      37.302   8.692  19.983  0.00  0.00    +0.000 C 
ATOM     23  C   UNL     1      38.768   8.576  20.383  0.00  0.00    +0.000 C 
ENDBRANCH  21  23
ENDBRANCH  20  21
ENDBRANCH  14  20
ENDBRANCH   1  17
BRANCH  11  24
ATOM     24  O   UNL     1      34.216   7.256  10.360  0.00  0.00    +0.000 OA
BRANCH  24  25
ATOM     25  C   UNL     1      34.900   8.065   9.483  0.00  0.00    +0.000 C 
BRANCH  25  26
ATOM     26  C   UNL     1      34.252   8.050   8.147  0.00  0.00    +0.000 A 
ATOM     27  C   UNL     1      34.238   9.229   7.434  0.00  0.00    +0.000 A 
ATOM     28  C   UNL     1      33.633   9.205   6.194  0.00  0.00    +0.000 A 
ATOM     29  C   UNL     1      33.085   8.055   5.721  0.00  0.00    +0.000 A 
ATOM     30  C   UNL     1      33.103   6.884   6.437  0.00  0.00    +0.000 A 
ATOM     31  C   UNL     1      33.703   6.883   7.682  0.00  0.00    +0.000 A 
ENDBRANCH  25  26
ENDBRANCH  24  25
ENDBRANCH  11  24
TORSDOF 7
ENDMDL
MODEL 10
REMARK VINA RESULT:      -6.9      2.673      4.072
REMARK  Name = 
REMARK  7 active torsions:
REMARK  status: ('A' for Active; 'I' for Inactive)
REMARK    1  A    between atoms: C_2  and  C_3
REMARK    2  A    between atoms: C_3  and  O_4
REMARK    3  A    between atoms: O_4  and  C_5
REMARK    4  A    between atoms: C_8  and  C_9
REMARK    5  A    between atoms: C_19  and  O_20
REMARK    6  A    between atoms: O_20  and  C_21
REMARK    7  A    between atoms: C_21  and  C_22
REMARK                            x       y       z     vdW  Elec       q    Type
REMARK                         _______ _______ _______ _____ _____    ______ ____
ROOT
ATOM      1  C   UNL     1      36.969   3.875  15.656  0.00  0.00    +0.000 C 
ATOM      2  N   UNL     1      36.290   3.027  16.830  0.00  0.00    +0.000 NA
ATOM      3  C   UNL     1      35.362   2.179  16.091  0.00  0.00    +0.000 C 
ATOM      4  C   UNL     1      36.165   0.992  15.582  0.00  0.00    +0.000 C 
ATOM      5  C   UNL     1      37.524   1.452  15.147  0.00  0.00    +0.000 A 
ATOM      6  C   UNL     1      37.916   2.728  15.167  0.00  0.00    +0.000 A 
ATOM      7  N   UNL     1      39.146   2.822  14.732  0.00  0.00    +0.000 NA
ATOM      8  C   UNL     1      39.643   1.606  14.395  0.00  0.00    +0.000 A 
ATOM      9  C   UNL     1      40.834   1.124  13.901  0.00  0.00    +0.000 A 
ATOM     10  C   UNL     1      40.994  -0.225  13.669  0.00  0.00    +0.000 A 
ATOM     11  C   UNL     1      39.990  -1.137  13.919  0.00  0.00    +0.000 A 
ATOM     12  C   UNL     1      38.810  -0.620  14.414  0.00  0.00    +0.000 A 
ATOM     13  C   UNL     1      38.592   0.710  14.663  0.00  0.00    +0.000 A 
ENDROOT
BRANCH   1  17
ATOM     14  C   UNL     1      39.689   6.201  18.046  0.00  0.00    +0.000 A 
ATOM     15  C   UNL     1      39.077   5.117  18.605  0.00  0.00    +0.000 A 
ATOM     16  C   UNL     1      38.206   4.357  17.870  0.00  0.00    +0.000 A 
ATOM     17  C   UNL     1      37.949   4.664  16.614  0.00  0.00    +0.000 A 
ATOM     18  C   UNL     1      38.533   5.735  16.010  0.00  0.00    +0.000 A 
ATOM     19  C   UNL     1      39.438   6.545  16.733  0.00  0.00    +0.000 A 
BRANCH  14  20
ATOM     20  O   UNL     1      40.593   6.999  18.793  0.00  0.00    +0.000 OA
BRANCH  20  21
ATOM     21  C   UNL     1      40.836   6.610  20.128  0.00  0.00    +0.000 C 
BRANCH  21  23
ATOM     22  C   UNL     1      43.003   6.881  18.992  0.00  0.00    +0.000 C 
ATOM     23  C   UNL     1      42.327   6.505  20.305  0.00  0.00    +0.000 C 
ENDBRANCH  21  23
ENDBRANCH  20  21
ENDBRANCH  14  20
ENDBRANCH   1  17
BRANCH  11  24
ATOM     24  O   UNL     1      40.078  -2.496  13.712  0.00  0.00    +0.000 OA
BRANCH  24  25
ATOM     25  C   UNL     1      41.167  -3.238  13.316  0.00  0.00    +0.000 C 
BRANCH  25  26
ATOM     26  C   UNL     1      41.374  -3.116  11.851  0.00  0.00    +0.000 A 
ATOM     27  C   UNL     1      40.262  -2.885  11.069  0.00  0.00    +0.000 A 
ATOM     28  C   UNL     1      40.464  -2.773   9.709  0.00  0.00    +0.000 A 
ATOM     29  C   UNL     1      41.714  -2.888   9.190  0.00  0.00    +0.000 A 
ATOM     30  C   UNL     1      42.817  -3.117   9.975  0.00  0.00    +0.000 A 
ATOM     31  C   UNL     1      42.640  -3.234  11.341  0.00  0.00    +0.000 A 
ENDBRANCH  25  26
ENDBRANCH  24  25
ENDBRANCH  11  24
TORSDOF 7
ENDMDL
