MODEL 1
REMARK VINA RESULT:      -6.2      0.000      0.000
REMARK  Name = 
REMARK  4 active torsions:
REMARK  status: ('A' for Active; 'I' for Inactive)
REMARK    1  A    between atoms: C_4  and  N_5
REMARK    2  A    between atoms: N_5  and  N_6
REMARK    3  A    between atoms: N_6  and  C_7
REMARK    4  A    between atoms: C_11  and  N_12
REMARK                            x       y       z     vdW  Elec       q    Type
REMARK                         _______ _______ _______ _____ _____    ______ ____
ROOT
ATOM      1  N   UNL     1      26.352  25.523  25.514  0.00  0.00    +0.000 NA
ENDROOT
BRANCH   1   5
ATOM      2  C   UNL     1      30.266  22.641  25.509  0.00  0.00    +0.000 C 
ATOM      3  C   UNL     1      28.677  22.847  25.118  0.00  0.00    +0.000 C 
ATOM      4  C   UNL     1      28.657  24.425  25.582  0.00  0.00    +0.000 C 
ATOM      5  C   UNL     1      27.518  25.033  24.871  0.00  0.00    +0.000 C 
ATOM      6  C   UNL     1      27.693  25.076  23.559  0.00  0.00    +0.000 C 
ATOM      7  C   UNL     1      29.013  24.489  23.178  0.00  0.00    +0.000 C 
ATOM      8  C   UNL     1      30.156  25.299  23.718  0.00  0.00    +0.000 C 
ATOM      9  C   UNL     1      29.100  24.554  21.672  0.00  0.00    +0.000 C 
ATOM     10  C   UNL     1      28.984  23.079  23.533  0.00  0.00    +0.000 C 
ENDBRANCH   1   5
BRANCH   1  11
ATOM     11  N   UNL     1      25.590  24.689  26.294  0.00  0.00    +0.000 NA
BRANCH  11  12
ATOM     12  C   UNL     1      25.671  24.606  27.711  0.00  0.00    +0.000 A 
ATOM     13  C   UNL     1      25.271  25.722  28.442  0.00  0.00    +0.000 A 
ATOM     14  C   UNL     1      25.341  25.664  29.815  0.00  0.00    +0.000 A 
ATOM     15  C   UNL     1      25.787  24.556  30.486  0.00  0.00    +0.000 A 
ATOM     16  C   UNL     1      26.185  23.446  29.781  0.00  0.00    +0.000 A 
ATOM     17  C   UNL     1      26.114  23.504  28.392  0.00  0.00    +0.000 A 
BRANCH  16  18
ATOM     18  N   UNL     1      26.655  22.272  30.439  0.00  0.00    +0.000 N 
ATOM     19  O   UNL     1      27.881  22.099  30.526  0.00  0.00    +0.000 OA
ATOM     20  O   UNL     1      25.752  21.373  30.953  0.00  0.00    +0.000 OA
ENDBRANCH  16  18
ENDBRANCH  11  12
ENDBRANCH   1  11
TORSDOF 4
ENDMDL
MODEL 2
REMARK VINA RESULT:      -6.1      4.278      5.727
REMARK  Name = 
REMARK  4 active torsions:
REMARK  status: ('A' for Active; 'I' for Inactive)
REMARK    1  A    between atoms: C_4  and  N_5
REMARK    2  A    between atoms: N_5  and  N_6
REMARK    3  A    between atoms: N_6  and  C_7
REMARK    4  A    between atoms: C_11  and  N_12
REMARK                            x       y       z     vdW  Elec       q    Type
REMARK                         _______ _______ _______ _____ _____    ______ ____
ROOT
ATOM      1  N   UNL     1      29.901  26.958  25.252  0.00  0.00    +0.000 NA
ENDROOT
BRANCH   1   5
ATOM      2  C   UNL     1      30.494  22.253  26.324  0.00  0.00    +0.000 C 
ATOM      3  C   UNL     1      30.280  23.411  25.170  0.00  0.00    +0.000 C 
ATOM      4  C   UNL     1      30.384  24.654  26.243  0.00  0.00    +0.000 C 
ATOM      5  C   UNL     1      30.751  25.838  25.446  0.00  0.00    +0.000 C 
ATOM      6  C   UNL     1      31.964  25.750  24.923  0.00  0.00    +0.000 C 
ATOM      7  C   UNL     1      32.616  24.460  25.299  0.00  0.00    +0.000 C 
ATOM      8  C   UNL     1      32.858  24.372  26.779  0.00  0.00    +0.000 C 
ATOM      9  C   UNL     1      33.969  24.444  24.631  0.00  0.00    +0.000 C 
ATOM     10  C   UNL     1      31.841  23.385  24.699  0.00  0.00    +0.000 C 
ENDBRANCH   1   5
BRANCH   1  11
ATOM     11  N   UNL     1      29.129  27.051  24.122  0.00  0.00    +0.000 NA
BRANCH  11  12
ATOM     12  C   UNL     1      28.680  25.943  23.353  0.00  0.00    +0.000 A 
ATOM     13  C   UNL     1      29.427  25.596  22.230  0.00  0.00    +0.000 A 
ATOM     14  C   UNL     1      29.010  24.526  21.472  0.00  0.00    +0.000 A 
ATOM     15  C   UNL     1      27.895  23.793  21.778  0.00  0.00    +0.000 A 
ATOM     16  C   UNL     1      27.146  24.120  22.884  0.00  0.00    +0.000 A 
ATOM     17  C   UNL     1      27.567  25.202  23.650  0.00  0.00    +0.000 A 
BRANCH  16  18
ATOM     18  N   UNL     1      25.979  23.384  23.239  0.00  0.00    +0.000 N 
ATOM     19  O   UNL     1      25.639  23.360  24.432  0.00  0.00    +0.000 OA
ATOM     20  O   UNL     1      25.267  22.726  22.264  0.00  0.00    +0.000 OA
ENDBRANCH  16  18
ENDBRANCH  11  12
ENDBRANCH   1  11
TORSDOF 4
ENDMDL
MODEL 3
REMARK VINA RESULT:      -6.1      3.919      6.772
REMARK  Name = 
REMARK  4 active torsions:
REMARK  status: ('A' for Active; 'I' for Inactive)
REMARK    1  A    between atoms: C_4  and  N_5
REMARK    2  A    between atoms: N_5  and  N_6
REMARK    3  A    between atoms: N_6  and  C_7
REMARK    4  A    between atoms: C_11  and  N_12
REMARK                            x       y       z     vdW  Elec       q    Type
REMARK                         _______ _______ _______ _____ _____    ______ ____
ROOT
ATOM      1  N   UNL     1      29.621  23.123  27.028  0.00  0.00    +0.000 NA
ENDROOT
BRANCH   1   5
ATOM      2  C   UNL     1      26.315  26.076  29.023  0.00  0.00    +0.000 C 
ATOM      3  C   UNL     1      26.648  24.860  27.960  0.00  0.00    +0.000 C 
ATOM      4  C   UNL     1      28.220  24.735  28.428  0.00  0.00    +0.000 C 
ATOM      5  C   UNL     1      28.648  23.384  28.027  0.00  0.00    +0.000 C 
ATOM      6  C   UNL     1      28.026  22.427  28.698  0.00  0.00    +0.000 C 
ATOM      7  C   UNL     1      27.060  23.005  29.680  0.00  0.00    +0.000 C 
ATOM      8  C   UNL     1      27.762  23.793  30.749  0.00  0.00    +0.000 C 
ATOM      9  C   UNL     1      26.385  21.841  30.364  0.00  0.00    +0.000 C 
ATOM     10  C   UNL     1      26.030  23.700  28.924  0.00  0.00    +0.000 C 
ENDBRANCH   1   5
BRANCH   1  11
ATOM     11  N   UNL     1      29.278  22.435  25.891  0.00  0.00    +0.000 NA
BRANCH  11  12
ATOM     12  C   UNL     1      28.428  22.935  24.867  0.00  0.00    +0.000 A 
ATOM     13  C   UNL     1      27.056  22.751  25.025  0.00  0.00    +0.000 A 
ATOM     14  C   UNL     1      26.215  23.227  24.046  0.00  0.00    +0.000 A 
ATOM     15  C   UNL     1      26.672  23.873  22.928  0.00  0.00    +0.000 A 
ATOM     16  C   UNL     1      28.023  24.065  22.756  0.00  0.00    +0.000 A 
ATOM     17  C   UNL     1      28.874  23.583  23.746  0.00  0.00    +0.000 A 
BRANCH  16  18
ATOM     18  N   UNL     1      28.542  24.731  21.608  0.00  0.00    +0.000 N 
ATOM     19  O   UNL     1      27.937  25.728  21.184  0.00  0.00    +0.000 OA
ATOM     20  O   UNL     1      29.683  24.259  21.007  0.00  0.00    +0.000 OA
ENDBRANCH  16  18
ENDBRANCH  11  12
ENDBRANCH   1  11
TORSDOF 4
ENDMDL
MODEL 4
REMARK VINA RESULT:      -6.0     32.601     34.028
REMARK  Name = 
REMARK  4 active torsions:
REMARK  status: ('A' for Active; 'I' for Inactive)
REMARK    1  A    between atoms: C_4  and  N_5
REMARK    2  A    between atoms: N_5  and  N_6
REMARK    3  A    between atoms: N_6  and  C_7
REMARK    4  A    between atoms: C_11  and  N_12
REMARK                            x       y       z     vdW  Elec       q    Type
REMARK                         _______ _______ _______ _____ _____    ______ ____
ROOT
ATOM      1  N   UNL     1      16.838  -9.346  27.299  0.00  0.00    +0.000 NA
ENDROOT
BRANCH   1   5
ATOM      2  C   UNL     1      21.057 -11.693  27.868  0.00  0.00    +0.000 C 
ATOM      3  C   UNL     1      20.257 -10.255  27.752  0.00  0.00    +0.000 C 
ATOM      4  C   UNL     1      18.772 -10.960  27.720  0.00  0.00    +0.000 C 
ATOM      5  C   UNL     1      17.826  -9.912  28.145  0.00  0.00    +0.000 C 
ATOM      6  C   UNL     1      17.993  -9.549  29.407  0.00  0.00    +0.000 C 
ATOM      7  C   UNL     1      19.106 -10.318  30.041  0.00  0.00    +0.000 C 
ATOM      8  C   UNL     1      18.786 -11.783  30.131  0.00  0.00    +0.000 C 
ATOM      9  C   UNL     1      19.236  -9.810  31.456  0.00  0.00    +0.000 C 
ATOM     10  C   UNL     1      20.335  -9.958  29.354  0.00  0.00    +0.000 C 
ENDBRANCH   1   5
BRANCH   1  11
ATOM     11  N   UNL     1      17.207  -8.650  26.175  0.00  0.00    +0.000 NA
BRANCH  11  12
ATOM     12  C   UNL     1      18.115  -7.556  26.161  0.00  0.00    +0.000 A 
ATOM     13  C   UNL     1      17.697  -6.369  26.759  0.00  0.00    +0.000 A 
ATOM     14  C   UNL     1      18.559  -5.296  26.756  0.00  0.00    +0.000 A 
ATOM     15  C   UNL     1      19.806  -5.352  26.193  0.00  0.00    +0.000 A 
ATOM     16  C   UNL     1      20.236  -6.515  25.600  0.00  0.00    +0.000 A 
ATOM     17  C   UNL     1      19.364  -7.599  25.602  0.00  0.00    +0.000 A 
BRANCH  16  18
ATOM     18  N   UNL     1      21.525  -6.616  25.002  0.00  0.00    +0.000 N 
ATOM     19  O   UNL     1      22.330  -7.432  25.477  0.00  0.00    +0.000 OA
ATOM     20  O   UNL     1      21.841  -5.818  23.930  0.00  0.00    +0.000 OA
ENDBRANCH  16  18
ENDBRANCH  11  12
ENDBRANCH   1  11
TORSDOF 4
ENDMDL
MODEL 5
REMARK VINA RESULT:      -5.9      1.302      2.522
REMARK  Name = 
REMARK  4 active torsions:
REMARK  status: ('A' for Active; 'I' for Inactive)
REMARK    1  A    between atoms: C_4  and  N_5
REMARK    2  A    between atoms: N_5  and  N_6
REMARK    3  A    between atoms: N_6  and  C_7
REMARK    4  A    between atoms: C_11  and  N_12
REMARK                            x       y       z     vdW  Elec       q    Type
REMARK                         _______ _______ _______ _____ _____    ______ ____
ROOT
ATOM      1  N   UNL     1      26.510  22.708  25.501  0.00  0.00    +0.000 NA
ENDROOT
BRANCH   1   5
ATOM      2  C   UNL     1      29.933  25.165  23.077  0.00  0.00    +0.000 C 
ATOM      3  C   UNL     1      28.932  25.077  24.384  0.00  0.00    +0.000 C 
ATOM      4  C   UNL     1      28.393  23.569  24.007  0.00  0.00    +0.000 C 
ATOM      5  C   UNL     1      27.877  23.005  25.266  0.00  0.00    +0.000 C 
ATOM      6  C   UNL     1      28.827  22.801  26.166  0.00  0.00    +0.000 C 
ATOM      7  C   UNL     1      30.162  23.208  25.634  0.00  0.00    +0.000 C 
ATOM      8  C   UNL     1      30.581  22.351  24.474  0.00  0.00    +0.000 C 
ATOM      9  C   UNL     1      31.162  22.970  26.739  0.00  0.00    +0.000 C 
ATOM     10  C   UNL     1      30.125  24.644  25.407  0.00  0.00    +0.000 C 
ENDBRANCH   1   5
BRANCH   1  11
ATOM     11  N   UNL     1      25.621  23.717  25.777  0.00  0.00    +0.000 NA
BRANCH  11  12
ATOM     12  C   UNL     1      25.446  24.314  27.055  0.00  0.00    +0.000 A 
ATOM     13  C   UNL     1      24.734  25.510  27.112  0.00  0.00    +0.000 A 
ATOM     14  C   UNL     1      24.553  26.106  28.340  0.00  0.00    +0.000 A 
ATOM     15  C   UNL     1      25.043  25.570  29.500  0.00  0.00    +0.000 A 
ATOM     16  C   UNL     1      25.747  24.390  29.464  0.00  0.00    +0.000 A 
ATOM     17  C   UNL     1      25.931  23.788  28.223  0.00  0.00    +0.000 A 
BRANCH  16  18
ATOM     18  N   UNL     1      26.274  23.798  30.648  0.00  0.00    +0.000 N 
ATOM     19  O   UNL     1      26.907  24.520  31.434  0.00  0.00    +0.000 OA
ATOM     20  O   UNL     1      26.072  22.460  30.886  0.00  0.00    +0.000 OA
ENDBRANCH  16  18
ENDBRANCH  11  12
ENDBRANCH   1  11
TORSDOF 4
ENDMDL
MODEL 6
REMARK VINA RESULT:      -5.9     27.795     29.854
REMARK  Name = 
REMARK  4 active torsions:
REMARK  status: ('A' for Active; 'I' for Inactive)
REMARK    1  A    between atoms: C_4  and  N_5
REMARK    2  A    between atoms: N_5  and  N_6
REMARK    3  A    between atoms: N_6  and  C_7
REMARK    4  A    between atoms: C_11  and  N_12
REMARK                            x       y       z     vdW  Elec       q    Type
REMARK                         _______ _______ _______ _____ _____    ______ ____
ROOT
ATOM      1  N   UNL     1      32.990  -4.316  34.478  0.00  0.00    +0.000 NA
ENDROOT
BRANCH   1   5
ATOM      2  C   UNL     1      33.614  -0.410  37.303  0.00  0.00    +0.000 C 
ATOM      3  C   UNL     1      34.295  -1.615  36.408  0.00  0.00    +0.000 C 
ATOM      4  C   UNL     1      32.850  -2.168  35.852  0.00  0.00    +0.000 C 
ATOM      5  C   UNL     1      33.157  -2.914  34.619  0.00  0.00    +0.000 C 
ATOM      6  C   UNL     1      33.610  -2.137  33.647  0.00  0.00    +0.000 C 
ATOM      7  C   UNL     1      33.678  -0.712  34.090  0.00  0.00    +0.000 C 
ATOM      8  C   UNL     1      32.312  -0.158  34.383  0.00  0.00    +0.000 C 
ATOM      9  C   UNL     1      34.233   0.079  32.931  0.00  0.00    +0.000 C 
ATOM     10  C   UNL     1      34.660  -0.631  35.160  0.00  0.00    +0.000 C 
ENDBRANCH   1   5
BRANCH   1  11
ATOM     11  N   UNL     1      32.494  -4.838  33.309  0.00  0.00    +0.000 NA
BRANCH  11  12
ATOM     12  C   UNL     1      33.283  -5.451  32.297  0.00  0.00    +0.000 A 
ATOM     13  C   UNL     1      34.645  -5.602  32.550  0.00  0.00    +0.000 A 
ATOM     14  C   UNL     1      35.427  -6.193  31.583  0.00  0.00    +0.000 A 
ATOM     15  C   UNL     1      34.920  -6.635  30.391  0.00  0.00    +0.000 A 
ATOM     16  C   UNL     1      33.579  -6.495  30.125  0.00  0.00    +0.000 A 
ATOM     17  C   UNL     1      32.788  -5.898  31.101  0.00  0.00    +0.000 A 
BRANCH  16  18
ATOM     18  N   UNL     1      33.010  -6.941  28.897  0.00  0.00    +0.000 N 
ATOM     19  O   UNL     1      32.304  -7.962  28.913  0.00  0.00    +0.000 OA
ATOM     20  O   UNL     1      33.254  -6.240  27.741  0.00  0.00    +0.000 OA
ENDBRANCH  16  18
ENDBRANCH  11  12
ENDBRANCH   1  11
TORSDOF 4
ENDMDL
MODEL 7
REMARK VINA RESULT:      -5.9      2.543      3.517
REMARK  Name = 
REMARK  4 active torsions:
REMARK  status: ('A' for Active; 'I' for Inactive)
REMARK    1  A    between atoms: C_4  and  N_5
REMARK    2  A    between atoms: N_5  and  N_6
REMARK    3  A    between atoms: N_6  and  C_7
REMARK    4  A    between atoms: C_11  and  N_12
REMARK                            x       y       z     vdW  Elec       q    Type
REMARK                         _______ _______ _______ _____ _____    ______ ____
ROOT
ATOM      1  N   UNL     1      29.646  22.581  26.121  0.00  0.00    +0.000 NA
ENDROOT
BRANCH   1   5
ATOM      2  C   UNL     1      29.155  25.289  22.114  0.00  0.00    +0.000 C 
ATOM      3  C   UNL     1      29.194  23.787  22.794  0.00  0.00    +0.000 C 
ATOM      4  C   UNL     1      29.294  24.367  24.330  0.00  0.00    +0.000 C 
ATOM      5  C   UNL     1      28.821  23.275  25.199  0.00  0.00    +0.000 C 
ATOM      6  C   UNL     1      27.536  23.003  25.030  0.00  0.00    +0.000 C 
ATOM      7  C   UNL     1      26.933  23.896  23.996  0.00  0.00    +0.000 C 
ATOM      8  C   UNL     1      26.939  25.333  24.432  0.00  0.00    +0.000 C 
ATOM      9  C   UNL     1      25.487  23.486  23.856  0.00  0.00    +0.000 C 
ATOM     10  C   UNL     1      27.576  23.594  22.727  0.00  0.00    +0.000 C 
ENDBRANCH   1   5
BRANCH   1  11
ATOM     11  N   UNL     1      30.089  23.208  27.259  0.00  0.00    +0.000 NA
BRANCH  11  12
ATOM     12  C   UNL     1      29.621  22.929  28.572  0.00  0.00    +0.000 A 
ATOM     13  C   UNL     1      30.576  22.676  29.554  0.00  0.00    +0.000 A 
ATOM     14  C   UNL     1      30.144  22.403  30.832  0.00  0.00    +0.000 A 
ATOM     15  C   UNL     1      28.819  22.372  31.173  0.00  0.00    +0.000 A 
ATOM     16  C   UNL     1      27.862  22.620  30.218  0.00  0.00    +0.000 A 
ATOM     17  C   UNL     1      28.298  22.895  28.925  0.00  0.00    +0.000 A 
BRANCH  16  18
ATOM     18  N   UNL     1      26.472  22.598  30.530  0.00  0.00    +0.000 N 
ATOM     19  O   UNL     1      25.952  21.509  30.819  0.00  0.00    +0.000 OA
ATOM     20  O   UNL     1      25.750  23.767  30.503  0.00  0.00    +0.000 OA
ENDBRANCH  16  18
ENDBRANCH  11  12
ENDBRANCH   1  11
TORSDOF 4
ENDMDL
MODEL 8
REMARK VINA RESULT:      -5.8     17.940     19.492
REMARK  Name = 
REMARK  4 active torsions:
REMARK  status: ('A' for Active; 'I' for Inactive)
REMARK    1  A    between atoms: C_4  and  N_5
REMARK    2  A    between atoms: N_5  and  N_6
REMARK    3  A    between atoms: N_6  and  C_7
REMARK    4  A    between atoms: C_11  and  N_12
REMARK                            x       y       z     vdW  Elec       q    Type
REMARK                         _______ _______ _______ _____ _____    ______ ____
ROOT
ATOM      1  N   UNL     1      18.328   9.846  38.760  0.00  0.00    +0.000 NA
ENDROOT
BRANCH   1   5
ATOM      2  C   UNL     1      23.112   9.365  38.045  0.00  0.00    +0.000 C 
ATOM      3  C   UNL     1      21.652   9.869  37.466  0.00  0.00    +0.000 C 
ATOM      4  C   UNL     1      20.861   9.544  38.871  0.00  0.00    +0.000 C 
ATOM      5  C   UNL     1      19.643  10.372  38.842  0.00  0.00    +0.000 C 
ATOM      6  C   UNL     1      19.901  11.670  38.900  0.00  0.00    +0.000 C 
ATOM      7  C   UNL     1      21.372  11.918  38.980  0.00  0.00    +0.000 C 
ATOM      8  C   UNL     1      21.956  11.380  40.256  0.00  0.00    +0.000 C 
ATOM      9  C   UNL     1      21.561  13.415  39.008  0.00  0.00    +0.000 C 
ATOM     10  C   UNL     1      21.965  11.446  37.739  0.00  0.00    +0.000 C 
ENDBRANCH   1   5
BRANCH   1  11
ATOM     11  N   UNL     1      17.342  10.548  38.110  0.00  0.00    +0.000 NA
BRANCH  11  12
ATOM     12  C   UNL     1      17.119  10.519  36.706  0.00  0.00    +0.000 A 
ATOM     13  C   UNL     1      17.850   9.598  35.959  0.00  0.00    +0.000 A 
ATOM     14  C   UNL     1      17.650   9.554  34.598  0.00  0.00    +0.000 A 
ATOM     15  C   UNL     1      16.763  10.375  33.955  0.00  0.00    +0.000 A 
ATOM     16  C   UNL     1      16.032  11.289  34.676  0.00  0.00    +0.000 A 
ATOM     17  C   UNL     1      16.235  11.335  36.052  0.00  0.00    +0.000 A 
BRANCH  16  18
ATOM     18  N   UNL     1      15.099  12.163  34.046  0.00  0.00    +0.000 N 
ATOM     19  O   UNL     1      14.439  12.931  34.762  0.00  0.00    +0.000 OA
ATOM     20  O   UNL     1      14.955  12.133  32.680  0.00  0.00    +0.000 OA
ENDBRANCH  16  18
ENDBRANCH  11  12
ENDBRANCH   1  11
TORSDOF 4
ENDMDL
MODEL 9
REMARK VINA RESULT:      -5.8      2.460      3.444
REMARK  Name = 
REMARK  4 active torsions:
REMARK  status: ('A' for Active; 'I' for Inactive)
REMARK    1  A    between atoms: C_4  and  N_5
REMARK    2  A    between atoms: N_5  and  N_6
REMARK    3  A    between atoms: N_6  and  C_7
REMARK    4  A    between atoms: C_11  and  N_12
REMARK                            x       y       z     vdW  Elec       q    Type
REMARK                         _______ _______ _______ _____ _____    ______ ____
ROOT
ATOM      1  N   UNL     1      29.451  22.265  25.901  0.00  0.00    +0.000 NA
ENDROOT
BRANCH   1   5
ATOM      2  C   UNL     1      25.605  24.963  24.654  0.00  0.00    +0.000 C 
ATOM      3  C   UNL     1      27.107  24.893  25.330  0.00  0.00    +0.000 C 
ATOM      4  C   UNL     1      27.322  23.307  24.951  0.00  0.00    +0.000 C 
ATOM      5  C   UNL     1      28.779  23.090  24.962  0.00  0.00    +0.000 C 
ATOM      6  C   UNL     1      29.405  23.748  23.999  0.00  0.00    +0.000 C 
ATOM      7  C   UNL     1      28.438  24.529  23.171  0.00  0.00    +0.000 C 
ATOM      8  C   UNL     1      27.491  23.629  22.430  0.00  0.00    +0.000 C 
ATOM      9  C   UNL     1      29.249  25.264  22.131  0.00  0.00    +0.000 C 
ATOM     10  C   UNL     1      27.843  25.542  24.028  0.00  0.00    +0.000 C 
ENDBRANCH   1   5
BRANCH   1  11
ATOM     11  N   UNL     1      30.077  22.823  26.988  0.00  0.00    +0.000 NA
BRANCH  11  12
ATOM     12  C   UNL     1      29.609  22.733  28.327  0.00  0.00    +0.000 A 
ATOM     13  C   UNL     1      30.566  22.631  29.335  0.00  0.00    +0.000 A 
ATOM     14  C   UNL     1      30.135  22.541  30.639  0.00  0.00    +0.000 A 
ATOM     15  C   UNL     1      28.809  22.550  30.981  0.00  0.00    +0.000 A 
ATOM     16  C   UNL     1      27.852  22.652  30.001  0.00  0.00    +0.000 A 
ATOM     17  C   UNL     1      28.287  22.741  28.682  0.00  0.00    +0.000 A 
BRANCH  16  18
ATOM     18  N   UNL     1      26.461  22.664  30.313  0.00  0.00    +0.000 N 
ATOM     19  O   UNL     1      25.948  21.624  30.752  0.00  0.00    +0.000 OA
ATOM     20  O   UNL     1      25.733  23.813  30.122  0.00  0.00    +0.000 OA
ENDBRANCH  16  18
ENDBRANCH  11  12
ENDBRANCH   1  11
TORSDOF 4
ENDMDL
MODEL 10
REMARK VINA RESULT:      -5.8     26.414     28.287
REMARK  Name = 
REMARK  4 active torsions:
REMARK  status: ('A' for Active; 'I' for Inactive)
REMARK    1  A    between atoms: C_4  and  N_5
REMARK    2  A    between atoms: N_5  and  N_6
REMARK    3  A    between atoms: N_6  and  C_7
REMARK    4  A    between atoms: C_11  and  N_12
REMARK                            x       y       z     vdW  Elec       q    Type
REMARK                         _______ _______ _______ _____ _____    ______ ____
ROOT
ATOM      1  N   UNL     1      33.590  -3.064  34.064  0.00  0.00    +0.000 NA
ENDROOT
BRANCH   1   5
ATOM      2  C   UNL     1      34.474  -7.844  34.078  0.00  0.00    +0.000 C 
ATOM      3  C   UNL     1      33.383  -6.621  33.895  0.00  0.00    +0.000 C 
ATOM      4  C   UNL     1      34.522  -5.441  34.015  0.00  0.00    +0.000 C 
ATOM      5  C   UNL     1      33.933  -4.253  33.371  0.00  0.00    +0.000 C 
ATOM      6  C   UNL     1      33.754  -4.410  32.069  0.00  0.00    +0.000 C 
ATOM      7  C   UNL     1      34.208  -5.762  31.626  0.00  0.00    +0.000 C 
ATOM      8  C   UNL     1      35.689  -5.935  31.805  0.00  0.00    +0.000 C 
ATOM      9  C   UNL     1      33.932  -5.851  30.144  0.00  0.00    +0.000 C 
ATOM     10  C   UNL     1      33.351  -6.745  32.270  0.00  0.00    +0.000 C 
ENDBRANCH   1   5
BRANCH   1  11
ATOM     11  N   UNL     1      33.579  -1.859  33.406  0.00  0.00    +0.000 NA
BRANCH  11  12
ATOM     12  C   UNL     1      33.626  -0.589  34.041  0.00  0.00    +0.000 A 
ATOM     13  C   UNL     1      33.768  -0.569  35.427  0.00  0.00    +0.000 A 
ATOM     14  C   UNL     1      33.816   0.651  36.062  0.00  0.00    +0.000 A 
ATOM     15  C   UNL     1      33.730   1.839  35.388  0.00  0.00    +0.000 A 
ATOM     16  C   UNL     1      33.591   1.839  34.021  0.00  0.00    +0.000 A 
ATOM     17  C   UNL     1      33.542   0.606  33.378  0.00  0.00    +0.000 A 
BRANCH  16  18
ATOM     18  N   UNL     1      33.497   3.053  33.280  0.00  0.00    +0.000 N 
ATOM     19  O   UNL     1      33.751   3.021  32.066  0.00  0.00    +0.000 OA
ATOM     20  O   UNL     1      33.135   4.214  33.920  0.00  0.00    +0.000 OA
ENDBRANCH  16  18
ENDBRANCH  11  12
ENDBRANCH   1  11
TORSDOF 4
ENDMDL
