MODEL 1
REMARK VINA RESULT:      -7.7      0.000      0.000
REMARK  Name = 
REMARK  4 active torsions:
REMARK  status: ('A' for Active; 'I' for Inactive)
REMARK    1  A    between atoms: C_6  and  N_7
REMARK    2  A    between atoms: C_8  and  C_10
REMARK    3  A    between atoms: C_10  and  C_11
REMARK    4  A    between atoms: C_16  and  N_17
REMARK                            x       y       z     vdW  Elec       q    Type
REMARK                         _______ _______ _______ _____ _____    ______ ____
ROOT
ATOM      1  N   UNL     1      15.988  10.286  35.586  0.00  0.00    +0.000 NA
ATOM      2  C   UNL     1      16.193  11.370  34.696  0.00  0.00    +0.000 C 
ATOM      3  O   UNL     1      17.091  12.198  34.968  0.00  0.00    +0.000 OA
ENDROOT
BRANCH   1   9
ATOM      4  C   UNL     1      19.053   9.668  40.286  0.00  0.00    +0.000 C 
ATOM      5  C   UNL     1      18.305   9.788  38.984  0.00  0.00    +0.000 A 
ATOM      6  C   UNL     1      18.788   9.336  37.799  0.00  0.00    +0.000 A 
ATOM      7  C   UNL     1      17.990   9.515  36.663  0.00  0.00    +0.000 A 
ATOM      8  C   UNL     1      18.486   9.033  35.343  0.00  0.00    +0.000 C 
ATOM      9  C   UNL     1      16.761  10.126  36.748  0.00  0.00    +0.000 A 
ATOM     10  C   UNL     1      16.270  10.584  37.947  0.00  0.00    +0.000 A 
ATOM     11  C   UNL     1      14.933  11.248  38.036  0.00  0.00    +0.000 C 
ATOM     12  C   UNL     1      17.060  10.407  39.067  0.00  0.00    +0.000 A 
ENDBRANCH   1   9
BRANCH   2  13
ATOM     13  C   UNL     1      15.356  11.484  33.503  0.00  0.00    +0.000 C 
BRANCH  13  14
ATOM     14  C   UNL     1      14.631  12.761  33.367  0.00  0.00    +0.000 A 
ATOM     15  C   UNL     1      14.069  13.324  34.518  0.00  0.00    +0.000 A 
ATOM     16  C   UNL     1      13.349  14.494  34.428  0.00  0.00    +0.000 A 
ATOM     17  C   UNL     1      13.156  15.149  33.232  0.00  0.00    +0.000 A 
ATOM     18  C   UNL     1      13.709  14.598  32.101  0.00  0.00    +0.000 A 
ATOM     19  C   UNL     1      14.448  13.401  32.171  0.00  0.00    +0.000 A 
BRANCH  19  20
ATOM     20  N   UNL     1      15.041  12.863  31.005  0.00  0.00    +0.000 N 
ATOM     21  O   UNL     1      16.167  13.204  30.650  0.00  0.00    +0.000 OA
ATOM     22  O   UNL     1      14.369  11.947  30.233  0.00  0.00    +0.000 OA
ENDBRANCH  19  20
ENDBRANCH  13  14
ENDBRANCH   2  13
TORSDOF 4
ENDMDL
MODEL 2
REMARK VINA RESULT:      -7.1      3.405      7.590
REMARK  Name = 
REMARK  4 active torsions:
REMARK  status: ('A' for Active; 'I' for Inactive)
REMARK    1  A    between atoms: C_6  and  N_7
REMARK    2  A    between atoms: C_8  and  C_10
REMARK    3  A    between atoms: C_10  and  C_11
REMARK    4  A    between atoms: C_16  and  N_17
REMARK                            x       y       z     vdW  Elec       q    Type
REMARK                         _______ _______ _______ _____ _____    ______ ____
ROOT
ATOM      1  N   UNL     1      17.023   9.922  37.399  0.00  0.00    +0.000 NA
ATOM      2  C   UNL     1      18.055  10.522  38.163  0.00  0.00    +0.000 C 
ATOM      3  O   UNL     1      18.588  11.566  37.723  0.00  0.00    +0.000 OA
ENDROOT
BRANCH   1   9
ATOM      4  C   UNL     1      15.256  12.145  32.521  0.00  0.00    +0.000 C 
ATOM      5  C   UNL     1      15.789  11.498  33.771  0.00  0.00    +0.000 A 
ATOM      6  C   UNL     1      16.749  10.538  33.768  0.00  0.00    +0.000 A 
ATOM      7  C   UNL     1      17.151  10.019  35.004  0.00  0.00    +0.000 A 
ATOM      8  C   UNL     1      18.202   8.964  35.040  0.00  0.00    +0.000 C 
ATOM      9  C   UNL     1      16.593  10.467  36.178  0.00  0.00    +0.000 A 
ATOM     10  C   UNL     1      15.621  11.438  36.184  0.00  0.00    +0.000 A 
ATOM     11  C   UNL     1      15.016  11.923  37.463  0.00  0.00    +0.000 C 
ATOM     12  C   UNL     1      15.225  11.950  34.962  0.00  0.00    +0.000 A 
ENDBRANCH   1   9
BRANCH   2  13
ATOM     13  C   UNL     1      18.461   9.907  39.425  0.00  0.00    +0.000 C 
BRANCH  13  14
ATOM     14  C   UNL     1      17.390   9.197  40.147  0.00  0.00    +0.000 A 
ATOM     15  C   UNL     1      16.160   9.844  40.304  0.00  0.00    +0.000 A 
ATOM     16  C   UNL     1      15.147   9.233  41.007  0.00  0.00    +0.000 A 
ATOM     17  C   UNL     1      15.292   7.985  41.572  0.00  0.00    +0.000 A 
ATOM     18  C   UNL     1      16.500   7.347  41.419  0.00  0.00    +0.000 A 
ATOM     19  C   UNL     1      17.549   7.956  40.704  0.00  0.00    +0.000 A 
BRANCH  19  20
ATOM     20  N   UNL     1      18.775   7.273  40.524  0.00  0.00    +0.000 N 
ATOM     21  O   UNL     1      18.898   6.406  39.662  0.00  0.00    +0.000 OA
ATOM     22  O   UNL     1      19.862   7.559  41.314  0.00  0.00    +0.000 OA
ENDBRANCH  19  20
ENDBRANCH  13  14
ENDBRANCH   2  13
TORSDOF 4
ENDMDL
MODEL 3
REMARK VINA RESULT:      -7.0     18.021     20.177
REMARK  Name = 
REMARK  4 active torsions:
REMARK  status: ('A' for Active; 'I' for Inactive)
REMARK    1  A    between atoms: C_6  and  N_7
REMARK    2  A    between atoms: C_8  and  C_10
REMARK    3  A    between atoms: C_10  and  C_11
REMARK    4  A    between atoms: C_16  and  N_17
REMARK                            x       y       z     vdW  Elec       q    Type
REMARK                         _______ _______ _______ _____ _____    ______ ____
ROOT
ATOM      1  N   UNL     1      27.884  22.702  25.413  0.00  0.00    +0.000 NA
ATOM      2  C   UNL     1      27.537  23.389  26.603  0.00  0.00    +0.000 C 
ATOM      3  O   UNL     1      27.537  24.640  26.587  0.00  0.00    +0.000 OA
ENDROOT
BRANCH   1   9
ATOM      4  C   UNL     1      29.298  25.457  20.694  0.00  0.00    +0.000 C 
ATOM      5  C   UNL     1      28.830  24.721  21.921  0.00  0.00    +0.000 A 
ATOM      6  C   UNL     1      27.536  24.374  22.139  0.00  0.00    +0.000 A 
ATOM      7  C   UNL     1      27.237  23.693  23.325  0.00  0.00    +0.000 A 
ATOM      8  C   UNL     1      25.828  23.297  23.600  0.00  0.00    +0.000 C 
ATOM      9  C   UNL     1      28.222  23.387  24.234  0.00  0.00    +0.000 A 
ATOM     10  C   UNL     1      29.532  23.737  24.017  0.00  0.00    +0.000 A 
ATOM     11  C   UNL     1      30.601  23.403  25.009  0.00  0.00    +0.000 C 
ATOM     12  C   UNL     1      29.825  24.410  22.845  0.00  0.00    +0.000 A 
ENDBRANCH   1   9
BRANCH   2  13
ATOM     13  C   UNL     1      27.195  22.621  27.799  0.00  0.00    +0.000 C 
BRANCH  13  14
ATOM     14  C   UNL     1      28.201  22.659  28.876  0.00  0.00    +0.000 A 
ATOM     15  C   UNL     1      29.552  22.687  28.514  0.00  0.00    +0.000 A 
ATOM     16  C   UNL     1      30.524  22.681  29.488  0.00  0.00    +0.000 A 
ATOM     17  C   UNL     1      30.220  22.652  30.831  0.00  0.00    +0.000 A 
ATOM     18  C   UNL     1      28.893  22.626  31.189  0.00  0.00    +0.000 A 
ATOM     19  C   UNL     1      27.883  22.629  30.207  0.00  0.00    +0.000 A 
BRANCH  19  20
ATOM     20  N   UNL     1      26.521  22.637  30.590  0.00  0.00    +0.000 N 
ATOM     21  O   UNL     1      25.905  23.691  30.721  0.00  0.00    +0.000 OA
ATOM     22  O   UNL     1      25.852  21.462  30.832  0.00  0.00    +0.000 OA
ENDBRANCH  19  20
ENDBRANCH  13  14
ENDBRANCH   2  13
TORSDOF 4
ENDMDL
MODEL 4
REMARK VINA RESULT:      -7.0      3.682      7.979
REMARK  Name = 
REMARK  4 active torsions:
REMARK  status: ('A' for Active; 'I' for Inactive)
REMARK    1  A    between atoms: C_6  and  N_7
REMARK    2  A    between atoms: C_8  and  C_10
REMARK    3  A    between atoms: C_10  and  C_11
REMARK    4  A    between atoms: C_16  and  N_17
REMARK                            x       y       z     vdW  Elec       q    Type
REMARK                         _______ _______ _______ _____ _____    ______ ____
ROOT
ATOM      1  N   UNL     1      17.009  10.128  37.751  0.00  0.00    +0.000 NA
ATOM      2  C   UNL     1      18.192  10.540  38.414  0.00  0.00    +0.000 C 
ATOM      3  O   UNL     1      19.045  11.183  37.761  0.00  0.00    +0.000 OA
ENDROOT
BRANCH   1   9
ATOM      4  C   UNL     1      16.114  11.271  32.297  0.00  0.00    +0.000 C 
ATOM      5  C   UNL     1      16.296  11.040  33.773  0.00  0.00    +0.000 A 
ATOM      6  C   UNL     1      15.722  11.815  34.729  0.00  0.00    +0.000 A 
ATOM      7  C   UNL     1      15.976  11.490  36.066  0.00  0.00    +0.000 A 
ATOM      8  C   UNL     1      15.365  12.318  37.143  0.00  0.00    +0.000 C 
ATOM      9  C   UNL     1      16.778  10.423  36.397  0.00  0.00    +0.000 A 
ATOM     10  C   UNL     1      17.360   9.637  35.433  0.00  0.00    +0.000 A 
ATOM     11  C   UNL     1      18.232   8.478  35.796  0.00  0.00    +0.000 C 
ATOM     12  C   UNL     1      17.108   9.960  34.112  0.00  0.00    +0.000 A 
ENDBRANCH   1   9
BRANCH   2  13
ATOM     13  C   UNL     1      18.377  10.201  39.825  0.00  0.00    +0.000 C 
BRANCH  13  14
ATOM     14  C   UNL     1      18.126   8.790  40.167  0.00  0.00    +0.000 A 
ATOM     15  C   UNL     1      19.044   7.831  39.725  0.00  0.00    +0.000 A 
ATOM     16  C   UNL     1      18.826   6.498  39.988  0.00  0.00    +0.000 A 
ATOM     17  C   UNL     1      17.722   6.057  40.683  0.00  0.00    +0.000 A 
ATOM     18  C   UNL     1      16.819   6.997  41.119  0.00  0.00    +0.000 A 
ATOM     19  C   UNL     1      17.023   8.365  40.859  0.00  0.00    +0.000 A 
BRANCH  19  20
ATOM     20  N   UNL     1      16.104   9.325  41.344  0.00  0.00    +0.000 N 
ATOM     21  O   UNL     1      15.118   9.648  40.686  0.00  0.00    +0.000 OA
ATOM     22  O   UNL     1      16.292   9.927  42.564  0.00  0.00    +0.000 OA
ENDBRANCH  19  20
ENDBRANCH  13  14
ENDBRANCH   2  13
TORSDOF 4
ENDMDL
MODEL 5
REMARK VINA RESULT:      -7.0      1.250      2.232
REMARK  Name = 
REMARK  4 active torsions:
REMARK  status: ('A' for Active; 'I' for Inactive)
REMARK    1  A    between atoms: C_6  and  N_7
REMARK    2  A    between atoms: C_8  and  C_10
REMARK    3  A    between atoms: C_10  and  C_11
REMARK    4  A    between atoms: C_16  and  N_17
REMARK                            x       y       z     vdW  Elec       q    Type
REMARK                         _______ _______ _______ _____ _____    ______ ____
ROOT
ATOM      1  N   UNL     1      15.863  10.436  36.033  0.00  0.00    +0.000 NA
ATOM      2  C   UNL     1      15.457  11.703  35.544  0.00  0.00    +0.000 C 
ATOM      3  O   UNL     1      16.222  12.678  35.714  0.00  0.00    +0.000 OA
ENDROOT
BRANCH   1   9
ATOM      4  C   UNL     1      20.817   9.701  38.636  0.00  0.00    +0.000 C 
ATOM      5  C   UNL     1      19.458   9.917  38.027  0.00  0.00    +0.000 A 
ATOM      6  C   UNL     1      18.354  10.234  38.752  0.00  0.00    +0.000 A 
ATOM      7  C   UNL     1      17.150  10.404  38.059  0.00  0.00    +0.000 A 
ATOM      8  C   UNL     1      15.918  10.752  38.820  0.00  0.00    +0.000 C 
ATOM      9  C   UNL     1      17.090  10.256  36.694  0.00  0.00    +0.000 A 
ATOM     10  C   UNL     1      18.205   9.935  35.958  0.00  0.00    +0.000 A 
ATOM     11  C   UNL     1      18.136   9.774  34.472  0.00  0.00    +0.000 C 
ATOM     12  C   UNL     1      19.393   9.766  36.644  0.00  0.00    +0.000 A 
ENDBRANCH   1   9
BRANCH   2  13
ATOM     13  C   UNL     1      14.167  11.827  34.866  0.00  0.00    +0.000 C 
BRANCH  13  14
ATOM     14  C   UNL     1      14.109  12.861  33.818  0.00  0.00    +0.000 A 
ATOM     15  C   UNL     1      13.557  14.104  34.149  0.00  0.00    +0.000 A 
ATOM     16  C   UNL     1      13.446  15.083  33.189  0.00  0.00    +0.000 A 
ATOM     17  C   UNL     1      13.865  14.892  31.890  0.00  0.00    +0.000 A 
ATOM     18  C   UNL     1      14.408  13.672  31.563  0.00  0.00    +0.000 A 
ATOM     19  C   UNL     1      14.529  12.656  32.531  0.00  0.00    +0.000 A 
BRANCH  19  20
ATOM     20  N   UNL     1      15.121  11.418  32.190  0.00  0.00    +0.000 N 
ATOM     21  O   UNL     1      16.341  11.273  32.201  0.00  0.00    +0.000 OA
ATOM     22  O   UNL     1      14.346  10.342  31.830  0.00  0.00    +0.000 OA
ENDBRANCH  19  20
ENDBRANCH  13  14
ENDBRANCH   2  13
TORSDOF 4
ENDMDL
MODEL 6
REMARK VINA RESULT:      -6.7     18.492     20.241
REMARK  Name = 
REMARK  4 active torsions:
REMARK  status: ('A' for Active; 'I' for Inactive)
REMARK    1  A    between atoms: C_6  and  N_7
REMARK    2  A    between atoms: C_8  and  C_10
REMARK    3  A    between atoms: C_10  and  C_11
REMARK    4  A    between atoms: C_16  and  N_17
REMARK                            x       y       z     vdW  Elec       q    Type
REMARK                         _______ _______ _______ _____ _____    ______ ____
ROOT
ATOM      1  N   UNL     1      27.345  24.219  25.340  0.00  0.00    +0.000 NA
ATOM      2  C   UNL     1      26.640  23.698  24.226  0.00  0.00    +0.000 C 
ATOM      3  O   UNL     1      25.894  22.710  24.406  0.00  0.00    +0.000 OA
ENDROOT
BRANCH   1   9
ATOM      4  C   UNL     1      26.902  21.931  30.480  0.00  0.00    +0.000 C 
ATOM      5  C   UNL     1      26.942  22.593  29.129  0.00  0.00    +0.000 A 
ATOM      6  C   UNL     1      26.026  23.505  28.714  0.00  0.00    +0.000 A 
ATOM      7  C   UNL     1      26.179  24.041  27.431  0.00  0.00    +0.000 A 
ATOM      8  C   UNL     1      25.193  25.044  26.940  0.00  0.00    +0.000 C 
ATOM      9  C   UNL     1      27.223  23.658  26.622  0.00  0.00    +0.000 A 
ATOM     10  C   UNL     1      28.152  22.736  27.039  0.00  0.00    +0.000 A 
ATOM     11  C   UNL     1      29.286  22.321  26.156  0.00  0.00    +0.000 C 
ATOM     12  C   UNL     1      27.998  22.206  28.307  0.00  0.00    +0.000 A 
ENDBRANCH   1   9
BRANCH   2  13
ATOM     13  C   UNL     1      26.809  24.325  22.916  0.00  0.00    +0.000 C 
BRANCH  13  14
ATOM     14  C   UNL     1      27.516  25.618  22.927  0.00  0.00    +0.000 A 
ATOM     15  C   UNL     1      26.803  26.754  23.328  0.00  0.00    +0.000 A 
ATOM     16  C   UNL     1      27.413  27.988  23.315  0.00  0.00    +0.000 A 
ATOM     17  C   UNL     1      28.721  28.157  22.918  0.00  0.00    +0.000 A 
ATOM     18  C   UNL     1      29.423  27.043  22.524  0.00  0.00    +0.000 A 
ATOM     19  C   UNL     1      28.817  25.772  22.530  0.00  0.00    +0.000 A 
BRANCH  19  20
ATOM     20  N   UNL     1      29.561  24.628  22.155  0.00  0.00    +0.000 N 
ATOM     21  O   UNL     1      29.647  24.284  20.979  0.00  0.00    +0.000 OA
ATOM     22  O   UNL     1      30.205  23.867  23.101  0.00  0.00    +0.000 OA
ENDBRANCH  19  20
ENDBRANCH  13  14
ENDBRANCH   2  13
TORSDOF 4
ENDMDL
MODEL 7
REMARK VINA RESULT:      -6.6     20.892     23.370
REMARK  Name = 
REMARK  4 active torsions:
REMARK  status: ('A' for Active; 'I' for Inactive)
REMARK    1  A    between atoms: C_6  and  N_7
REMARK    2  A    between atoms: C_8  and  C_10
REMARK    3  A    between atoms: C_10  and  C_11
REMARK    4  A    between atoms: C_16  and  N_17
REMARK                            x       y       z     vdW  Elec       q    Type
REMARK                         _______ _______ _______ _____ _____    ______ ____
ROOT
ATOM      1  N   UNL     1      21.995  -8.378  23.768  0.00  0.00    +0.000 NA
ATOM      2  C   UNL     1      21.556  -8.736  25.068  0.00  0.00    +0.000 C 
ATOM      3  O   UNL     1      22.421  -8.965  25.943  0.00  0.00    +0.000 OA
ENDROOT
BRANCH   1   9
ATOM      4  C   UNL     1      27.476  -8.025  22.469  0.00  0.00    +0.000 C 
ATOM      5  C   UNL     1      26.017  -8.027  22.841  0.00  0.00    +0.000 A 
ATOM      6  C   UNL     1      25.369  -6.942  23.336  0.00  0.00    +0.000 A 
ATOM      7  C   UNL     1      24.011  -7.082  23.643  0.00  0.00    +0.000 A 
ATOM      8  C   UNL     1      23.266  -5.913  24.189  0.00  0.00    +0.000 C 
ATOM      9  C   UNL     1      23.359  -8.276  23.449  0.00  0.00    +0.000 A 
ATOM     10  C   UNL     1      24.012  -9.376  22.948  0.00  0.00    +0.000 A 
ATOM     11  C   UNL     1      23.300 -10.674  22.738  0.00  0.00    +0.000 C 
ATOM     12  C   UNL     1      25.354  -9.236  22.646  0.00  0.00    +0.000 A 
ENDBRANCH   1   9
BRANCH   2  13
ATOM     13  C   UNL     1      20.122  -8.826  25.339  0.00  0.00    +0.000 C 
BRANCH  13  14
ATOM     14  C   UNL     1      19.509  -7.600  25.879  0.00  0.00    +0.000 A 
ATOM     15  C   UNL     1      20.128  -6.377  25.601  0.00  0.00    +0.000 A 
ATOM     16  C   UNL     1      19.612  -5.212  26.120  0.00  0.00    +0.000 A 
ATOM     17  C   UNL     1      18.487  -5.196  26.917  0.00  0.00    +0.000 A 
ATOM     18  C   UNL     1      17.877  -6.397  27.190  0.00  0.00    +0.000 A 
ATOM     19  C   UNL     1      18.391  -7.600  26.669  0.00  0.00    +0.000 A 
BRANCH  19  20
ATOM     20  N   UNL     1      17.733  -8.825  26.931  0.00  0.00    +0.000 N 
ATOM     21  O   UNL     1      16.837  -9.233  26.196  0.00  0.00    +0.000 OA
ATOM     22  O   UNL     1      18.076  -9.590  28.019  0.00  0.00    +0.000 OA
ENDBRANCH  19  20
ENDBRANCH  13  14
ENDBRANCH   2  13
TORSDOF 4
ENDMDL
MODEL 8
REMARK VINA RESULT:      -6.6     20.756     23.227
REMARK  Name = 
REMARK  4 active torsions:
REMARK  status: ('A' for Active; 'I' for Inactive)
REMARK    1  A    between atoms: C_6  and  N_7
REMARK    2  A    between atoms: C_8  and  C_10
REMARK    3  A    between atoms: C_10  and  C_11
REMARK    4  A    between atoms: C_16  and  N_17
REMARK                            x       y       z     vdW  Elec       q    Type
REMARK                         _______ _______ _______ _____ _____    ______ ____
ROOT
ATOM      1  N   UNL     1      22.659  -8.526  25.361  0.00  0.00    +0.000 NA
ATOM      2  C   UNL     1      21.388  -8.764  24.782  0.00  0.00    +0.000 C 
ATOM      3  O   UNL     1      21.312  -8.856  23.536  0.00  0.00    +0.000 OA
ENDROOT
BRANCH   1   9
ATOM      4  C   UNL     1      27.301  -7.946  22.202  0.00  0.00    +0.000 C 
ATOM      5  C   UNL     1      26.086  -8.193  23.056  0.00  0.00    +0.000 A 
ATOM      6  C   UNL     1      25.772  -9.406  23.580  0.00  0.00    +0.000 A 
ATOM      7  C   UNL     1      24.610  -9.497  24.355  0.00  0.00    +0.000 A 
ATOM      8  C   UNL     1      24.233 -10.811  24.946  0.00  0.00    +0.000 C 
ATOM      9  C   UNL     1      23.818  -8.396  24.577  0.00  0.00    +0.000 A 
ATOM     10  C   UNL     1      24.132  -7.168  24.048  0.00  0.00    +0.000 A 
ATOM     11  C   UNL     1      23.267  -5.972  24.292  0.00  0.00    +0.000 C 
ATOM     12  C   UNL     1      25.280  -7.080  23.282  0.00  0.00    +0.000 A 
ENDBRANCH   1   9
BRANCH   2  13
ATOM     13  C   UNL     1      20.218  -8.889  25.651  0.00  0.00    +0.000 C 
BRANCH  13  14
ATOM     14  C   UNL     1      19.589  -7.615  26.040  0.00  0.00    +0.000 A 
ATOM     15  C   UNL     1      20.189  -6.426  25.611  0.00  0.00    +0.000 A 
ATOM     16  C   UNL     1      19.657  -5.214  25.986  0.00  0.00    +0.000 A 
ATOM     17  C   UNL     1      18.535  -5.117  26.780  0.00  0.00    +0.000 A 
ATOM     18  C   UNL     1      17.943  -6.283  27.201  0.00  0.00    +0.000 A 
ATOM     19  C   UNL     1      18.473  -7.534  26.829  0.00  0.00    +0.000 A 
BRANCH  19  20
ATOM     20  N   UNL     1      17.834  -8.727  27.241  0.00  0.00    +0.000 N 
ATOM     21  O   UNL     1      17.960  -9.151  28.388  0.00  0.00    +0.000 OA
ATOM     22  O   UNL     1      17.058  -9.448  26.366  0.00  0.00    +0.000 OA
ENDBRANCH  19  20
ENDBRANCH  13  14
ENDBRANCH   2  13
TORSDOF 4
ENDMDL
MODEL 9
REMARK VINA RESULT:      -6.5     17.916     19.662
REMARK  Name = 
REMARK  4 active torsions:
REMARK  status: ('A' for Active; 'I' for Inactive)
REMARK    1  A    between atoms: C_6  and  N_7
REMARK    2  A    between atoms: C_8  and  C_10
REMARK    3  A    between atoms: C_10  and  C_11
REMARK    4  A    between atoms: C_16  and  N_17
REMARK                            x       y       z     vdW  Elec       q    Type
REMARK                         _______ _______ _______ _____ _____    ______ ____
ROOT
ATOM      1  N   UNL     1      26.742  23.194  27.067  0.00  0.00    +0.000 NA
ATOM      2  C   UNL     1      27.972  23.542  26.457  0.00  0.00    +0.000 C 
ATOM      3  O   UNL     1      28.599  24.527  26.907  0.00  0.00    +0.000 OA
ENDROOT
BRANCH   1   9
ATOM      4  C   UNL     1      24.623  26.145  31.387  0.00  0.00    +0.000 C 
ATOM      5  C   UNL     1      25.232  25.302  30.299  0.00  0.00    +0.000 A 
ATOM      6  C   UNL     1      26.063  24.255  30.538  0.00  0.00    +0.000 A 
ATOM      7  C   UNL     1      26.562  23.557  29.433  0.00  0.00    +0.000 A 
ATOM      8  C   UNL     1      27.478  22.403  29.656  0.00  0.00    +0.000 C 
ATOM      9  C   UNL     1      26.221  23.919  28.152  0.00  0.00    +0.000 A 
ATOM     10  C   UNL     1      25.381  24.978  27.906  0.00  0.00    +0.000 A 
ATOM     11  C   UNL     1      25.012  25.370  26.510  0.00  0.00    +0.000 C 
ATOM     12  C   UNL     1      24.889  25.667  28.999  0.00  0.00    +0.000 A 
ENDBRANCH   1   9
BRANCH   2  13
ATOM     13  C   UNL     1      28.462  22.749  25.330  0.00  0.00    +0.000 C 
BRANCH  13  14
ATOM     14  C   UNL     1      28.442  23.436  24.026  0.00  0.00    +0.000 A 
ATOM     15  C   UNL     1      27.234  23.472  23.320  0.00  0.00    +0.000 A 
ATOM     16  C   UNL     1      27.182  24.067  22.080  0.00  0.00    +0.000 A 
ATOM     17  C   UNL     1      28.287  24.642  21.493  0.00  0.00    +0.000 A 
ATOM     18  C   UNL     1      29.474  24.609  22.185  0.00  0.00    +0.000 A 
ATOM     19  C   UNL     1      29.548  24.003  23.455  0.00  0.00    +0.000 A 
BRANCH  19  20
ATOM     20  N   UNL     1      30.768  24.006  24.172  0.00  0.00    +0.000 N 
ATOM     21  O   UNL     1      31.144  25.005  24.781  0.00  0.00    +0.000 OA
ATOM     22  O   UNL     1      31.570  22.891  24.201  0.00  0.00    +0.000 OA
ENDBRANCH  19  20
ENDBRANCH  13  14
ENDBRANCH   2  13
TORSDOF 4
ENDMDL
MODEL 10
REMARK VINA RESULT:      -6.4      2.962      4.420
REMARK  Name = 
REMARK  4 active torsions:
REMARK  status: ('A' for Active; 'I' for Inactive)
REMARK    1  A    between atoms: C_6  and  N_7
REMARK    2  A    between atoms: C_8  and  C_10
REMARK    3  A    between atoms: C_10  and  C_11
REMARK    4  A    between atoms: C_16  and  N_17
REMARK                            x       y       z     vdW  Elec       q    Type
REMARK                         _______ _______ _______ _____ _____    ______ ____
ROOT
ATOM      1  N   UNL     1      18.312  11.086  38.606  0.00  0.00    +0.000 NA
ATOM      2  C   UNL     1      17.505  10.768  37.485  0.00  0.00    +0.000 C 
ATOM      3  O   UNL     1      17.597   9.620  36.995  0.00  0.00    +0.000 OA
ENDROOT
BRANCH   1   9
ATOM      4  C   UNL     1      21.917   7.359  40.834  0.00  0.00    +0.000 C 
ATOM      5  C   UNL     1      20.887   8.316  40.296  0.00  0.00    +0.000 A 
ATOM      6  C   UNL     1      19.586   8.312  40.683  0.00  0.00    +0.000 A 
ATOM      7  C   UNL     1      18.733   9.255  40.100  0.00  0.00    +0.000 A 
ATOM      8  C   UNL     1      17.298   9.282  40.500  0.00  0.00    +0.000 C 
ATOM      9  C   UNL     1      19.199  10.153  39.169  0.00  0.00    +0.000 A 
ATOM     10  C   UNL     1      20.514  10.159  38.775  0.00  0.00    +0.000 A 
ATOM     11  C   UNL     1      21.017  11.137  37.761  0.00  0.00    +0.000 C 
ATOM     12  C   UNL     1      21.356   9.226  39.351  0.00  0.00    +0.000 A 
ENDBRANCH   1   9
BRANCH   2  13
ATOM     13  C   UNL     1      16.601  11.782  36.943  0.00  0.00    +0.000 C 
BRANCH  13  14
ATOM     14  C   UNL     1      15.176  11.584  37.260  0.00  0.00    +0.000 A 
ATOM     15  C   UNL     1      14.848  11.030  38.503  0.00  0.00    +0.000 A 
ATOM     16  C   UNL     1      13.532  10.790  38.822  0.00  0.00    +0.000 A 
ATOM     17  C   UNL     1      12.500  11.080  37.956  0.00  0.00    +0.000 A 
ATOM     18  C   UNL     1      12.819  11.625  36.736  0.00  0.00    +0.000 A 
ATOM     19  C   UNL     1      14.161  11.877  36.389  0.00  0.00    +0.000 A 
BRANCH  19  20
ATOM     20  N   UNL     1      14.473  12.470  35.143  0.00  0.00    +0.000 N 
ATOM     21  O   UNL     1      14.250  13.660  34.934  0.00  0.00    +0.000 OA
ATOM     22  O   UNL     1      15.030  11.728  34.131  0.00  0.00    +0.000 OA
ENDBRANCH  19  20
ENDBRANCH  13  14
ENDBRANCH   2  13
TORSDOF 4
ENDMDL
