MODEL 1
REMARK VINA RESULT:      -7.6      0.000      0.000
REMARK  Name = 
REMARK  3 active torsions:
REMARK  status: ('A' for Active; 'I' for Inactive)
REMARK    1  A    between atoms: C_2  and  C_3
REMARK    2  A    between atoms: C_6  and  C_7
REMARK    3  A    between atoms: C_10  and  C_12
REMARK                            x       y       z     vdW  Elec       q    Type
REMARK                         _______ _______ _______ _____ _____    ______ ____
ROOT
ATOM      1  C   UNL     1      16.706  11.081  36.366  0.00  0.00    +0.000 C 
ATOM      2  O   UNL     1      15.808  10.896  37.219  0.00  0.00    +0.000 OA
ATOM      3  N   UNL     1      16.329  11.607  35.100  0.00  0.00    +0.000 NA
ATOM      4  C   UNL     1      15.002  11.934  34.754  0.00  0.00    +0.000 C 
ATOM      5  O   UNL     1      14.073  11.763  35.584  0.00  0.00    +0.000 OA
ENDROOT
BRANCH   4   6
ATOM      6  C   UNL     1      14.646  12.478  33.435  0.00  0.00    +0.000 A 
ATOM      7  C   UNL     1      14.958  11.819  32.270  0.00  0.00    +0.000 A 
ATOM      8  C   UNL     1      14.626  12.326  31.035  0.00  0.00    +0.000 A 
ATOM      9  C   UNL     1      13.967  13.517  30.949  0.00  0.00    +0.000 A 
ATOM     10  C   UNL     1      13.639  14.206  32.111  0.00  0.00    +0.000 A 
ATOM     11  C   UNL     1      13.981  13.679  33.313  0.00  0.00    +0.000 A 
ATOM     12  O   UNL     1      13.659  14.355  34.479  0.00  0.00    +0.000 OA
ENDBRANCH   4   6
BRANCH   1  16
ATOM     13  C   UNL     1      20.719  10.226  37.491  0.00  0.00    +0.000 A 
ATOM     14  C   UNL     1      20.097   9.554  36.476  0.00  0.00    +0.000 A 
ATOM     15  C   UNL     1      18.804   9.781  36.064  0.00  0.00    +0.000 A 
ATOM     16  C   UNL     1      18.079  10.748  36.709  0.00  0.00    +0.000 A 
ATOM     17  C   UNL     1      18.682  11.441  37.734  0.00  0.00    +0.000 A 
ATOM     18  C   UNL     1      19.971  11.202  38.133  0.00  0.00    +0.000 A 
BRANCH  13  20
ATOM     19  C   UNL     1      22.846   9.439  36.671  0.00  0.00    +0.000 C 
ATOM     20  C   UNL     1      22.131   9.950  37.911  0.00  0.00    +0.000 C 
ENDBRANCH  13  20
ENDBRANCH   1  16
TORSDOF 3
ENDMDL
MODEL 2
REMARK VINA RESULT:      -7.5      3.545      7.745
REMARK  Name = 
REMARK  3 active torsions:
REMARK  status: ('A' for Active; 'I' for Inactive)
REMARK    1  A    between atoms: C_2  and  C_3
REMARK    2  A    between atoms: C_6  and  C_7
REMARK    3  A    between atoms: C_10  and  C_12
REMARK                            x       y       z     vdW  Elec       q    Type
REMARK                         _______ _______ _______ _____ _____    ______ ____
ROOT
ATOM      1  C   UNL     1      17.786  10.350  38.104  0.00  0.00    +0.000 C 
ATOM      2  O   UNL     1      17.699   9.455  38.975  0.00  0.00    +0.000 OA
ATOM      3  N   UNL     1      19.077  10.669  37.600  0.00  0.00    +0.000 NA
ATOM      4  C   UNL     1      20.261  10.034  38.025  0.00  0.00    +0.000 C 
ATOM      5  O   UNL     1      20.214   9.131  38.898  0.00  0.00    +0.000 OA
ENDROOT
BRANCH   4   6
ATOM      6  C   UNL     1      21.581  10.388  37.482  0.00  0.00    +0.000 A 
ATOM      7  C   UNL     1      22.096   9.770  36.368  0.00  0.00    +0.000 A 
ATOM      8  C   UNL     1      23.331  10.099  35.857  0.00  0.00    +0.000 A 
ATOM      9  C   UNL     1      24.076  11.066  36.465  0.00  0.00    +0.000 A 
ATOM     10  C   UNL     1      23.580  11.708  37.594  0.00  0.00    +0.000 A 
ATOM     11  C   UNL     1      22.359  11.360  38.072  0.00  0.00    +0.000 A 
ATOM     12  O   UNL     1      21.853  11.993  39.196  0.00  0.00    +0.000 OA
ENDBRANCH   4   6
BRANCH   1  16
ATOM     13  C   UNL     1      14.151  12.212  36.914  0.00  0.00    +0.000 A 
ATOM     14  C   UNL     1      15.330  12.456  36.268  0.00  0.00    +0.000 A 
ATOM     15  C   UNL     1      16.538  11.888  36.602  0.00  0.00    +0.000 A 
ATOM     16  C   UNL     1      16.573  11.014  37.655  0.00  0.00    +0.000 A 
ATOM     17  C   UNL     1      15.400  10.749  38.324  0.00  0.00    +0.000 A 
ATOM     18  C   UNL     1      14.204  11.324  37.978  0.00  0.00    +0.000 A 
BRANCH  13  20
ATOM     19  C   UNL     1      11.759  11.915  37.007  0.00  0.00    +0.000 C 
ATOM     20  C   UNL     1      12.854  12.850  36.519  0.00  0.00    +0.000 C 
ENDBRANCH  13  20
ENDBRANCH   1  16
TORSDOF 3
ENDMDL
MODEL 3
REMARK VINA RESULT:      -7.4     18.526     22.346
REMARK  Name = 
REMARK  3 active torsions:
REMARK  status: ('A' for Active; 'I' for Inactive)
REMARK    1  A    between atoms: C_2  and  C_3
REMARK    2  A    between atoms: C_6  and  C_7
REMARK    3  A    between atoms: C_10  and  C_12
REMARK                            x       y       z     vdW  Elec       q    Type
REMARK                         _______ _______ _______ _____ _____    ______ ____
ROOT
ATOM      1  C   UNL     1      32.866  -1.452  34.550  0.00  0.00    +0.000 C 
ATOM      2  O   UNL     1      31.974  -1.895  35.308  0.00  0.00    +0.000 OA
ATOM      3  N   UNL     1      33.503  -2.363  33.663  0.00  0.00    +0.000 NA
ATOM      4  C   UNL     1      33.186  -3.734  33.590  0.00  0.00    +0.000 C 
ATOM      5  O   UNL     1      32.295  -4.216  34.336  0.00  0.00    +0.000 OA
ENDROOT
BRANCH   4   6
ATOM      6  C   UNL     1      33.864  -4.650  32.660  0.00  0.00    +0.000 A 
ATOM      7  C   UNL     1      33.447  -4.802  31.360  0.00  0.00    +0.000 A 
ATOM      8  C   UNL     1      34.079  -5.657  30.487  0.00  0.00    +0.000 A 
ATOM      9  C   UNL     1      35.154  -6.382  30.913  0.00  0.00    +0.000 A 
ATOM     10  C   UNL     1      35.597  -6.248  32.223  0.00  0.00    +0.000 A 
ATOM     11  C   UNL     1      34.951  -5.396  33.058  0.00  0.00    +0.000 A 
ATOM     12  O   UNL     1      35.384  -5.253  34.367  0.00  0.00    +0.000 OA
ENDBRANCH   4   6
BRANCH   1  16
ATOM     13  C   UNL     1      33.828   2.692  34.571  0.00  0.00    +0.000 A 
ATOM     14  C   UNL     1      33.868   1.938  35.710  0.00  0.00    +0.000 A 
ATOM     15  C   UNL     1      33.569   0.596  35.771  0.00  0.00    +0.000 A 
ATOM     16  C   UNL     1      33.204  -0.040  34.614  0.00  0.00    +0.000 A 
ATOM     17  C   UNL     1      33.156   0.696  33.452  0.00  0.00    +0.000 A 
ATOM     18  C   UNL     1      33.457   2.033  33.408  0.00  0.00    +0.000 A 
BRANCH  13  20
ATOM     19  C   UNL     1      32.927   4.856  34.006  0.00  0.00    +0.000 C 
ATOM     20  C   UNL     1      34.162   4.153  34.544  0.00  0.00    +0.000 C 
ENDBRANCH  13  20
ENDBRANCH   1  16
TORSDOF 3
ENDMDL
MODEL 4
REMARK VINA RESULT:      -7.3      2.195      7.742
REMARK  Name = 
REMARK  3 active torsions:
REMARK  status: ('A' for Active; 'I' for Inactive)
REMARK    1  A    between atoms: C_2  and  C_3
REMARK    2  A    between atoms: C_6  and  C_7
REMARK    3  A    between atoms: C_10  and  C_12
REMARK                            x       y       z     vdW  Elec       q    Type
REMARK                         _______ _______ _______ _____ _____    ______ ____
ROOT
ATOM      1  C   UNL     1      17.851  10.250  36.119  0.00  0.00    +0.000 C 
ATOM      2  O   UNL     1      17.330   9.713  37.122  0.00  0.00    +0.000 OA
ATOM      3  N   UNL     1      19.266  10.390  36.093  0.00  0.00    +0.000 NA
ATOM      4  C   UNL     1      20.113   9.956  37.132  0.00  0.00    +0.000 C 
ATOM      5  O   UNL     1      19.626   9.412  38.156  0.00  0.00    +0.000 OA
ENDROOT
BRANCH   4   6
ATOM      6  C   UNL     1      21.574  10.115  37.073  0.00  0.00    +0.000 A 
ATOM      7  C   UNL     1      22.382   9.169  36.491  0.00  0.00    +0.000 A 
ATOM      8  C   UNL     1      23.749   9.314  36.434  0.00  0.00    +0.000 A 
ATOM      9  C   UNL     1      24.332  10.427  36.968  0.00  0.00    +0.000 A 
ATOM     10  C   UNL     1      23.538  11.399  37.563  0.00  0.00    +0.000 A 
ATOM     11  C   UNL     1      22.193  11.226  37.603  0.00  0.00    +0.000 A 
ATOM     12  O   UNL     1      21.390  12.189  38.193  0.00  0.00    +0.000 OA
ENDBRANCH   4   6
BRANCH   1  16
ATOM     13  C   UNL     1      15.426  11.488  32.849  0.00  0.00    +0.000 A 
ATOM     14  C   UNL     1      15.167  11.888  34.130  0.00  0.00    +0.000 A 
ATOM     15  C   UNL     1      15.910  11.524  35.229  0.00  0.00    +0.000 A 
ATOM     16  C   UNL     1      16.989  10.703  35.038  0.00  0.00    +0.000 A 
ATOM     17  C   UNL     1      17.273  10.285  33.758  0.00  0.00    +0.000 A 
ATOM     18  C   UNL     1      16.522  10.657  32.673  0.00  0.00    +0.000 A 
BRANCH  13  20
ATOM     19  C   UNL     1      14.145  13.330  31.964  0.00  0.00    +0.000 C 
ATOM     20  C   UNL     1      14.592  11.906  31.676  0.00  0.00    +0.000 C 
ENDBRANCH  13  20
ENDBRANCH   1  16
TORSDOF 3
ENDMDL
MODEL 5
REMARK VINA RESULT:      -7.3      3.398      7.734
REMARK  Name = 
REMARK  3 active torsions:
REMARK  status: ('A' for Active; 'I' for Inactive)
REMARK    1  A    between atoms: C_2  and  C_3
REMARK    2  A    between atoms: C_6  and  C_7
REMARK    3  A    between atoms: C_10  and  C_12
REMARK                            x       y       z     vdW  Elec       q    Type
REMARK                         _______ _______ _______ _____ _____    ______ ____
ROOT
ATOM      1  C   UNL     1      17.623  10.919  36.891  0.00  0.00    +0.000 C 
ATOM      2  O   UNL     1      18.378  11.835  37.288  0.00  0.00    +0.000 OA
ATOM      3  N   UNL     1      17.430   9.795  37.741  0.00  0.00    +0.000 NA
ATOM      4  C   UNL     1      18.041   9.656  39.003  0.00  0.00    +0.000 C 
ATOM      5  O   UNL     1      18.807  10.555  39.436  0.00  0.00    +0.000 OA
ENDROOT
BRANCH   4   6
ATOM      6  C   UNL     1      17.820   8.480  39.858  0.00  0.00    +0.000 A 
ATOM      7  C   UNL     1      18.625   7.369  39.784  0.00  0.00    +0.000 A 
ATOM      8  C   UNL     1      18.420   6.267  40.583  0.00  0.00    +0.000 A 
ATOM      9  C   UNL     1      17.391   6.265  41.478  0.00  0.00    +0.000 A 
ATOM     10  C   UNL     1      16.561   7.374  41.573  0.00  0.00    +0.000 A 
ATOM     11  C   UNL     1      16.790   8.445  40.772  0.00  0.00    +0.000 A 
ATOM     12  O   UNL     1      15.969   9.559  40.857  0.00  0.00    +0.000 OA
ENDBRANCH   4   6
BRANCH   1  16
ATOM     13  C   UNL     1      15.641  11.397  33.157  0.00  0.00    +0.000 A 
ATOM     14  C   UNL     1      16.770  10.636  33.281  0.00  0.00    +0.000 A 
ATOM     15  C   UNL     1      17.457  10.441  34.457  0.00  0.00    +0.000 A 
ATOM     16  C   UNL     1      16.986  11.048  35.591  0.00  0.00    +0.000 A 
ATOM     17  C   UNL     1      15.851  11.820  35.494  0.00  0.00    +0.000 A 
ATOM     18  C   UNL     1      15.177  12.004  34.314  0.00  0.00    +0.000 A 
BRANCH  13  20
ATOM     19  C   UNL     1      14.393  13.010  31.870  0.00  0.00    +0.000 C 
ATOM     20  C   UNL     1      14.919  11.584  31.857  0.00  0.00    +0.000 C 
ENDBRANCH  13  20
ENDBRANCH   1  16
TORSDOF 3
ENDMDL
MODEL 6
REMARK VINA RESULT:      -7.2      2.023      2.640
REMARK  Name = 
REMARK  3 active torsions:
REMARK  status: ('A' for Active; 'I' for Inactive)
REMARK    1  A    between atoms: C_2  and  C_3
REMARK    2  A    between atoms: C_6  and  C_7
REMARK    3  A    between atoms: C_10  and  C_12
REMARK                            x       y       z     vdW  Elec       q    Type
REMARK                         _______ _______ _______ _____ _____    ______ ____
ROOT
ATOM      1  C   UNL     1      17.129  10.099  35.584  0.00  0.00    +0.000 C 
ATOM      2  O   UNL     1      17.112   9.108  34.819  0.00  0.00    +0.000 OA
ATOM      3  N   UNL     1      16.356  11.237  35.223  0.00  0.00    +0.000 NA
ATOM      4  C   UNL     1      15.572  11.310  34.055  0.00  0.00    +0.000 C 
ATOM      5  O   UNL     1      15.528  10.334  33.262  0.00  0.00    +0.000 OA
ENDROOT
BRANCH   4   6
ATOM      6  C   UNL     1      14.782  12.502  33.712  0.00  0.00    +0.000 A 
ATOM      7  C   UNL     1      14.162  13.262  34.674  0.00  0.00    +0.000 A 
ATOM      8  C   UNL     1      13.423  14.378  34.356  0.00  0.00    +0.000 A 
ATOM      9  C   UNL     1      13.295  14.753  33.051  0.00  0.00    +0.000 A 
ATOM     10  C   UNL     1      13.911  14.004  32.057  0.00  0.00    +0.000 A 
ATOM     11  C   UNL     1      14.633  12.908  32.404  0.00  0.00    +0.000 A 
ATOM     12  O   UNL     1      15.254  12.152  31.422  0.00  0.00    +0.000 OA
ENDBRANCH   4   6
BRANCH   1  16
ATOM     13  C   UNL     1      19.349   9.959  39.211  0.00  0.00    +0.000 A 
ATOM     14  C   UNL     1      19.935   9.725  37.999  0.00  0.00    +0.000 A 
ATOM     15  C   UNL     1      19.275   9.754  36.792  0.00  0.00    +0.000 A 
ATOM     16  C   UNL     1      17.935  10.038  36.793  0.00  0.00    +0.000 A 
ATOM     17  C   UNL     1      17.320  10.279  38.000  0.00  0.00    +0.000 A 
ATOM     18  C   UNL     1      17.991  10.246  39.194  0.00  0.00    +0.000 A 
BRANCH  13  20
ATOM     19  C   UNL     1      19.168   9.272  41.515  0.00  0.00    +0.000 C 
ATOM     20  C   UNL     1      20.102   9.918  40.506  0.00  0.00    +0.000 C 
ENDBRANCH  13  20
ENDBRANCH   1  16
TORSDOF 3
ENDMDL
MODEL 7
REMARK VINA RESULT:      -7.2     19.800     22.731
REMARK  Name = 
REMARK  3 active torsions:
REMARK  status: ('A' for Active; 'I' for Inactive)
REMARK    1  A    between atoms: C_2  and  C_3
REMARK    2  A    between atoms: C_6  and  C_7
REMARK    3  A    between atoms: C_10  and  C_12
REMARK                            x       y       z     vdW  Elec       q    Type
REMARK                         _______ _______ _______ _____ _____    ______ ____
ROOT
ATOM      1  C   UNL     1      33.706  -2.345  33.882  0.00  0.00    +0.000 C 
ATOM      2  O   UNL     1      33.880  -2.826  35.024  0.00  0.00    +0.000 OA
ATOM      3  N   UNL     1      33.611  -3.244  32.784  0.00  0.00    +0.000 NA
ATOM      4  C   UNL     1      33.700  -4.645  32.911  0.00  0.00    +0.000 C 
ATOM      5  O   UNL     1      33.874  -5.166  34.043  0.00  0.00    +0.000 OA
ENDROOT
BRANCH   4   6
ATOM      6  C   UNL     1      33.596  -5.547  31.754  0.00  0.00    +0.000 A 
ATOM      7  C   UNL     1      34.640  -5.725  30.879  0.00  0.00    +0.000 A 
ATOM      8  C   UNL     1      34.546  -6.568  29.795  0.00  0.00    +0.000 A 
ATOM      9  C   UNL     1      33.388  -7.253  29.572  0.00  0.00    +0.000 A 
ATOM     10  C   UNL     1      32.316  -7.092  30.441  0.00  0.00    +0.000 A 
ATOM     11  C   UNL     1      32.441  -6.253  31.500  0.00  0.00    +0.000 A 
ATOM     12  O   UNL     1      31.379  -6.083  32.375  0.00  0.00    +0.000 OA
ENDBRANCH   4   6
BRANCH   1  16
ATOM     13  C   UNL     1      33.535   1.869  33.318  0.00  0.00    +0.000 A 
ATOM     14  C   UNL     1      32.875   1.252  34.344  0.00  0.00    +0.000 A 
ATOM     15  C   UNL     1      32.889  -0.104  34.581  0.00  0.00    +0.000 A 
ATOM     16  C   UNL     1      33.613  -0.902  33.735  0.00  0.00    +0.000 A 
ATOM     17  C   UNL     1      34.287  -0.306  32.694  0.00  0.00    +0.000 A 
ATOM     18  C   UNL     1      34.263   1.046  32.471  0.00  0.00    +0.000 A 
BRANCH  13  20
ATOM     19  C   UNL     1      33.966   3.985  34.390  0.00  0.00    +0.000 C 
ATOM     20  C   UNL     1      33.495   3.350  33.092  0.00  0.00    +0.000 C 
ENDBRANCH  13  20
ENDBRANCH   1  16
TORSDOF 3
ENDMDL
MODEL 8
REMARK VINA RESULT:      -7.1     28.757     30.570
REMARK  Name = 
REMARK  3 active torsions:
REMARK  status: ('A' for Active; 'I' for Inactive)
REMARK    1  A    between atoms: C_2  and  C_3
REMARK    2  A    between atoms: C_6  and  C_7
REMARK    3  A    between atoms: C_10  and  C_12
REMARK                            x       y       z     vdW  Elec       q    Type
REMARK                         _______ _______ _______ _____ _____    ______ ____
ROOT
ATOM      1  C   UNL     1      32.907  20.314  11.215  0.00  0.00    +0.000 C 
ATOM      2  O   UNL     1      33.142  19.711  10.144  0.00  0.00    +0.000 OA
ATOM      3  N   UNL     1      33.916  20.317  12.217  0.00  0.00    +0.000 NA
ATOM      4  C   UNL     1      35.164  19.681  12.071  0.00  0.00    +0.000 C 
ATOM      5  O   UNL     1      35.438  19.065  11.009  0.00  0.00    +0.000 OA
ENDROOT
BRANCH   4   6
ATOM      6  C   UNL     1      36.187  19.704  13.128  0.00  0.00    +0.000 A 
ATOM      7  C   UNL     1      36.178  18.802  14.164  0.00  0.00    +0.000 A 
ATOM      8  C   UNL     1      37.133  18.821  15.155  0.00  0.00    +0.000 A 
ATOM      9  C   UNL     1      38.124  19.758  15.118  0.00  0.00    +0.000 A 
ATOM     10  C   UNL     1      38.157  20.683  14.082  0.00  0.00    +0.000 A 
ATOM     11  C   UNL     1      37.200  20.637  13.121  0.00  0.00    +0.000 A 
ATOM     12  O   UNL     1      37.222  21.553  12.082  0.00  0.00    +0.000 OA
ENDBRANCH   4   6
BRANCH   1  16
ATOM     13  C   UNL     1      29.206  22.317  11.844  0.00  0.00    +0.000 A 
ATOM     14  C   UNL     1      29.419  21.524  10.751  0.00  0.00    +0.000 A 
ATOM     15  C   UNL     1      30.590  20.850  10.489  0.00  0.00    +0.000 A 
ATOM     16  C   UNL     1      31.623  20.976  11.381  0.00  0.00    +0.000 A 
ATOM     17  C   UNL     1      31.435  21.768  12.490  0.00  0.00    +0.000 A 
ATOM     18  C   UNL     1      30.261  22.433  12.736  0.00  0.00    +0.000 A 
BRANCH  13  20
ATOM     19  C   UNL     1      26.861  22.301  11.281  0.00  0.00    +0.000 C 
ATOM     20  C   UNL     1      27.914  23.035  12.095  0.00  0.00    +0.000 C 
ENDBRANCH  13  20
ENDBRANCH   1  16
TORSDOF 3
ENDMDL
MODEL 9
REMARK VINA RESULT:      -7.0     19.379     20.423
REMARK  Name = 
REMARK  3 active torsions:
REMARK  status: ('A' for Active; 'I' for Inactive)
REMARK    1  A    between atoms: C_2  and  C_3
REMARK    2  A    between atoms: C_6  and  C_7
REMARK    3  A    between atoms: C_10  and  C_12
REMARK                            x       y       z     vdW  Elec       q    Type
REMARK                         _______ _______ _______ _____ _____    ______ ____
ROOT
ATOM      1  C   UNL     1      26.674  23.441  24.291  0.00  0.00    +0.000 C 
ATOM      2  O   UNL     1      26.029  22.590  23.637  0.00  0.00    +0.000 OA
ATOM      3  N   UNL     1      27.301  24.499  23.578  0.00  0.00    +0.000 NA
ATOM      4  C   UNL     1      27.235  24.644  22.178  0.00  0.00    +0.000 C 
ATOM      5  O   UNL     1      26.597  23.810  21.487  0.00  0.00    +0.000 OA
ENDROOT
BRANCH   4   6
ATOM      6  C   UNL     1      27.895  25.753  21.472  0.00  0.00    +0.000 A 
ATOM      7  C   UNL     1      27.329  27.002  21.395  0.00  0.00    +0.000 A 
ATOM      8  C   UNL     1      27.944  28.042  20.735  0.00  0.00    +0.000 A 
ATOM      9  C   UNL     1      29.152  27.838  20.134  0.00  0.00    +0.000 A 
ATOM     10  C   UNL     1      29.747  26.584  20.195  0.00  0.00    +0.000 A 
ATOM     11  C   UNL     1      29.115  25.581  20.854  0.00  0.00    +0.000 A 
ATOM     12  O   UNL     1      29.698  24.326  20.923  0.00  0.00    +0.000 OA
ENDBRANCH   4   6
BRANCH   1  16
ATOM     13  C   UNL     1      27.029  22.935  28.501  0.00  0.00    +0.000 A 
ATOM     14  C   UNL     1      26.058  23.723  27.950  0.00  0.00    +0.000 A 
ATOM     15  C   UNL     1      25.889  23.928  26.599  0.00  0.00    +0.000 A 
ATOM     16  C   UNL     1      26.750  23.303  25.737  0.00  0.00    +0.000 A 
ATOM     17  C   UNL     1      27.737  22.504  26.265  0.00  0.00    +0.000 A 
ATOM     18  C   UNL     1      27.892  22.309  27.613  0.00  0.00    +0.000 A 
BRANCH  13  20
ATOM     19  C   UNL     1      28.633  23.052  30.298  0.00  0.00    +0.000 C 
ATOM     20  C   UNL     1      27.181  22.736  29.978  0.00  0.00    +0.000 C 
ENDBRANCH  13  20
ENDBRANCH   1  16
TORSDOF 3
ENDMDL
MODEL 10
REMARK VINA RESULT:      -6.9      4.058      4.984
REMARK  Name = 
REMARK  3 active torsions:
REMARK  status: ('A' for Active; 'I' for Inactive)
REMARK    1  A    between atoms: C_2  and  C_3
REMARK    2  A    between atoms: C_6  and  C_7
REMARK    3  A    between atoms: C_10  and  C_12
REMARK                            x       y       z     vdW  Elec       q    Type
REMARK                         _______ _______ _______ _____ _____    ______ ____
ROOT
ATOM      1  C   UNL     1      18.024   9.857  39.025  0.00  0.00    +0.000 C 
ATOM      2  O   UNL     1      18.887  10.697  39.366  0.00  0.00    +0.000 OA
ATOM      3  N   UNL     1      17.274  10.110  37.844  0.00  0.00    +0.000 NA
ATOM      4  C   UNL     1      17.449  11.251  37.036  0.00  0.00    +0.000 C 
ATOM      5  O   UNL     1      18.307  12.117  37.346  0.00  0.00    +0.000 OA
ENDROOT
BRANCH   4   6
ATOM      6  C   UNL     1      16.657  11.481  35.819  0.00  0.00    +0.000 A 
ATOM      7  C   UNL     1      15.554  12.301  35.816  0.00  0.00    +0.000 A 
ATOM      8  C   UNL     1      14.810  12.518  34.679  0.00  0.00    +0.000 A 
ATOM      9  C   UNL     1      15.169  11.908  33.512  0.00  0.00    +0.000 A 
ATOM     10  C   UNL     1      16.279  11.074  33.486  0.00  0.00    +0.000 A 
ATOM     11  C   UNL     1      16.991  10.880  34.625  0.00  0.00    +0.000 A 
ATOM     12  O   UNL     1      18.101  10.051  34.612  0.00  0.00    +0.000 OA
ENDBRANCH   4   6
BRANCH   1  16
ATOM     13  C   UNL     1      17.595   6.326  41.359  0.00  0.00    +0.000 A 
ATOM     14  C   UNL     1      16.747   7.389  41.499  0.00  0.00    +0.000 A 
ATOM     15  C   UNL     1      16.831   8.557  40.777  0.00  0.00    +0.000 A 
ATOM     16  C   UNL     1      17.832   8.675  39.849  0.00  0.00    +0.000 A 
ATOM     17  C   UNL     1      18.700   7.619  39.688  0.00  0.00    +0.000 A 
ATOM     18  C   UNL     1      18.603   6.461  40.415  0.00  0.00    +0.000 A 
BRANCH  13  20
ATOM     19  C   UNL     1      18.745   4.279  41.912  0.00  0.00    +0.000 C 
ATOM     20  C   UNL     1      17.471   5.068  42.165  0.00  0.00    +0.000 C 
ENDBRANCH  13  20
ENDBRANCH   1  16
TORSDOF 3
ENDMDL
