MODEL 1
REMARK VINA RESULT:      -7.1      0.000      0.000
REMARK  Name = 
REMARK  3 active torsions:
REMARK  status: ('A' for Active; 'I' for Inactive)
REMARK    1  A    between atoms: C_5  and  C_6
REMARK    2  A    between atoms: C_6  and  C_7
REMARK    3  A    between atoms: C_7  and  N_8
REMARK                            x       y       z     vdW  Elec       q    Type
REMARK                         _______ _______ _______ _____ _____    ______ ____
ROOT
ATOM      1  C   UNL     1      15.968  12.886  36.149  0.00  0.00    +0.000 C 
ENDROOT
BRANCH   1   6
ATOM      2  C   UNL     1      19.428   9.721  39.566  0.00  0.00    +0.000 C 
ATOM      3  C   UNL     1      18.537  10.529  38.691  0.00  0.00    +0.000 A 
ATOM      4  C   UNL     1      17.232  10.164  38.431  0.00  0.00    +0.000 A 
ATOM      5  C   UNL     1      16.417  10.927  37.613  0.00  0.00    +0.000 A 
ATOM      6  C   UNL     1      16.873  12.089  37.021  0.00  0.00    +0.000 A 
ATOM      7  C   UNL     1      18.178  12.456  37.282  0.00  0.00    +0.000 A 
ATOM      8  C   UNL     1      18.992  11.688  38.100  0.00  0.00    +0.000 A 
ATOM      9  C   UNL     1      20.382  12.104  38.361  0.00  0.00    +0.000 C 
ENDBRANCH   1   6
BRANCH   1  10
ATOM     10  C   UNL     1      14.865  12.001  35.569  0.00  0.00    +0.000 C 
BRANCH  10  11
ATOM     11  N   UNL     1      15.317  11.596  34.251  0.00  0.00    +0.000 NA
ATOM     12  C   UNL     1      14.893  12.335  33.111  0.00  0.00    +0.000 A 
ATOM     13  N   UNL     1      14.081  13.397  33.253  0.00  0.00    +0.000 NA
ATOM     14  C   UNL     1      13.700  14.071  32.157  0.00  0.00    +0.000 A 
ATOM     15  C   UNL     1      14.096  13.735  30.890  0.00  0.00    +0.000 A 
ATOM     16  C   UNL     1      14.929  12.645  30.756  0.00  0.00    +0.000 A 
ATOM     17  C   UNL     1      15.333  11.939  31.856  0.00  0.00    +0.000 A 
ATOM     18  N   UNL     1      16.190  10.809  31.757  0.00  0.00    +0.000 NA
ENDBRANCH  10  11
ENDBRANCH   1  10
TORSDOF 3
ENDMDL
MODEL 2
REMARK VINA RESULT:      -7.1      1.510      2.469
REMARK  Name = 
REMARK  3 active torsions:
REMARK  status: ('A' for Active; 'I' for Inactive)
REMARK    1  A    between atoms: C_5  and  C_6
REMARK    2  A    between atoms: C_6  and  C_7
REMARK    3  A    between atoms: C_7  and  N_8
REMARK                            x       y       z     vdW  Elec       q    Type
REMARK                         _______ _______ _______ _____ _____    ______ ____
ROOT
ATOM      1  C   UNL     1      15.387  11.762  36.708  0.00  0.00    +0.000 C 
ENDROOT
BRANCH   1   6
ATOM      2  C   UNL     1      19.039   8.252  39.539  0.00  0.00    +0.000 C 
ATOM      3  C   UNL     1      18.106   9.152  38.808  0.00  0.00    +0.000 A 
ATOM      4  C   UNL     1      18.279   9.469  37.477  0.00  0.00    +0.000 A 
ATOM      5  C   UNL     1      17.401  10.308  36.813  0.00  0.00    +0.000 A 
ATOM      6  C   UNL     1      16.311  10.865  37.453  0.00  0.00    +0.000 A 
ATOM      7  C   UNL     1      16.136  10.547  38.785  0.00  0.00    +0.000 A 
ATOM      8  C   UNL     1      17.018   9.708  39.448  0.00  0.00    +0.000 A 
ATOM      9  C   UNL     1      16.805   9.386  40.871  0.00  0.00    +0.000 C 
ENDBRANCH   1   6
BRANCH   1  10
ATOM     10  C   UNL     1      15.536  11.553  35.201  0.00  0.00    +0.000 C 
BRANCH  10  11
ATOM     11  N   UNL     1      14.774  12.611  34.564  0.00  0.00    +0.000 NA
ATOM     12  C   UNL     1      14.683  12.646  33.144  0.00  0.00    +0.000 A 
ATOM     13  N   UNL     1      15.298  11.711  32.400  0.00  0.00    +0.000 NA
ATOM     14  C   UNL     1      15.191  11.775  31.064  0.00  0.00    +0.000 A 
ATOM     15  C   UNL     1      14.485  12.748  30.409  0.00  0.00    +0.000 A 
ATOM     16  C   UNL     1      13.859  13.703  31.182  0.00  0.00    +0.000 A 
ATOM     17  C   UNL     1      13.950  13.662  32.547  0.00  0.00    +0.000 A 
ATOM     18  N   UNL     1      13.319  14.629  33.376  0.00  0.00    +0.000 NA
ENDBRANCH  10  11
ENDBRANCH   1  10
TORSDOF 3
ENDMDL
MODEL 3
REMARK VINA RESULT:      -6.5      2.494      7.487
REMARK  Name = 
REMARK  3 active torsions:
REMARK  status: ('A' for Active; 'I' for Inactive)
REMARK    1  A    between atoms: C_5  and  C_6
REMARK    2  A    between atoms: C_6  and  C_7
REMARK    3  A    between atoms: C_7  and  N_8
REMARK                            x       y       z     vdW  Elec       q    Type
REMARK                         _______ _______ _______ _____ _____    ______ ____
ROOT
ATOM      1  C   UNL     1      15.488  11.508  35.899  0.00  0.00    +0.000 C 
ENDROOT
BRANCH   1   6
ATOM      2  C   UNL     1      14.645  12.993  30.353  0.00  0.00    +0.000 C 
ATOM      3  C   UNL     1      14.864  12.608  31.774  0.00  0.00    +0.000 A 
ATOM      4  C   UNL     1      15.617  11.508  32.131  0.00  0.00    +0.000 A 
ATOM      5  C   UNL     1      15.810  11.164  33.457  0.00  0.00    +0.000 A 
ATOM      6  C   UNL     1      15.259  11.906  34.484  0.00  0.00    +0.000 A 
ATOM      7  C   UNL     1      14.506  13.007  34.127  0.00  0.00    +0.000 A 
ATOM      8  C   UNL     1      14.313  13.349  32.798  0.00  0.00    +0.000 A 
ATOM      9  C   UNL     1      13.504  14.530  32.447  0.00  0.00    +0.000 C 
ENDBRANCH   1   6
BRANCH   1  10
ATOM     10  C   UNL     1      16.725  10.616  36.012  0.00  0.00    +0.000 C 
BRANCH  10  11
ATOM     11  N   UNL     1      16.840  10.252  37.411  0.00  0.00    +0.000 NA
ATOM     12  C   UNL     1      18.129  10.000  37.962  0.00  0.00    +0.000 A 
ATOM     13  N   UNL     1      19.227  10.097  37.193  0.00  0.00    +0.000 NA
ATOM     14  C   UNL     1      20.426   9.853  37.744  0.00  0.00    +0.000 A 
ATOM     15  C   UNL     1      20.595   9.507  39.058  0.00  0.00    +0.000 A 
ATOM     16  C   UNL     1      19.462   9.410  39.837  0.00  0.00    +0.000 A 
ATOM     17  C   UNL     1      18.227   9.654  39.301  0.00  0.00    +0.000 A 
ATOM     18  N   UNL     1      17.036   9.563  40.073  0.00  0.00    +0.000 NA
ENDBRANCH  10  11
ENDBRANCH   1  10
TORSDOF 3
ENDMDL
MODEL 4
REMARK VINA RESULT:      -6.4      2.556      6.918
REMARK  Name = 
REMARK  3 active torsions:
REMARK  status: ('A' for Active; 'I' for Inactive)
REMARK    1  A    between atoms: C_5  and  C_6
REMARK    2  A    between atoms: C_6  and  C_7
REMARK    3  A    between atoms: C_7  and  N_8
REMARK                            x       y       z     vdW  Elec       q    Type
REMARK                         _______ _______ _______ _____ _____    ______ ____
ROOT
ATOM      1  C   UNL     1      17.067   9.978  34.889  0.00  0.00    +0.000 C 
ENDROOT
BRANCH   1   6
ATOM      2  C   UNL     1      13.731  13.947  32.284  0.00  0.00    +0.000 C 
ATOM      3  C   UNL     1      14.585  12.931  32.957  0.00  0.00    +0.000 A 
ATOM      4  C   UNL     1      14.583  12.757  34.326  0.00  0.00    +0.000 A 
ATOM      5  C   UNL     1      15.384  11.808  34.936  0.00  0.00    +0.000 A 
ATOM      6  C   UNL     1      16.221  10.989  34.201  0.00  0.00    +0.000 A 
ATOM      7  C   UNL     1      16.222  11.161  32.831  0.00  0.00    +0.000 A 
ATOM      8  C   UNL     1      15.419  12.114  32.224  0.00  0.00    +0.000 A 
ATOM      9  C   UNL     1      15.442  12.275  30.758  0.00  0.00    +0.000 C 
ENDBRANCH   1   6
BRANCH   1  10
ATOM     10  C   UNL     1      17.010  10.171  36.405  0.00  0.00    +0.000 C 
BRANCH  10  11
ATOM     11  N   UNL     1      18.363   9.982  36.893  0.00  0.00    +0.000 NA
ATOM     12  C   UNL     1      19.065  11.090  37.444  0.00  0.00    +0.000 A 
ATOM     13  N   UNL     1      18.483  12.300  37.510  0.00  0.00    +0.000 NA
ATOM     14  C   UNL     1      19.174  13.323  38.036  0.00  0.00    +0.000 A 
ATOM     15  C   UNL     1      20.452  13.203  38.513  0.00  0.00    +0.000 A 
ATOM     16  C   UNL     1      21.040  11.958  38.440  0.00  0.00    +0.000 A 
ATOM     17  C   UNL     1      20.358  10.897  37.909  0.00  0.00    +0.000 A 
ATOM     18  N   UNL     1      20.932   9.600  37.816  0.00  0.00    +0.000 NA
ENDBRANCH  10  11
ENDBRANCH   1  10
TORSDOF 3
ENDMDL
MODEL 5
REMARK VINA RESULT:      -6.1      3.247      6.985
REMARK  Name = 
REMARK  3 active torsions:
REMARK  status: ('A' for Active; 'I' for Inactive)
REMARK    1  A    between atoms: C_5  and  C_6
REMARK    2  A    between atoms: C_6  and  C_7
REMARK    3  A    between atoms: C_7  and  N_8
REMARK                            x       y       z     vdW  Elec       q    Type
REMARK                         _______ _______ _______ _____ _____    ______ ____
ROOT
ATOM      1  C   UNL     1      16.704  10.410  38.403  0.00  0.00    +0.000 C 
ENDROOT
BRANCH   1   6
ATOM      2  C   UNL     1      15.077  12.057  33.082  0.00  0.00    +0.000 C 
ATOM      3  C   UNL     1      15.490  11.638  34.449  0.00  0.00    +0.000 A 
ATOM      4  C   UNL     1      14.838  12.077  35.583  0.00  0.00    +0.000 A 
ATOM      5  C   UNL     1      15.236  11.678  36.847  0.00  0.00    +0.000 A 
ATOM      6  C   UNL     1      16.304  10.820  37.030  0.00  0.00    +0.000 A 
ATOM      7  C   UNL     1      16.956  10.379  35.896  0.00  0.00    +0.000 A 
ATOM      8  C   UNL     1      16.555  10.782  34.631  0.00  0.00    +0.000 A 
ATOM      9  C   UNL     1      17.271  10.295  33.438  0.00  0.00    +0.000 C 
ENDBRANCH   1   6
BRANCH   1  10
ATOM     10  C   UNL     1      18.052   9.690  38.377  0.00  0.00    +0.000 C 
BRANCH  10  11
ATOM     11  N   UNL     1      19.045  10.666  38.785  0.00  0.00    +0.000 NA
ATOM     12  C   UNL     1      20.314  10.680  38.139  0.00  0.00    +0.000 A 
ATOM     13  N   UNL     1      20.590   9.798  37.163  0.00  0.00    +0.000 NA
ATOM     14  C   UNL     1      21.796   9.840  36.576  0.00  0.00    +0.000 A 
ATOM     15  C   UNL     1      22.770  10.738  36.918  0.00  0.00    +0.000 A 
ATOM     16  C   UNL     1      22.477  11.638  37.921  0.00  0.00    +0.000 A 
ATOM     17  C   UNL     1      21.255  11.619  38.537  0.00  0.00    +0.000 A 
ATOM     18  N   UNL     1      20.917  12.530  39.574  0.00  0.00    +0.000 NA
ENDBRANCH  10  11
ENDBRANCH   1  10
TORSDOF 3
ENDMDL
MODEL 6
REMARK VINA RESULT:      -6.1      3.901      7.732
REMARK  Name = 
REMARK  3 active torsions:
REMARK  status: ('A' for Active; 'I' for Inactive)
REMARK    1  A    between atoms: C_5  and  C_6
REMARK    2  A    between atoms: C_6  and  C_7
REMARK    3  A    between atoms: C_7  and  N_8
REMARK                            x       y       z     vdW  Elec       q    Type
REMARK                         _______ _______ _______ _____ _____    ______ ____
ROOT
ATOM      1  C   UNL     1      18.867   9.699  36.951  0.00  0.00    +0.000 C 
ENDROOT
BRANCH   1   6
ATOM      2  C   UNL     1      15.246  11.850  32.958  0.00  0.00    +0.000 C 
ATOM      3  C   UNL     1      16.177  11.295  33.978  0.00  0.00    +0.000 A 
ATOM      4  C   UNL     1      17.114  10.329  33.673  0.00  0.00    +0.000 A 
ATOM      5  C   UNL     1      17.971   9.823  34.634  0.00  0.00    +0.000 A 
ATOM      6  C   UNL     1      17.929  10.264  35.943  0.00  0.00    +0.000 A 
ATOM      7  C   UNL     1      16.993  11.231  36.249  0.00  0.00    +0.000 A 
ATOM      8  C   UNL     1      16.134  11.735  35.284  0.00  0.00    +0.000 A 
ATOM      9  C   UNL     1      15.145  12.768  35.641  0.00  0.00    +0.000 C 
ENDBRANCH   1   6
BRANCH   1  10
ATOM     10  C   UNL     1      18.347   9.947  38.366  0.00  0.00    +0.000 C 
BRANCH  10  11
ATOM     11  N   UNL     1      18.404   8.670  39.053  0.00  0.00    +0.000 NA
ATOM     12  C   UNL     1      17.545   8.438  40.164  0.00  0.00    +0.000 A 
ATOM     13  N   UNL     1      16.692   9.392  40.575  0.00  0.00    +0.000 NA
ATOM     14  C   UNL     1      15.897   9.140  41.627  0.00  0.00    +0.000 A 
ATOM     15  C   UNL     1      15.907   7.954  42.311  0.00  0.00    +0.000 A 
ATOM     16  C   UNL     1      16.785   6.983  41.881  0.00  0.00    +0.000 A 
ATOM     17  C   UNL     1      17.607   7.213  40.812  0.00  0.00    +0.000 A 
ATOM     18  N   UNL     1      18.526   6.236  40.341  0.00  0.00    +0.000 NA
ENDBRANCH  10  11
ENDBRANCH   1  10
TORSDOF 3
ENDMDL
MODEL 7
REMARK VINA RESULT:      -6.0     18.972     20.134
REMARK  Name = 
REMARK  3 active torsions:
REMARK  status: ('A' for Active; 'I' for Inactive)
REMARK    1  A    between atoms: C_5  and  C_6
REMARK    2  A    between atoms: C_6  and  C_7
REMARK    3  A    between atoms: C_7  and  N_8
REMARK                            x       y       z     vdW  Elec       q    Type
REMARK                         _______ _______ _______ _____ _____    ______ ____
ROOT
ATOM      1  C   UNL     1      30.249  22.331  25.191  0.00  0.00    +0.000 C 
ENDROOT
BRANCH   1   6
ATOM      2  C   UNL     1      29.196  22.787  30.879  0.00  0.00    +0.000 C 
ATOM      3  C   UNL     1      29.472  22.670  29.422  0.00  0.00    +0.000 A 
ATOM      4  C   UNL     1      30.754  22.595  28.918  0.00  0.00    +0.000 A 
ATOM      5  C   UNL     1      30.992  22.488  27.559  0.00  0.00    +0.000 A 
ATOM      6  C   UNL     1      29.957  22.449  26.645  0.00  0.00    +0.000 A 
ATOM      7  C   UNL     1      28.673  22.522  27.148  0.00  0.00    +0.000 A 
ATOM      8  C   UNL     1      28.438  22.632  28.510  0.00  0.00    +0.000 A 
ATOM      9  C   UNL     1      27.056  22.708  29.019  0.00  0.00    +0.000 C 
ENDBRANCH   1   6
BRANCH   1  10
ATOM     10  C   UNL     1      31.035  23.548  24.701  0.00  0.00    +0.000 C 
BRANCH  10  11
ATOM     11  N   UNL     1      30.532  23.852  23.375  0.00  0.00    +0.000 NA
ATOM     12  C   UNL     1      29.405  24.711  23.237  0.00  0.00    +0.000 A 
ATOM     13  N   UNL     1      28.811  25.233  24.325  0.00  0.00    +0.000 NA
ATOM     14  C   UNL     1      27.751  26.038  24.158  0.00  0.00    +0.000 A 
ATOM     15  C   UNL     1      27.234  26.361  22.932  0.00  0.00    +0.000 A 
ATOM     16  C   UNL     1      27.851  25.820  21.824  0.00  0.00    +0.000 A 
ATOM     17  C   UNL     1      28.934  24.996  21.964  0.00  0.00    +0.000 A 
ATOM     18  N   UNL     1      29.594  24.419  20.845  0.00  0.00    +0.000 NA
ENDBRANCH  10  11
ENDBRANCH   1  10
TORSDOF 3
ENDMDL
MODEL 8
REMARK VINA RESULT:      -5.9     17.641     18.874
REMARK  Name = 
REMARK  3 active torsions:
REMARK  status: ('A' for Active; 'I' for Inactive)
REMARK    1  A    between atoms: C_5  and  C_6
REMARK    2  A    between atoms: C_6  and  C_7
REMARK    3  A    between atoms: C_7  and  N_8
REMARK                            x       y       z     vdW  Elec       q    Type
REMARK                         _______ _______ _______ _____ _____    ______ ____
ROOT
ATOM      1  C   UNL     1      31.167  22.651  27.244  0.00  0.00    +0.000 C 
ENDROOT
BRANCH   1   6
ATOM      2  C   UNL     1      31.443  21.597  32.943  0.00  0.00    +0.000 C 
ATOM      3  C   UNL     1      31.367  21.869  31.483  0.00  0.00    +0.000 A 
ATOM      4  C   UNL     1      30.262  22.454  30.899  0.00  0.00    +0.000 A 
ATOM      5  C   UNL     1      30.208  22.700  29.538  0.00  0.00    +0.000 A 
ATOM      6  C   UNL     1      31.258  22.371  28.702  0.00  0.00    +0.000 A 
ATOM      7  C   UNL     1      32.365  21.786  29.286  0.00  0.00    +0.000 A 
ATOM      8  C   UNL     1      32.415  21.541  30.649  0.00  0.00    +0.000 A 
ATOM      9  C   UNL     1      33.610  20.915  31.245  0.00  0.00    +0.000 C 
ENDBRANCH   1   6
BRANCH   1  10
ATOM     10  C   UNL     1      29.867  22.087  26.670  0.00  0.00    +0.000 C 
BRANCH  10  11
ATOM     11  N   UNL     1      29.729  22.651  25.340  0.00  0.00    +0.000 NA
ATOM     12  C   UNL     1      28.428  22.920  24.829  0.00  0.00    +0.000 A 
ATOM     13  N   UNL     1      27.338  22.653  25.570  0.00  0.00    +0.000 NA
ATOM     14  C   UNL     1      26.127  22.919  25.056  0.00  0.00    +0.000 A 
ATOM     15  C   UNL     1      25.937  23.451  23.809  0.00  0.00    +0.000 A 
ATOM     16  C   UNL     1      27.061  23.721  23.058  0.00  0.00    +0.000 A 
ATOM     17  C   UNL     1      28.309  23.460  23.557  0.00  0.00    +0.000 A 
ATOM     18  N   UNL     1      29.490  23.723  22.811  0.00  0.00    +0.000 NA
ENDBRANCH  10  11
ENDBRANCH   1  10
TORSDOF 3
ENDMDL
MODEL 9
REMARK VINA RESULT:      -5.9     21.093     22.564
REMARK  Name = 
REMARK  3 active torsions:
REMARK  status: ('A' for Active; 'I' for Inactive)
REMARK    1  A    between atoms: C_5  and  C_6
REMARK    2  A    between atoms: C_6  and  C_7
REMARK    3  A    between atoms: C_7  and  N_8
REMARK                            x       y       z     vdW  Elec       q    Type
REMARK                         _______ _______ _______ _____ _____    ______ ____
ROOT
ATOM      1  C   UNL     1      16.409  -7.467  26.717  0.00  0.00    +0.000 C 
ENDROOT
BRANCH   1   6
ATOM      2  C   UNL     1      21.875  -6.395  25.089  0.00  0.00    +0.000 C 
ATOM      3  C   UNL     1      20.473  -6.664  25.508  0.00  0.00    +0.000 A 
ATOM      4  C   UNL     1      19.651  -5.676  26.011  0.00  0.00    +0.000 A 
ATOM      5  C   UNL     1      18.350  -5.945  26.397  0.00  0.00    +0.000 A 
ATOM      6  C   UNL     1      17.813  -7.214  26.294  0.00  0.00    +0.000 A 
ATOM      7  C   UNL     1      18.634  -8.203  25.789  0.00  0.00    +0.000 A 
ATOM      8  C   UNL     1      19.938  -7.931  25.405  0.00  0.00    +0.000 A 
ATOM      9  C   UNL     1      20.791  -9.007  24.869  0.00  0.00    +0.000 C 
ENDBRANCH   1   6
BRANCH   1  10
ATOM     10  C   UNL     1      15.865  -8.728  26.046  0.00  0.00    +0.000 C 
BRANCH  10  11
ATOM     11  N   UNL     1      14.629  -8.342  25.391  0.00  0.00    +0.000 NA
ATOM     12  C   UNL     1      13.395  -8.865  25.870  0.00  0.00    +0.000 A 
ATOM     13  N   UNL     1      13.374  -9.708  26.917  0.00  0.00    +0.000 NA
ATOM     14  C   UNL     1      12.193 -10.182  27.342  0.00  0.00    +0.000 A 
ATOM     15  C   UNL     1      10.996  -9.853  26.764  0.00  0.00    +0.000 A 
ATOM     16  C   UNL     1      11.029  -8.987  25.691  0.00  0.00    +0.000 A 
ATOM     17  C   UNL     1      12.220  -8.488  25.237  0.00  0.00    +0.000 A 
ATOM     18  N   UNL     1      12.293  -7.595  24.133  0.00  0.00    +0.000 NA
ENDBRANCH  10  11
ENDBRANCH   1  10
TORSDOF 3
ENDMDL
MODEL 10
REMARK VINA RESULT:      -5.8     20.316     21.563
REMARK  Name = 
REMARK  3 active torsions:
REMARK  status: ('A' for Active; 'I' for Inactive)
REMARK    1  A    between atoms: C_5  and  C_6
REMARK    2  A    between atoms: C_6  and  C_7
REMARK    3  A    between atoms: C_7  and  N_8
REMARK                            x       y       z     vdW  Elec       q    Type
REMARK                         _______ _______ _______ _____ _____    ______ ____
ROOT
ATOM      1  C   UNL     1      24.623   3.211  18.672  0.00  0.00    +0.000 C 
ENDROOT
BRANCH   1   6
ATOM      2  C   UNL     1      27.775   7.327  16.065  0.00  0.00    +0.000 C 
ATOM      3  C   UNL     1      26.964   6.270  16.728  0.00  0.00    +0.000 A 
ATOM      4  C   UNL     1      26.137   5.423  16.020  0.00  0.00    +0.000 A 
ATOM      5  C   UNL     1      25.390   4.445  16.654  0.00  0.00    +0.000 A 
ATOM      6  C   UNL     1      25.439   4.274  18.024  0.00  0.00    +0.000 A 
ATOM      7  C   UNL     1      26.267   5.121  18.733  0.00  0.00    +0.000 A 
ATOM      8  C   UNL     1      27.013   6.099  18.095  0.00  0.00    +0.000 A 
ATOM      9  C   UNL     1      27.889   6.990  18.879  0.00  0.00    +0.000 C 
ENDBRANCH   1   6
BRANCH   1  10
ATOM     10  C   UNL     1      23.141   3.397  18.343  0.00  0.00    +0.000 C 
BRANCH  10  11
ATOM     11  N   UNL     1      22.815   2.397  17.344  0.00  0.00    +0.000 NA
ATOM     12  C   UNL     1      21.455   2.030  17.144  0.00  0.00    +0.000 A 
ATOM     13  N   UNL     1      20.482   2.603  17.873  0.00  0.00    +0.000 NA
ATOM     14  C   UNL     1      19.210   2.233  17.658  0.00  0.00    +0.000 A 
ATOM     15  C   UNL     1      18.844   1.297  16.729  0.00  0.00    +0.000 A 
ATOM     16  C   UNL     1      19.849   0.716  15.986  0.00  0.00    +0.000 A 
ATOM     17  C   UNL     1      21.155   1.074  16.184  0.00  0.00    +0.000 A 
ATOM     18  N   UNL     1      22.219   0.496  15.439  0.00  0.00    +0.000 NA
ENDBRANCH  10  11
ENDBRANCH   1  10
TORSDOF 3
ENDMDL
