MODEL 1
REMARK VINA RESULT:      -6.0      0.000      0.000
REMARK  Name = 
REMARK  4 active torsions:
REMARK  status: ('A' for Active; 'I' for Inactive)
REMARK    1  A    between atoms: C_2  and  C_4
REMARK    2  A    between atoms: C_7  and  N_8
REMARK    3  A    between atoms: N_8  and  N_9
REMARK    4  A    between atoms: C_10  and  C_12
REMARK                            x       y       z     vdW  Elec       q    Type
REMARK                         _______ _______ _______ _____ _____    ______ ____
ROOT
ATOM      1  C   UNL     1      33.808  -1.092  34.266  0.00  0.00    +0.000 A 
ATOM      2  C   UNL     1      33.501  -0.157  35.234  0.00  0.00    +0.000 A 
ATOM      3  C   UNL     1      33.414   1.184  34.957  0.00  0.00    +0.000 A 
ATOM      4  C   UNL     1      33.629   1.672  33.690  0.00  0.00    +0.000 A 
ATOM      5  C   UNL     1      33.938   0.754  32.701  0.00  0.00    +0.000 A 
ATOM      6  C   UNL     1      34.023  -0.586  32.989  0.00  0.00    +0.000 A 
ENDROOT
BRANCH   1   8
ATOM      7  C   UNL     1      33.565  -3.352  33.287  0.00  0.00    +0.000 C 
ATOM      8  C   UNL     1      33.914  -2.550  34.520  0.00  0.00    +0.000 C 
ATOM      9  C   UNL     1      32.897  -2.877  35.616  0.00  0.00    +0.000 C 
ENDBRANCH   1   8
BRANCH   4  10
ATOM     10  N   UNL     1      33.546   3.072  33.384  0.00  0.00    +0.000 NA
BRANCH  10  11
ATOM     11  N   UNL     1      34.291   3.927  34.221  0.00  0.00    +0.000 NA
ATOM     12  C   UNL     1      33.817   5.224  34.556  0.00  0.00    +0.000 C 
ATOM     13  O   UNL     1      32.720   5.573  34.080  0.00  0.00    +0.000 OA
BRANCH  12  14
ATOM     14  C   UNL     1      34.591   6.135  35.439  0.00  0.00    +0.000 A 
ATOM     15  C   UNL     1      35.804   6.700  35.191  0.00  0.00    +0.000 A 
ATOM     16  C   UNL     1      36.323   7.492  36.134  0.00  0.00    +0.000 A 
ATOM     17  C   UNL     1      35.591   7.673  37.274  0.00  0.00    +0.000 A 
ATOM     18  S   UNL     1      34.206   6.728  36.984  0.00  0.00    +0.000 S 
ENDBRANCH  12  14
ENDBRANCH  10  11
ENDBRANCH   4  10
TORSDOF 4
ENDMDL
MODEL 2
REMARK VINA RESULT:      -5.8     24.398     27.668
REMARK  Name = 
REMARK  4 active torsions:
REMARK  status: ('A' for Active; 'I' for Inactive)
REMARK    1  A    between atoms: C_2  and  C_4
REMARK    2  A    between atoms: C_7  and  N_8
REMARK    3  A    between atoms: N_8  and  N_9
REMARK    4  A    between atoms: C_10  and  C_12
REMARK                            x       y       z     vdW  Elec       q    Type
REMARK                         _______ _______ _______ _____ _____    ______ ____
ROOT
ATOM      1  C   UNL     1      29.463  28.743  20.267  0.00  0.00    +0.000 A 
ATOM      2  C   UNL     1      29.088  28.200  21.480  0.00  0.00    +0.000 A 
ATOM      3  C   UNL     1      29.104  26.849  21.715  0.00  0.00    +0.000 A 
ATOM      4  C   UNL     1      29.498  25.955  20.748  0.00  0.00    +0.000 A 
ATOM      5  C   UNL     1      29.880  26.475  19.523  0.00  0.00    +0.000 A 
ATOM      6  C   UNL     1      29.860  27.829  19.297  0.00  0.00    +0.000 A 
ENDROOT
BRANCH   1   8
ATOM      7  C   UNL     1      29.159  30.458  18.510  0.00  0.00    +0.000 C 
ATOM      8  C   UNL     1      29.460  30.196  19.968  0.00  0.00    +0.000 C 
ATOM      9  C   UNL     1      30.870  30.708  20.273  0.00  0.00    +0.000 C 
ENDBRANCH   1   8
BRANCH   4  10
ATOM     10  N   UNL     1      29.518  24.538  20.976  0.00  0.00    +0.000 NA
BRANCH  10  11
ATOM     11  N   UNL     1      29.759  24.136  22.306  0.00  0.00    +0.000 NA
ATOM     12  C   UNL     1      28.794  23.388  23.034  0.00  0.00    +0.000 C 
ATOM     13  O   UNL     1      27.731  23.105  22.450  0.00  0.00    +0.000 OA
BRANCH  12  14
ATOM     14  C   UNL     1      29.035  22.956  24.435  0.00  0.00    +0.000 A 
ATOM     15  C   UNL     1      30.204  22.524  24.982  0.00  0.00    +0.000 A 
ATOM     16  C   UNL     1      30.194  22.179  26.273  0.00  0.00    +0.000 A 
ATOM     17  C   UNL     1      29.007  22.289  26.942  0.00  0.00    +0.000 A 
ATOM     18  S   UNL     1      27.951  22.869  25.740  0.00  0.00    +0.000 S 
ENDBRANCH  12  14
ENDBRANCH  10  11
ENDBRANCH   4  10
TORSDOF 4
ENDMDL
MODEL 3
REMARK VINA RESULT:      -5.6     16.258     18.082
REMARK  Name = 
REMARK  4 active torsions:
REMARK  status: ('A' for Active; 'I' for Inactive)
REMARK    1  A    between atoms: C_2  and  C_4
REMARK    2  A    between atoms: C_7  and  N_8
REMARK    3  A    between atoms: N_8  and  N_9
REMARK    4  A    between atoms: C_10  and  C_12
REMARK                            x       y       z     vdW  Elec       q    Type
REMARK                         _______ _______ _______ _____ _____    ______ ____
ROOT
ATOM      1  C   UNL     1      22.407  10.353  37.406  0.00  0.00    +0.000 A 
ATOM      2  C   UNL     1      21.637   9.679  36.479  0.00  0.00    +0.000 A 
ATOM      3  C   UNL     1      20.269   9.769  36.459  0.00  0.00    +0.000 A 
ATOM      4  C   UNL     1      19.585  10.542  37.367  0.00  0.00    +0.000 A 
ATOM      5  C   UNL     1      20.334  11.228  38.306  0.00  0.00    +0.000 A 
ATOM      6  C   UNL     1      21.704  11.131  38.319  0.00  0.00    +0.000 A 
ENDROOT
BRANCH   1   8
ATOM      7  C   UNL     1      24.498  10.322  36.083  0.00  0.00    +0.000 C 
ATOM      8  C   UNL     1      23.888  10.284  37.466  0.00  0.00    +0.000 C 
ATOM      9  C   UNL     1      24.237   8.943  38.115  0.00  0.00    +0.000 C 
ENDBRANCH   1   8
BRANCH   4  10
ATOM     10  N   UNL     1      18.153  10.644  37.362  0.00  0.00    +0.000 NA
BRANCH  10  11
ATOM     11  N   UNL     1      17.539  10.574  36.094  0.00  0.00    +0.000 NA
ATOM     12  C   UNL     1      16.784  11.664  35.582  0.00  0.00    +0.000 C 
ATOM     13  O   UNL     1      16.687  12.679  36.298  0.00  0.00    +0.000 OA
BRANCH  12  14
ATOM     14  C   UNL     1      16.133  11.605  34.248  0.00  0.00    +0.000 A 
ATOM     15  C   UNL     1      15.086  12.351  33.800  0.00  0.00    +0.000 A 
ATOM     16  C   UNL     1      14.654  12.129  32.556  0.00  0.00    +0.000 A 
ATOM     17  C   UNL     1      15.300  11.167  31.830  0.00  0.00    +0.000 A 
ATOM     18  S   UNL     1      16.486  10.611  32.916  0.00  0.00    +0.000 S 
ENDBRANCH  12  14
ENDBRANCH  10  11
ENDBRANCH   4  10
TORSDOF 4
ENDMDL
MODEL 4
REMARK VINA RESULT:      -5.5      6.577     10.131
REMARK  Name = 
REMARK  4 active torsions:
REMARK  status: ('A' for Active; 'I' for Inactive)
REMARK    1  A    between atoms: C_2  and  C_4
REMARK    2  A    between atoms: C_7  and  N_8
REMARK    3  A    between atoms: N_8  and  N_9
REMARK    4  A    between atoms: C_10  and  C_12
REMARK                            x       y       z     vdW  Elec       q    Type
REMARK                         _______ _______ _______ _____ _____    ______ ____
ROOT
ATOM      1  C   UNL     1      32.847  -0.999  34.565  0.00  0.00    +0.000 A 
ATOM      2  C   UNL     1      33.672  -1.591  33.628  0.00  0.00    +0.000 A 
ATOM      3  C   UNL     1      33.659  -2.941  33.389  0.00  0.00    +0.000 A 
ATOM      4  C   UNL     1      32.819  -3.786  34.074  0.00  0.00    +0.000 A 
ATOM      5  C   UNL     1      31.982  -3.217  35.019  0.00  0.00    +0.000 A 
ATOM      6  C   UNL     1      32.002  -1.864  35.251  0.00  0.00    +0.000 A 
ENDROOT
BRANCH   1   8
ATOM      7  C   UNL     1      33.305   1.262  33.671  0.00  0.00    +0.000 C 
ATOM      8  C   UNL     1      32.828   0.455  34.857  0.00  0.00    +0.000 C 
ATOM      9  C   UNL     1      33.798   0.680  36.020  0.00  0.00    +0.000 C 
ENDBRANCH   1   8
BRANCH   4  10
ATOM     10  N   UNL     1      32.796  -5.202  33.839  0.00  0.00    +0.000 NA
BRANCH  10  11
ATOM     11  N   UNL     1      33.275  -5.620  32.581  0.00  0.00    +0.000 NA
ATOM     12  C   UNL     1      32.395  -6.158  31.601  0.00  0.00    +0.000 C 
ATOM     13  O   UNL     1      31.189  -6.245  31.902  0.00  0.00    +0.000 OA
BRANCH  12  14
ATOM     14  C   UNL     1      32.885  -6.602  30.271  0.00  0.00    +0.000 A 
ATOM     15  C   UNL     1      33.453  -5.839  29.297  0.00  0.00    +0.000 A 
ATOM     16  C   UNL     1      33.820  -6.449  28.166  0.00  0.00    +0.000 A 
ATOM     17  C   UNL     1      33.597  -7.795  28.079  0.00  0.00    +0.000 A 
ATOM     18  S   UNL     1      32.881  -8.154  29.580  0.00  0.00    +0.000 S 
ENDBRANCH  12  14
ENDBRANCH  10  11
ENDBRANCH   4  10
TORSDOF 4
ENDMDL
MODEL 5
REMARK VINA RESULT:      -5.4      2.633      3.825
REMARK  Name = 
REMARK  4 active torsions:
REMARK  status: ('A' for Active; 'I' for Inactive)
REMARK    1  A    between atoms: C_2  and  C_4
REMARK    2  A    between atoms: C_7  and  N_8
REMARK    3  A    between atoms: N_8  and  N_9
REMARK    4  A    between atoms: C_10  and  C_12
REMARK                            x       y       z     vdW  Elec       q    Type
REMARK                         _______ _______ _______ _____ _____    ______ ____
ROOT
ATOM      1  C   UNL     1      33.515   2.197  34.289  0.00  0.00    +0.000 A 
ATOM      2  C   UNL     1      33.857   2.030  35.617  0.00  0.00    +0.000 A 
ATOM      3  C   UNL     1      34.244   3.079  36.411  0.00  0.00    +0.000 A 
ATOM      4  C   UNL     1      34.313   4.363  35.926  0.00  0.00    +0.000 A 
ATOM      5  C   UNL     1      33.975   4.557  34.597  0.00  0.00    +0.000 A 
ATOM      6  C   UNL     1      33.588   3.500  33.809  0.00  0.00    +0.000 A 
ENDROOT
BRANCH   1   8
ATOM      7  C   UNL     1      32.772  -0.160  34.175  0.00  0.00    +0.000 C 
ATOM      8  C   UNL     1      33.092   1.093  33.392  0.00  0.00    +0.000 C 
ATOM      9  C   UNL     1      34.279   0.801  32.470  0.00  0.00    +0.000 C 
ENDBRANCH   1   8
BRANCH   4  10
ATOM     10  N   UNL     1      34.720   5.471  36.743  0.00  0.00    +0.000 NA
BRANCH  10  11
ATOM     11  N   UNL     1      34.729   6.729  36.106  0.00  0.00    +0.000 NA
ATOM     12  C   UNL     1      35.275   7.874  36.748  0.00  0.00    +0.000 C 
ATOM     13  O   UNL     1      35.741   7.719  37.893  0.00  0.00    +0.000 OA
BRANCH  12  14
ATOM     14  C   UNL     1      35.294   9.205  36.089  0.00  0.00    +0.000 A 
ATOM     15  C   UNL     1      36.178   9.660  35.159  0.00  0.00    +0.000 A 
ATOM     16  C   UNL     1      36.009  10.903  34.699  0.00  0.00    +0.000 A 
ATOM     17  C   UNL     1      34.957  11.619  35.200  0.00  0.00    +0.000 A 
ATOM     18  S   UNL     1      34.247  10.527  36.295  0.00  0.00    +0.000 S 
ENDBRANCH  12  14
ENDBRANCH  10  11
ENDBRANCH   4  10
TORSDOF 4
ENDMDL
MODEL 6
REMARK VINA RESULT:      -5.4     19.531     21.636
REMARK  Name = 
REMARK  4 active torsions:
REMARK  status: ('A' for Active; 'I' for Inactive)
REMARK    1  A    between atoms: C_2  and  C_4
REMARK    2  A    between atoms: C_7  and  N_8
REMARK    3  A    between atoms: N_8  and  N_9
REMARK    4  A    between atoms: C_10  and  C_12
REMARK                            x       y       z     vdW  Elec       q    Type
REMARK                         _______ _______ _______ _____ _____    ______ ____
ROOT
ATOM      1  C   UNL     1      26.449   4.546  17.681  0.00  0.00    +0.000 A 
ATOM      2  C   UNL     1      26.829   3.475  16.896  0.00  0.00    +0.000 A 
ATOM      3  C   UNL     1      26.152   2.283  16.905  0.00  0.00    +0.000 A 
ATOM      4  C   UNL     1      25.050   2.087  17.702  0.00  0.00    +0.000 A 
ATOM      5  C   UNL     1      24.648   3.145  18.499  0.00  0.00    +0.000 A 
ATOM      6  C   UNL     1      25.332   4.336  18.483  0.00  0.00    +0.000 A 
ENDROOT
BRANCH   1   8
ATOM      7  C   UNL     1      27.765   6.124  19.060  0.00  0.00    +0.000 C 
ATOM      8  C   UNL     1      27.151   5.853  17.705  0.00  0.00    +0.000 C 
ATOM      9  C   UNL     1      26.092   6.923  17.429  0.00  0.00    +0.000 C 
ENDBRANCH   1   8
BRANCH   4  10
ATOM     10  N   UNL     1      24.332   0.844  17.726  0.00  0.00    +0.000 NA
BRANCH  10  11
ATOM     11  N   UNL     1      22.929   0.946  17.636  0.00  0.00    +0.000 NA
ATOM     12  C   UNL     1      22.258   0.780  16.394  0.00  0.00    +0.000 C 
ATOM     13  O   UNL     1      22.961   0.542  15.392  0.00  0.00    +0.000 OA
BRANCH  12  14
ATOM     14  C   UNL     1      20.780   0.884  16.283  0.00  0.00    +0.000 A 
ATOM     15  C   UNL     1      19.970   0.277  15.372  0.00  0.00    +0.000 A 
ATOM     16  C   UNL     1      18.658   0.516  15.455  0.00  0.00    +0.000 A 
ATOM     17  C   UNL     1      18.234   1.350  16.451  0.00  0.00    +0.000 A 
ATOM     18  S   UNL     1      19.686   1.770  17.233  0.00  0.00    +0.000 S 
ENDBRANCH  12  14
ENDBRANCH  10  11
ENDBRANCH   4  10
TORSDOF 4
ENDMDL
MODEL 7
REMARK VINA RESULT:      -5.4     18.000     19.418
REMARK  Name = 
REMARK  4 active torsions:
REMARK  status: ('A' for Active; 'I' for Inactive)
REMARK    1  A    between atoms: C_2  and  C_4
REMARK    2  A    between atoms: C_7  and  N_8
REMARK    3  A    between atoms: N_8  and  N_9
REMARK    4  A    between atoms: C_10  and  C_12
REMARK                            x       y       z     vdW  Elec       q    Type
REMARK                         _______ _______ _______ _____ _____    ______ ____
ROOT
ATOM      1  C   UNL     1      18.673  -7.926  27.080  0.00  0.00    +0.000 A 
ATOM      2  C   UNL     1      19.769  -8.647  26.646  0.00  0.00    +0.000 A 
ATOM      3  C   UNL     1      20.776  -8.077  25.911  0.00  0.00    +0.000 A 
ATOM      4  C   UNL     1      20.750  -6.748  25.562  0.00  0.00    +0.000 A 
ATOM      5  C   UNL     1      19.662  -6.003  25.985  0.00  0.00    +0.000 A 
ATOM      6  C   UNL     1      18.658  -6.583  26.721  0.00  0.00    +0.000 A 
ENDROOT
BRANCH   1   8
ATOM      7  C   UNL     1      18.077  -9.294  29.053  0.00  0.00    +0.000 C 
ATOM      8  C   UNL     1      17.560  -8.500  27.875  0.00  0.00    +0.000 C 
ATOM      9  C   UNL     1      16.801  -9.449  26.944  0.00  0.00    +0.000 C 
ENDBRANCH   1   8
BRANCH   4  10
ATOM     10  N   UNL     1      21.795  -6.137  24.790  0.00  0.00    +0.000 NA
BRANCH  10  11
ATOM     11  N   UNL     1      23.024  -6.827  24.771  0.00  0.00    +0.000 NA
ATOM     12  C   UNL     1      23.574  -7.317  23.555  0.00  0.00    +0.000 C 
ATOM     13  O   UNL     1      22.924  -7.113  22.511  0.00  0.00    +0.000 OA
BRANCH  12  14
ATOM     14  C   UNL     1      24.869  -8.044  23.519  0.00  0.00    +0.000 A 
ATOM     15  C   UNL     1      26.048  -7.616  22.989  0.00  0.00    +0.000 A 
ATOM     16  C   UNL     1      27.096  -8.442  23.064  0.00  0.00    +0.000 A 
ATOM     17  C   UNL     1      26.900  -9.652  23.669  0.00  0.00    +0.000 A 
ATOM     18  S   UNL     1      25.257  -9.589  24.109  0.00  0.00    +0.000 S 
ENDBRANCH  12  14
ENDBRANCH  10  11
ENDBRANCH   4  10
TORSDOF 4
ENDMDL
MODEL 8
REMARK VINA RESULT:      -5.3      2.964      7.567
REMARK  Name = 
REMARK  4 active torsions:
REMARK  status: ('A' for Active; 'I' for Inactive)
REMARK    1  A    between atoms: C_2  and  C_4
REMARK    2  A    between atoms: C_7  and  N_8
REMARK    3  A    between atoms: N_8  and  N_9
REMARK    4  A    between atoms: C_10  and  C_12
REMARK                            x       y       z     vdW  Elec       q    Type
REMARK                         _______ _______ _______ _____ _____    ______ ____
ROOT
ATOM      1  C   UNL     1      34.433   5.832  35.729  0.00  0.00    +0.000 A 
ATOM      2  C   UNL     1      33.472   5.943  34.743  0.00  0.00    +0.000 A 
ATOM      3  C   UNL     1      33.061   4.868  33.997  0.00  0.00    +0.000 A 
ATOM      4  C   UNL     1      33.586   3.613  34.191  0.00  0.00    +0.000 A 
ATOM      5  C   UNL     1      34.551   3.475  35.175  0.00  0.00    +0.000 A 
ATOM      6  C   UNL     1      34.956   4.557  35.917  0.00  0.00    +0.000 A 
ENDROOT
BRANCH   1   8
ATOM      7  C   UNL     1      34.312   8.275  36.098  0.00  0.00    +0.000 C 
ATOM      8  C   UNL     1      34.909   6.966  36.559  0.00  0.00    +0.000 C 
ATOM      9  C   UNL     1      36.427   7.033  36.377  0.00  0.00    +0.000 C 
ENDBRANCH   1   8
BRANCH   4  10
ATOM     10  N   UNL     1      33.169   2.479  33.417  0.00  0.00    +0.000 NA
BRANCH  10  11
ATOM     11  N   UNL     1      33.778   1.252  33.753  0.00  0.00    +0.000 NA
ATOM     12  C   UNL     1      33.003   0.139  34.179  0.00  0.00    +0.000 C 
ATOM     13  O   UNL     1      31.768   0.294  34.245  0.00  0.00    +0.000 OA
BRANCH  12  14
ATOM     14  C   UNL     1      33.630  -1.160  34.535  0.00  0.00    +0.000 A 
ATOM     15  C   UNL     1      34.609  -1.386  35.454  0.00  0.00    +0.000 A 
ATOM     16  C   UNL     1      35.032  -2.644  35.611  0.00  0.00    +0.000 A 
ATOM     17  C   UNL     1      34.445  -3.604  34.835  0.00  0.00    +0.000 A 
ATOM     18  S   UNL     1      33.326  -2.712  33.915  0.00  0.00    +0.000 S 
ENDBRANCH  12  14
ENDBRANCH  10  11
ENDBRANCH   4  10
TORSDOF 4
ENDMDL
MODEL 9
REMARK VINA RESULT:      -5.3     22.713     25.539
REMARK  Name = 
REMARK  4 active torsions:
REMARK  status: ('A' for Active; 'I' for Inactive)
REMARK    1  A    between atoms: C_2  and  C_4
REMARK    2  A    between atoms: C_7  and  N_8
REMARK    3  A    between atoms: N_8  and  N_9
REMARK    4  A    between atoms: C_10  and  C_12
REMARK                            x       y       z     vdW  Elec       q    Type
REMARK                         _______ _______ _______ _____ _____    ______ ____
ROOT
ATOM      1  C   UNL     1      30.373  23.056  26.618  0.00  0.00    +0.000 A 
ATOM      2  C   UNL     1      29.063  22.846  26.237  0.00  0.00    +0.000 A 
ATOM      3  C   UNL     1      28.656  22.940  24.931  0.00  0.00    +0.000 A 
ATOM      4  C   UNL     1      29.537  23.251  23.923  0.00  0.00    +0.000 A 
ATOM      5  C   UNL     1      30.857  23.467  24.279  0.00  0.00    +0.000 A 
ATOM      6  C   UNL     1      31.255  23.371  25.590  0.00  0.00    +0.000 A 
ENDROOT
BRANCH   1   8
ATOM      7  C   UNL     1      31.672  21.713  28.240  0.00  0.00    +0.000 C 
ATOM      8  C   UNL     1      30.858  22.967  28.018  0.00  0.00    +0.000 C 
ATOM      9  C   UNL     1      29.614  22.903  28.908  0.00  0.00    +0.000 C 
ENDBRANCH   1   8
BRANCH   4  10
ATOM     10  N   UNL     1      29.127  23.357  22.551  0.00  0.00    +0.000 NA
BRANCH  10  11
ATOM     11  N   UNL     1      29.624  24.474  21.849  0.00  0.00    +0.000 NA
ATOM     12  C   UNL     1      28.748  25.470  21.337  0.00  0.00    +0.000 C 
ATOM     13  O   UNL     1      27.528  25.313  21.532  0.00  0.00    +0.000 OA
BRANCH  12  14
ATOM     14  C   UNL     1      29.258  26.653  20.596  0.00  0.00    +0.000 A 
ATOM     15  C   UNL     1      29.988  26.663  19.447  0.00  0.00    +0.000 A 
ATOM     16  C   UNL     1      30.347  27.851  18.952  0.00  0.00    +0.000 A 
ATOM     17  C   UNL     1      29.950  28.963  19.640  0.00  0.00    +0.000 A 
ATOM     18  S   UNL     1      29.092  28.305  20.953  0.00  0.00    +0.000 S 
ENDBRANCH  12  14
ENDBRANCH  10  11
ENDBRANCH   4  10
TORSDOF 4
ENDMDL
MODEL 10
REMARK VINA RESULT:      -5.3     17.736     19.183
REMARK  Name = 
REMARK  4 active torsions:
REMARK  status: ('A' for Active; 'I' for Inactive)
REMARK    1  A    between atoms: C_2  and  C_4
REMARK    2  A    between atoms: C_7  and  N_8
REMARK    3  A    between atoms: N_8  and  N_9
REMARK    4  A    between atoms: C_10  and  C_12
REMARK                            x       y       z     vdW  Elec       q    Type
REMARK                         _______ _______ _______ _____ _____    ______ ____
ROOT
ATOM      1  C   UNL     1      25.918  -8.340  23.356  0.00  0.00    +0.000 A 
ATOM      2  C   UNL     1      24.921  -9.131  23.894  0.00  0.00    +0.000 A 
ATOM      3  C   UNL     1      23.763  -8.604  24.404  0.00  0.00    +0.000 A 
ATOM      4  C   UNL     1      23.529  -7.250  24.409  0.00  0.00    +0.000 A 
ATOM      5  C   UNL     1      24.512  -6.435  23.875  0.00  0.00    +0.000 A 
ATOM      6  C   UNL     1      25.669  -6.972  23.366  0.00  0.00    +0.000 A 
ENDROOT
BRANCH   1   8
ATOM      7  C   UNL     1      28.072  -9.441  23.877  0.00  0.00    +0.000 C 
ATOM      8  C   UNL     1      27.187  -8.865  22.795  0.00  0.00    +0.000 C 
ATOM      9  C   UNL     1      27.909  -7.675  22.158  0.00  0.00    +0.000 C 
ENDBRANCH   1   8
BRANCH   4  10
ATOM     10  N   UNL     1      22.323  -6.682  24.943  0.00  0.00    +0.000 NA
BRANCH  10  11
ATOM     11  N   UNL     1      21.564  -7.529  25.776  0.00  0.00    +0.000 NA
ATOM     12  C   UNL     1      20.169  -7.326  25.955  0.00  0.00    +0.000 C 
ATOM     13  O   UNL     1      19.648  -6.370  25.349  0.00  0.00    +0.000 OA
BRANCH  12  14
ATOM     14  C   UNL     1      19.356  -8.212  26.828  0.00  0.00    +0.000 A 
ATOM     15  C   UNL     1      19.629  -9.494  27.197  0.00  0.00    +0.000 A 
ATOM     16  C   UNL     1      18.751 -10.110  27.992  0.00  0.00    +0.000 A 
ATOM     17  C   UNL     1      17.646  -9.402  28.375  0.00  0.00    +0.000 A 
ATOM     18  S   UNL     1      17.878  -7.901  27.606  0.00  0.00    +0.000 S 
ENDBRANCH  12  14
ENDBRANCH  10  11
ENDBRANCH   4  10
TORSDOF 4
ENDMDL
