MODEL 1
REMARK VINA RESULT:      -7.4      0.000      0.000
REMARK  Name = 
REMARK  4 active torsions:
REMARK  status: ('A' for Active; 'I' for Inactive)
REMARK    1  A    between atoms: O_2  and  C_3
REMARK    2  A    between atoms: C_9  and  N_10
REMARK    3  A    between atoms: C_11  and  S_13
REMARK    4  A    between atoms: S_13  and  C_14
REMARK                            x       y       z     vdW  Elec       q    Type
REMARK                         _______ _______ _______ _____ _____    ______ ____
ROOT
ATOM      1  N   UNL     1      15.418  11.396  35.442  0.00  0.00    +0.000 NA
ATOM      2  C   UNL     1      16.519  11.724  36.246  0.00  0.00    +0.000 C 
ATOM      3  O   UNL     1      17.058  12.846  36.061  0.00  0.00    +0.000 OA
ENDROOT
BRANCH   1  10
ATOM      4  C   UNL     1      15.062  12.052  33.101  0.00  0.00    +0.000 A 
ATOM      5  C   UNL     1      14.494  12.939  32.221  0.00  0.00    +0.000 A 
ATOM      6  C   UNL     1      13.742  14.025  32.647  0.00  0.00    +0.000 A 
ATOM      7  C   UNL     1      13.566  14.210  33.989  0.00  0.00    +0.000 A 
ATOM      8  C   UNL     1      12.762  15.367  34.514  0.00  0.00    +0.000 C 
ATOM      9  C   UNL     1      14.125  13.335  34.889  0.00  0.00    +0.000 A 
ATOM     10  C   UNL     1      14.880  12.247  34.442  0.00  0.00    +0.000 A 
BRANCH   4  12
ATOM     11  C   UNL     1      16.044  10.664  31.318  0.00  0.00    +0.000 C 
ATOM     12  O   UNL     1      15.809  10.973  32.688  0.00  0.00    +0.000 OA
ENDBRANCH   4  12
ENDBRANCH   1  10
BRANCH   2  13
ATOM     13  S   UNL     1      17.216  10.681  37.502  0.00  0.00    +0.000 S 
BRANCH  13  14
ATOM     14  C   UNL     1      19.001  10.752  37.521  0.00  0.00    +0.000 A 
ATOM     15  C   UNL     1      19.681  11.756  38.190  0.00  0.00    +0.000 A 
ATOM     16  C   UNL     1      21.059  11.824  38.213  0.00  0.00    +0.000 A 
ATOM     17  C   UNL     1      21.815  10.892  37.568  0.00  0.00    +0.000 A 
ATOM     18  O   UNL     1      23.194  10.889  37.543  0.00  0.00    +0.000 OA
ATOM     19  C   UNL     1      21.155   9.866  36.883  0.00  0.00    +0.000 A 
ATOM     20  C   UNL     1      19.774   9.812  36.871  0.00  0.00    +0.000 A 
ENDBRANCH  13  14
ENDBRANCH   2  13
TORSDOF 4
ENDMDL
MODEL 2
REMARK VINA RESULT:      -6.5      3.697      5.011
REMARK  Name = 
REMARK  4 active torsions:
REMARK  status: ('A' for Active; 'I' for Inactive)
REMARK    1  A    between atoms: O_2  and  C_3
REMARK    2  A    between atoms: C_9  and  N_10
REMARK    3  A    between atoms: C_11  and  S_13
REMARK    4  A    between atoms: S_13  and  C_14
REMARK                            x       y       z     vdW  Elec       q    Type
REMARK                         _______ _______ _______ _____ _____    ______ ____
ROOT
ATOM      1  N   UNL     1      16.951   9.930  36.754  0.00  0.00    +0.000 NA
ATOM      2  C   UNL     1      18.064  10.343  37.500  0.00  0.00    +0.000 C 
ATOM      3  O   UNL     1      18.478  11.517  37.321  0.00  0.00    +0.000 OA
ENDROOT
BRANCH   1  10
ATOM      4  C   UNL     1      15.343  11.692  36.168  0.00  0.00    +0.000 A 
ATOM      5  C   UNL     1      14.745  12.432  35.178  0.00  0.00    +0.000 A 
ATOM      6  C   UNL     1      15.051  12.256  33.836  0.00  0.00    +0.000 A 
ATOM      7  C   UNL     1      15.979  11.313  33.497  0.00  0.00    +0.000 A 
ATOM      8  C   UNL     1      16.355  11.074  32.061  0.00  0.00    +0.000 C 
ATOM      9  C   UNL     1      16.591  10.561  34.471  0.00  0.00    +0.000 A 
ATOM     10  C   UNL     1      16.270  10.751  35.818  0.00  0.00    +0.000 A 
BRANCH   4  12
ATOM     11  C   UNL     1      13.950  11.214  38.144  0.00  0.00    +0.000 C 
ATOM     12  O   UNL     1      15.045  11.859  37.501  0.00  0.00    +0.000 OA
ENDBRANCH   4  12
ENDBRANCH   1  10
BRANCH   2  13
ATOM     13  S   UNL     1      18.938   9.339  38.676  0.00  0.00    +0.000 S 
BRANCH  13  14
ATOM     14  C   UNL     1      17.869   8.747  39.978  0.00  0.00    +0.000 A 
ATOM     15  C   UNL     1      16.835   9.521  40.478  0.00  0.00    +0.000 A 
ATOM     16  C   UNL     1      16.001   9.077  41.484  0.00  0.00    +0.000 A 
ATOM     17  C   UNL     1      16.166   7.841  42.033  0.00  0.00    +0.000 A 
ATOM     18  O   UNL     1      15.377   7.323  43.039  0.00  0.00    +0.000 OA
ATOM     19  C   UNL     1      17.203   7.037  41.548  0.00  0.00    +0.000 A 
ATOM     20  C   UNL     1      18.029   7.497  40.540  0.00  0.00    +0.000 A 
ENDBRANCH  13  14
ENDBRANCH   2  13
TORSDOF 4
ENDMDL
MODEL 3
REMARK VINA RESULT:      -6.5      1.423      2.794
REMARK  Name = 
REMARK  4 active torsions:
REMARK  status: ('A' for Active; 'I' for Inactive)
REMARK    1  A    between atoms: O_2  and  C_3
REMARK    2  A    between atoms: C_9  and  N_10
REMARK    3  A    between atoms: C_11  and  S_13
REMARK    4  A    between atoms: S_13  and  C_14
REMARK                            x       y       z     vdW  Elec       q    Type
REMARK                         _______ _______ _______ _____ _____    ______ ____
ROOT
ATOM      1  N   UNL     1      16.323  10.957  35.768  0.00  0.00    +0.000 NA
ATOM      2  C   UNL     1      17.285  11.496  36.635  0.00  0.00    +0.000 C 
ATOM      3  O   UNL     1      17.542  12.722  36.525  0.00  0.00    +0.000 OA
ENDROOT
BRANCH   1  10
ATOM      4  C   UNL     1      14.590  12.550  35.064  0.00  0.00    +0.000 A 
ATOM      5  C   UNL     1      13.991  13.227  34.031  0.00  0.00    +0.000 A 
ATOM      6  C   UNL     1      14.405  13.085  32.714  0.00  0.00    +0.000 A 
ATOM      7  C   UNL     1      15.444  12.241  32.445  0.00  0.00    +0.000 A 
ATOM      8  C   UNL     1      15.940  12.044  31.040  0.00  0.00    +0.000 C 
ATOM      9  C   UNL     1      16.060  11.552  33.463  0.00  0.00    +0.000 A 
ATOM     10  C   UNL     1      15.629  11.707  34.783  0.00  0.00    +0.000 A 
BRANCH   4  12
ATOM     11  C   UNL     1      12.909  12.264  36.843  0.00  0.00    +0.000 C 
ATOM     12  O   UNL     1      14.186  12.684  36.372  0.00  0.00    +0.000 OA
ENDBRANCH   4  12
ENDBRANCH   1  10
BRANCH   2  13
ATOM     13  S   UNL     1      18.170  10.583  37.875  0.00  0.00    +0.000 S 
BRANCH  13  14
ATOM     14  C   UNL     1      19.939  10.702  37.661  0.00  0.00    +0.000 A 
ATOM     15  C   UNL     1      20.646   9.770  36.919  0.00  0.00    +0.000 A 
ATOM     16  C   UNL     1      22.013   9.849  36.745  0.00  0.00    +0.000 A 
ATOM     17  C   UNL     1      22.730  10.862  37.306  0.00  0.00    +0.000 A 
ATOM     18  O   UNL     1      24.096  11.013  37.180  0.00  0.00    +0.000 OA
ATOM     19  C   UNL     1      22.043  11.819  38.062  0.00  0.00    +0.000 A 
ATOM     20  C   UNL     1      20.674  11.725  38.225  0.00  0.00    +0.000 A 
ENDBRANCH  13  14
ENDBRANCH   2  13
TORSDOF 4
ENDMDL
MODEL 4
REMARK VINA RESULT:      -6.0      4.684      8.533
REMARK  Name = 
REMARK  4 active torsions:
REMARK  status: ('A' for Active; 'I' for Inactive)
REMARK    1  A    between atoms: O_2  and  C_3
REMARK    2  A    between atoms: C_9  and  N_10
REMARK    3  A    between atoms: C_11  and  S_13
REMARK    4  A    between atoms: S_13  and  C_14
REMARK                            x       y       z     vdW  Elec       q    Type
REMARK                         _______ _______ _______ _____ _____    ______ ____
ROOT
ATOM      1  N   UNL     1      18.596   7.980  39.200  0.00  0.00    +0.000 NA
ATOM      2  C   UNL     1      19.524   9.018  39.366  0.00  0.00    +0.000 C 
ATOM      3  O   UNL     1      20.089   9.116  40.486  0.00  0.00    +0.000 OA
ENDROOT
BRANCH   1  10
ATOM      4  C   UNL     1      17.266   7.237  41.126  0.00  0.00    +0.000 A 
ATOM      5  C   UNL     1      17.026   6.260  42.060  0.00  0.00    +0.000 A 
ATOM      6  C   UNL     1      17.759   5.082  42.104  0.00  0.00    +0.000 A 
ATOM      7  C   UNL     1      18.751   4.897  41.182  0.00  0.00    +0.000 A 
ATOM      8  C   UNL     1      19.580   3.643  41.176  0.00  0.00    +0.000 C 
ATOM      9  C   UNL     1      19.008   5.861  40.238  0.00  0.00    +0.000 A 
ATOM     10  C   UNL     1      18.260   7.041  40.210  0.00  0.00    +0.000 A 
BRANCH   4  12
ATOM     11  C   UNL     1      16.731   9.480  41.995  0.00  0.00    +0.000 C 
ATOM     12  O   UNL     1      16.545   8.408  41.077  0.00  0.00    +0.000 OA
ENDBRANCH   4  12
ENDBRANCH   1  10
BRANCH   2  13
ATOM     13  S   UNL     1      19.963  10.208  38.123  0.00  0.00    +0.000 S 
BRANCH  13  14
ATOM     14  C   UNL     1      18.725  10.327  36.841  0.00  0.00    +0.000 A 
ATOM     15  C   UNL     1      17.710  11.267  36.896  0.00  0.00    +0.000 A 
ATOM     16  C   UNL     1      16.747  11.371  35.912  0.00  0.00    +0.000 A 
ATOM     17  C   UNL     1      16.758  10.539  34.834  0.00  0.00    +0.000 A 
ATOM     18  O   UNL     1      15.835  10.578  33.810  0.00  0.00    +0.000 OA
ATOM     19  C   UNL     1      17.773   9.579  34.751  0.00  0.00    +0.000 A 
ATOM     20  C   UNL     1      18.729   9.489  35.744  0.00  0.00    +0.000 A 
ENDBRANCH  13  14
ENDBRANCH   2  13
TORSDOF 4
ENDMDL
MODEL 5
REMARK VINA RESULT:      -5.9     19.878     23.872
REMARK  Name = 
REMARK  4 active torsions:
REMARK  status: ('A' for Active; 'I' for Inactive)
REMARK    1  A    between atoms: O_2  and  C_3
REMARK    2  A    between atoms: C_9  and  N_10
REMARK    3  A    between atoms: C_11  and  S_13
REMARK    4  A    between atoms: S_13  and  C_14
REMARK                            x       y       z     vdW  Elec       q    Type
REMARK                         _______ _______ _______ _____ _____    ______ ____
ROOT
ATOM      1  N   UNL     1      34.223  -4.535  33.150  0.00  0.00    +0.000 NA
ATOM      2  C   UNL     1      32.982  -4.306  33.762  0.00  0.00    +0.000 C 
ATOM      3  O   UNL     1      32.045  -5.099  33.486  0.00  0.00    +0.000 OA
ENDROOT
BRANCH   1  10
ATOM      4  C   UNL     1      35.049  -6.787  32.617  0.00  0.00    +0.000 A 
ATOM      5  C   UNL     1      35.253  -7.748  31.659  0.00  0.00    +0.000 A 
ATOM      6  C   UNL     1      34.904  -7.554  30.329  0.00  0.00    +0.000 A 
ATOM      7  C   UNL     1      34.337  -6.364  29.971  0.00  0.00    +0.000 A 
ATOM      8  C   UNL     1      33.935  -6.093  28.548  0.00  0.00    +0.000 C 
ATOM      9  C   UNL     1      34.122  -5.387  30.913  0.00  0.00    +0.000 A 
ATOM     10  C   UNL     1      34.482  -5.599  32.247  0.00  0.00    +0.000 A 
BRANCH   4  12
ATOM     11  C   UNL     1      34.513  -7.534  34.903  0.00  0.00    +0.000 C 
ATOM     12  O   UNL     1      35.393  -6.970  33.936  0.00  0.00    +0.000 OA
ENDBRANCH   4  12
ENDBRANCH   1  10
BRANCH   2  13
ATOM     13  S   UNL     1      32.627  -2.984  34.893  0.00  0.00    +0.000 S 
BRANCH  13  14
ATOM     14  C   UNL     1      33.027  -1.386  34.205  0.00  0.00    +0.000 A 
ATOM     15  C   UNL     1      34.037  -1.228  33.271  0.00  0.00    +0.000 A 
ATOM     16  C   UNL     1      34.357   0.001  32.730  0.00  0.00    +0.000 A 
ATOM     17  C   UNL     1      33.681   1.124  33.101  0.00  0.00    +0.000 A 
ATOM     18  O   UNL     1      33.938   2.386  32.608  0.00  0.00    +0.000 OA
ATOM     19  C   UNL     1      32.654   0.995  34.043  0.00  0.00    +0.000 A 
ATOM     20  C   UNL     1      32.346  -0.243  34.574  0.00  0.00    +0.000 A 
ENDBRANCH  13  14
ENDBRANCH   2  13
TORSDOF 4
ENDMDL
MODEL 6
REMARK VINA RESULT:      -5.9      2.884      7.955
REMARK  Name = 
REMARK  4 active torsions:
REMARK  status: ('A' for Active; 'I' for Inactive)
REMARK    1  A    between atoms: O_2  and  C_3
REMARK    2  A    between atoms: C_9  and  N_10
REMARK    3  A    between atoms: C_11  and  S_13
REMARK    4  A    between atoms: S_13  and  C_14
REMARK                            x       y       z     vdW  Elec       q    Type
REMARK                         _______ _______ _______ _____ _____    ______ ____
ROOT
ATOM      1  N   UNL     1      20.478  10.964  37.624  0.00  0.00    +0.000 NA
ATOM      2  C   UNL     1      19.927   9.885  38.330  0.00  0.00    +0.000 C 
ATOM      3  O   UNL     1      20.688   9.249  39.104  0.00  0.00    +0.000 OA
ENDROOT
BRANCH   1  10
ATOM      4  C   UNL     1      22.261  12.356  38.583  0.00  0.00    +0.000 A 
ATOM      5  C   UNL     1      23.596  12.675  38.604  0.00  0.00    +0.000 A 
ATOM      6  C   UNL     1      24.522  12.038  37.791  0.00  0.00    +0.000 A 
ATOM      7  C   UNL     1      24.083  11.061  36.944  0.00  0.00    +0.000 A 
ATOM      8  C   UNL     1      25.036  10.333  36.038  0.00  0.00    +0.000 C 
ATOM      9  C   UNL     1      22.751  10.724  36.905  0.00  0.00    +0.000 A 
ATOM     10  C   UNL     1      21.832  11.377  37.731  0.00  0.00    +0.000 A 
BRANCH   4  12
ATOM     11  C   UNL     1      20.726  14.226  39.050  0.00  0.00    +0.000 C 
ATOM     12  O   UNL     1      21.335  12.983  39.385  0.00  0.00    +0.000 OA
ENDBRANCH   4  12
ENDBRANCH   1  10
BRANCH   2  13
ATOM     13  S   UNL     1      18.239   9.343  38.216  0.00  0.00    +0.000 S 
BRANCH  13  14
ATOM     14  C   UNL     1      17.422   9.991  36.766  0.00  0.00    +0.000 A 
ATOM     15  C   UNL     1      16.421  10.943  36.860  0.00  0.00    +0.000 A 
ATOM     16  C   UNL     1      15.781  11.454  35.749  0.00  0.00    +0.000 A 
ATOM     17  C   UNL     1      16.114  11.032  34.497  0.00  0.00    +0.000 A 
ATOM     18  O   UNL     1      15.525  11.491  33.337  0.00  0.00    +0.000 OA
ATOM     19  C   UNL     1      17.122  10.070  34.371  0.00  0.00    +0.000 A 
ATOM     20  C   UNL     1      17.754   9.570  35.494  0.00  0.00    +0.000 A 
ENDBRANCH  13  14
ENDBRANCH   2  13
TORSDOF 4
ENDMDL
MODEL 7
REMARK VINA RESULT:      -5.8     18.129     19.794
REMARK  Name = 
REMARK  4 active torsions:
REMARK  status: ('A' for Active; 'I' for Inactive)
REMARK    1  A    between atoms: O_2  and  C_3
REMARK    2  A    between atoms: C_9  and  N_10
REMARK    3  A    between atoms: C_11  and  S_13
REMARK    4  A    between atoms: S_13  and  C_14
REMARK                            x       y       z     vdW  Elec       q    Type
REMARK                         _______ _______ _______ _____ _____    ______ ____
ROOT
ATOM      1  N   UNL     1      28.498  23.609  28.020  0.00  0.00    +0.000 NA
ATOM      2  C   UNL     1      27.795  22.792  27.124  0.00  0.00    +0.000 C 
ATOM      3  O   UNL     1      27.934  21.548  27.242  0.00  0.00    +0.000 OA
ENDROOT
BRANCH   1  10
ATOM      4  C   UNL     1      28.952  22.932  30.337  0.00  0.00    +0.000 A 
ATOM      5  C   UNL     1      29.861  22.452  31.246  0.00  0.00    +0.000 A 
ATOM      6  C   UNL     1      31.170  22.151  30.895  0.00  0.00    +0.000 A 
ATOM      7  C   UNL     1      31.558  22.341  29.600  0.00  0.00    +0.000 A 
ATOM      8  C   UNL     1      32.961  22.034  29.156  0.00  0.00    +0.000 C 
ATOM      9  C   UNL     1      30.664  22.821  28.672  0.00  0.00    +0.000 A 
ATOM     10  C   UNL     1      29.351  23.119  29.044  0.00  0.00    +0.000 A 
BRANCH   4  12
ATOM     11  C   UNL     1      27.256  24.495  31.206  0.00  0.00    +0.000 C 
ATOM     12  O   UNL     1      27.653  23.233  30.677  0.00  0.00    +0.000 OA
ENDBRANCH   4  12
ENDBRANCH   1  10
BRANCH   2  13
ATOM     13  S   UNL     1      26.723  23.375  25.833  0.00  0.00    +0.000 S 
BRANCH  13  14
ATOM     14  C   UNL     1      27.612  23.701  24.319  0.00  0.00    +0.000 A 
ATOM     15  C   UNL     1      26.969  23.744  23.093  0.00  0.00    +0.000 A 
ATOM     16  C   UNL     1      27.642  23.996  21.915  0.00  0.00    +0.000 A 
ATOM     17  C   UNL     1      28.987  24.214  21.912  0.00  0.00    +0.000 A 
ATOM     18  O   UNL     1      29.733  24.471  20.781  0.00  0.00    +0.000 OA
ATOM     19  C   UNL     1      29.664  24.176  23.137  0.00  0.00    +0.000 A 
ATOM     20  C   UNL     1      28.974  23.924  24.307  0.00  0.00    +0.000 A 
ENDBRANCH  13  14
ENDBRANCH   2  13
TORSDOF 4
ENDMDL
MODEL 8
REMARK VINA RESULT:      -5.8      5.733      7.777
REMARK  Name = 
REMARK  4 active torsions:
REMARK  status: ('A' for Active; 'I' for Inactive)
REMARK    1  A    between atoms: O_2  and  C_3
REMARK    2  A    between atoms: C_9  and  N_10
REMARK    3  A    between atoms: C_11  and  S_13
REMARK    4  A    between atoms: S_13  and  C_14
REMARK                            x       y       z     vdW  Elec       q    Type
REMARK                         _______ _______ _______ _____ _____    ______ ____
ROOT
ATOM      1  N   UNL     1      19.265   9.176  40.056  0.00  0.00    +0.000 NA
ATOM      2  C   UNL     1      19.049   9.763  38.801  0.00  0.00    +0.000 C 
ATOM      3  O   UNL     1      18.237   9.194  38.027  0.00  0.00    +0.000 OA
ENDROOT
BRANCH   1  10
ATOM      4  C   UNL     1      17.422   7.970  41.144  0.00  0.00    +0.000 A 
ATOM      5  C   UNL     1      16.898   6.762  41.530  0.00  0.00    +0.000 A 
ATOM      6  C   UNL     1      17.549   5.561  41.288  0.00  0.00    +0.000 A 
ATOM      7  C   UNL     1      18.753   5.591  40.643  0.00  0.00    +0.000 A 
ATOM      8  C   UNL     1      19.509   4.324  40.350  0.00  0.00    +0.000 C 
ATOM      9  C   UNL     1      19.298   6.789  40.247  0.00  0.00    +0.000 A 
ATOM     10  C   UNL     1      18.628   7.988  40.500  0.00  0.00    +0.000 A 
BRANCH   4  12
ATOM     11  C   UNL     1      15.623   9.586  40.671  0.00  0.00    +0.000 C 
ATOM     12  O   UNL     1      16.784   9.166  41.381  0.00  0.00    +0.000 OA
ENDBRANCH   4  12
ENDBRANCH   1  10
BRANCH   2  13
ATOM     13  S   UNL     1      19.832  11.246  38.216  0.00  0.00    +0.000 S 
BRANCH  13  14
ATOM     14  C   UNL     1      21.475  10.936  37.588  0.00  0.00    +0.000 A 
ATOM     15  C   UNL     1      21.735   9.890  36.719  0.00  0.00    +0.000 A 
ATOM     16  C   UNL     1      22.999   9.638  36.226  0.00  0.00    +0.000 A 
ATOM     17  C   UNL     1      24.056  10.420  36.582  0.00  0.00    +0.000 A 
ATOM     18  O   UNL     1      25.348  10.236  36.135  0.00  0.00    +0.000 OA
ATOM     19  C   UNL     1      23.823  11.484  37.460  0.00  0.00    +0.000 A 
ATOM     20  C   UNL     1      22.551  11.723  37.943  0.00  0.00    +0.000 A 
ENDBRANCH  13  14
ENDBRANCH   2  13
TORSDOF 4
ENDMDL
MODEL 9
REMARK VINA RESULT:      -5.8     23.441     24.497
REMARK  Name = 
REMARK  4 active torsions:
REMARK  status: ('A' for Active; 'I' for Inactive)
REMARK    1  A    between atoms: O_2  and  C_3
REMARK    2  A    between atoms: C_9  and  N_10
REMARK    3  A    between atoms: C_11  and  S_13
REMARK    4  A    between atoms: S_13  and  C_14
REMARK                            x       y       z     vdW  Elec       q    Type
REMARK                         _______ _______ _______ _____ _____    ______ ____
ROOT
ATOM      1  N   UNL     1      29.166  25.685  22.604  0.00  0.00    +0.000 NA
ATOM      2  C   UNL     1      29.228  25.749  21.205  0.00  0.00    +0.000 C 
ATOM      3  O   UNL     1      29.777  24.790  20.604  0.00  0.00    +0.000 OA
ENDROOT
BRANCH   1  10
ATOM      4  C   UNL     1      29.036  23.417  23.539  0.00  0.00    +0.000 A 
ATOM      5  C   UNL     1      29.628  22.446  24.308  0.00  0.00    +0.000 A 
ATOM      6  C   UNL     1      30.857  22.637  24.924  0.00  0.00    +0.000 A 
ATOM      7  C   UNL     1      31.493  23.833  24.753  0.00  0.00    +0.000 A 
ATOM      8  C   UNL     1      32.826  24.102  25.393  0.00  0.00    +0.000 C 
ATOM      9  C   UNL     1      30.919  24.820  23.987  0.00  0.00    +0.000 A 
ATOM     10  C   UNL     1      29.681  24.611  23.376  0.00  0.00    +0.000 A 
BRANCH   4  12
ATOM     11  C   UNL     1      26.573  23.372  23.606  0.00  0.00    +0.000 C 
ATOM     12  O   UNL     1      27.817  23.237  22.926  0.00  0.00    +0.000 OA
ENDBRANCH   4  12
ENDBRANCH   1  10
BRANCH   2  13
ATOM     13  S   UNL     1      28.595  27.079  20.212  0.00  0.00    +0.000 S 
BRANCH  13  14
ATOM     14  C   UNL     1      29.882  27.892  19.279  0.00  0.00    +0.000 A 
ATOM     15  C   UNL     1      30.270  29.192  19.557  0.00  0.00    +0.000 A 
ATOM     16  C   UNL     1      31.264  29.834  18.845  0.00  0.00    +0.000 A 
ATOM     17  C   UNL     1      31.910  29.203  17.825  0.00  0.00    +0.000 A 
ATOM     18  O   UNL     1      32.911  29.772  17.066  0.00  0.00    +0.000 OA
ATOM     19  C   UNL     1      31.538  27.889  17.521  0.00  0.00    +0.000 A 
ATOM     20  C   UNL     1      30.542  27.261  18.245  0.00  0.00    +0.000 A 
ENDBRANCH  13  14
ENDBRANCH   2  13
TORSDOF 4
ENDMDL
MODEL 10
REMARK VINA RESULT:      -5.8     17.526     18.361
REMARK  Name = 
REMARK  4 active torsions:
REMARK  status: ('A' for Active; 'I' for Inactive)
REMARK    1  A    between atoms: O_2  and  C_3
REMARK    2  A    between atoms: C_9  and  N_10
REMARK    3  A    between atoms: C_11  and  S_13
REMARK    4  A    between atoms: S_13  and  C_14
REMARK                            x       y       z     vdW  Elec       q    Type
REMARK                         _______ _______ _______ _____ _____    ______ ____
ROOT
ATOM      1  N   UNL     1      28.422  22.358  27.446  0.00  0.00    +0.000 NA
ATOM      2  C   UNL     1      28.667  23.316  28.440  0.00  0.00    +0.000 C 
ATOM      3  O   UNL     1      28.817  24.509  28.071  0.00  0.00    +0.000 OA
ENDROOT
BRANCH   1  10
ATOM      4  C   UNL     1      29.418  22.742  25.233  0.00  0.00    +0.000 A 
ATOM      5  C   UNL     1      29.215  23.033  23.907  0.00  0.00    +0.000 A 
ATOM      6  C   UNL     1      27.948  23.237  23.379  0.00  0.00    +0.000 A 
ATOM      7  C   UNL     1      26.871  23.145  24.215  0.00  0.00    +0.000 A 
ATOM      8  C   UNL     1      25.473  23.356  23.705  0.00  0.00    +0.000 C 
ATOM      9  C   UNL     1      27.050  22.855  25.546  0.00  0.00    +0.000 A 
ATOM     10  C   UNL     1      28.333  22.653  26.060  0.00  0.00    +0.000 A 
BRANCH   4  12
ATOM     11  C   UNL     1      31.635  23.576  25.912  0.00  0.00    +0.000 C 
ATOM     12  O   UNL     1      30.670  22.539  25.765  0.00  0.00    +0.000 OA
ENDBRANCH   4  12
ENDBRANCH   1  10
BRANCH   2  13
ATOM     13  S   UNL     1      28.785  22.978  30.180  0.00  0.00    +0.000 S 
BRANCH  13  14
ATOM     14  C   UNL     1      30.372  22.289  30.624  0.00  0.00    +0.000 A 
ATOM     15  C   UNL     1      30.632  21.831  31.904  0.00  0.00    +0.000 A 
ATOM     16  C   UNL     1      31.853  21.295  32.262  0.00  0.00    +0.000 A 
ATOM     17  C   UNL     1      32.865  21.197  31.355  0.00  0.00    +0.000 A 
ATOM     18  O   UNL     1      34.112  20.675  31.631  0.00  0.00    +0.000 OA
ATOM     19  C   UNL     1      32.630  21.652  30.053  0.00  0.00    +0.000 A 
ATOM     20  C   UNL     1      31.402  22.185  29.711  0.00  0.00    +0.000 A 
ENDBRANCH  13  14
ENDBRANCH   2  13
TORSDOF 4
ENDMDL
