MODEL 1
REMARK VINA RESULT:      -8.2      0.000      0.000
REMARK  Name = 
REMARK  2 active torsions:
REMARK  status: ('A' for Active; 'I' for Inactive)
REMARK    1  A    between atoms: C_2  and  C_4
REMARK    2  A    between atoms: C_9  and  C_10
REMARK                            x       y       z     vdW  Elec       q    Type
REMARK                         _______ _______ _______ _____ _____    ______ ____
ROOT
ATOM      1  C   UNL     1      15.176  11.698  34.145  0.00  0.00    +0.000 A 
ATOM      2  C   UNL     1      15.963  10.664  33.574  0.00  0.00    +0.000 A 
ATOM      3  C   UNL     1      16.259  10.601  32.224  0.00  0.00    +0.000 A 
ATOM      4  C   UNL     1      15.740  11.610  31.406  0.00  0.00    +0.000 A 
ATOM      5  C   UNL     1      14.965  12.630  31.959  0.00  0.00    +0.000 A 
ATOM      6  C   UNL     1      14.467  13.618  31.159  0.00  0.00    +0.000 A 
ATOM      7  C   UNL     1      13.720  14.636  31.639  0.00  0.00    +0.000 A 
ATOM      8  C   UNL     1      13.429  14.714  33.014  0.00  0.00    +0.000 A 
ATOM      9  C   UNL     1      13.914  13.739  33.834  0.00  0.00    +0.000 A 
ATOM     10  C   UNL     1      14.684  12.679  33.337  0.00  0.00    +0.000 A 
ENDROOT
BRANCH   1  16
ATOM     11  C   UNL     1      15.946  11.430  36.506  0.00  0.00    +0.000 A 
ATOM     12  N   UNL     1      15.329  11.263  37.687  0.00  0.00    +0.000 NA
ATOM     13  C   UNL     1      13.982  11.281  37.428  0.00  0.00    +0.000 A 
ATOM     14  N   UNL     1      12.879  11.122  38.316  0.00  0.00    +0.000 NA
ATOM     15  O   UNL     1      13.816  11.463  36.125  0.00  0.00    +0.000 OA
ATOM     16  C   UNL     1      14.976  11.542  35.559  0.00  0.00    +0.000 A 
BRANCH  11  18
ATOM     17  C   UNL     1      18.203  10.395  36.606  0.00  0.00    +0.000 C 
ATOM     18  C   UNL     1      17.380  11.631  36.250  0.00  0.00    +0.000 C 
ATOM     19  C   UNL     1      17.915  12.663  37.317  0.00  0.00    +0.000 C 
ENDBRANCH  11  18
ENDBRANCH   1  16
TORSDOF 2
ENDMDL
MODEL 2
REMARK VINA RESULT:      -7.3     20.486     22.378
REMARK  Name = 
REMARK  2 active torsions:
REMARK  status: ('A' for Active; 'I' for Inactive)
REMARK    1  A    between atoms: C_2  and  C_4
REMARK    2  A    between atoms: C_9  and  C_10
REMARK                            x       y       z     vdW  Elec       q    Type
REMARK                         _______ _______ _______ _____ _____    ______ ____
ROOT
ATOM      1  C   UNL     1      18.438  -7.751  26.915  0.00  0.00    +0.000 A 
ATOM      2  C   UNL     1      17.824  -6.500  27.184  0.00  0.00    +0.000 A 
ATOM      3  C   UNL     1      18.375  -5.291  26.798  0.00  0.00    +0.000 A 
ATOM      4  C   UNL     1      19.598  -5.332  26.119  0.00  0.00    +0.000 A 
ATOM      5  C   UNL     1      20.209  -6.558  25.850  0.00  0.00    +0.000 A 
ATOM      6  C   UNL     1      21.397  -6.594  25.180  0.00  0.00    +0.000 A 
ATOM      7  C   UNL     1      22.030  -7.750  24.882  0.00  0.00    +0.000 A 
ATOM      8  C   UNL     1      21.466  -8.984  25.259  0.00  0.00    +0.000 A 
ATOM      9  C   UNL     1      20.280  -8.974  25.930  0.00  0.00    +0.000 A 
ATOM     10  C   UNL     1      19.625  -7.776  26.246  0.00  0.00    +0.000 A 
ENDROOT
BRANCH   1  16
ATOM     11  C   UNL     1      17.985  -9.570  28.567  0.00  0.00    +0.000 A 
ATOM     12  N   UNL     1      17.075 -10.551  28.664  0.00  0.00    +0.000 NA
ATOM     13  C   UNL     1      16.245 -10.421  27.579  0.00  0.00    +0.000 A 
ATOM     14  N   UNL     1      15.130 -11.214  27.181  0.00  0.00    +0.000 NA
ATOM     15  O   UNL     1      16.659  -9.381  26.868  0.00  0.00    +0.000 OA
ATOM     16  C   UNL     1      17.701  -8.869  27.436  0.00  0.00    +0.000 A 
BRANCH  11  18
ATOM     17  C   UNL     1      20.283 -10.003  29.408  0.00  0.00    +0.000 C 
ATOM     18  C   UNL     1      19.007  -9.177  29.549  0.00  0.00    +0.000 C 
ATOM     19  C   UNL     1      18.506  -9.644  30.971  0.00  0.00    +0.000 C 
ENDBRANCH  11  18
ENDBRANCH   1  16
TORSDOF 2
ENDMDL
MODEL 3
REMARK VINA RESULT:      -7.1     20.359     22.448
REMARK  Name = 
REMARK  2 active torsions:
REMARK  status: ('A' for Active; 'I' for Inactive)
REMARK    1  A    between atoms: C_2  and  C_4
REMARK    2  A    between atoms: C_9  and  C_10
REMARK                            x       y       z     vdW  Elec       q    Type
REMARK                         _______ _______ _______ _____ _____    ______ ____
ROOT
ATOM      1  C   UNL     1      18.662  -7.608  27.099  0.00  0.00    +0.000 A 
ATOM      2  C   UNL     1      18.011  -6.354  27.230  0.00  0.00    +0.000 A 
ATOM      3  C   UNL     1      18.498  -5.190  26.663  0.00  0.00    +0.000 A 
ATOM      4  C   UNL     1      19.693  -5.280  25.939  0.00  0.00    +0.000 A 
ATOM      5  C   UNL     1      20.339  -6.510  25.806  0.00  0.00    +0.000 A 
ATOM      6  C   UNL     1      21.499  -6.596  25.092  0.00  0.00    +0.000 A 
ATOM      7  C   UNL     1      22.163  -7.760  24.919  0.00  0.00    +0.000 A 
ATOM      8  C   UNL     1      21.663  -8.950  25.480  0.00  0.00    +0.000 A 
ATOM      9  C   UNL     1      20.506  -8.890  26.199  0.00  0.00    +0.000 A 
ATOM     10  C   UNL     1      19.820  -7.683  26.384  0.00  0.00    +0.000 A 
ENDROOT
BRANCH   1  16
ATOM     11  C   UNL     1      17.018  -9.479  27.294  0.00  0.00    +0.000 A 
ATOM     12  N   UNL     1      16.639 -10.304  28.283  0.00  0.00    +0.000 NA
ATOM     13  C   UNL     1      17.401  -9.976  29.376  0.00  0.00    +0.000 A 
ATOM     14  N   UNL     1      17.389 -10.519  30.694  0.00  0.00    +0.000 NA
ATOM     15  O   UNL     1      18.213  -8.987  29.029  0.00  0.00    +0.000 OA
ATOM     16  C   UNL     1      17.990  -8.671  27.796  0.00  0.00    +0.000 A 
BRANCH  11  18
ATOM     17  C   UNL     1      15.500  -8.514  25.579  0.00  0.00    +0.000 C 
ATOM     18  C   UNL     1      16.616  -9.512  25.880  0.00  0.00    +0.000 C 
ATOM     19  C   UNL     1      15.870 -10.879  25.627  0.00  0.00    +0.000 C 
ENDBRANCH  11  18
ENDBRANCH   1  16
TORSDOF 2
ENDMDL
MODEL 4
REMARK VINA RESULT:      -7.1     17.439     18.461
REMARK  Name = 
REMARK  2 active torsions:
REMARK  status: ('A' for Active; 'I' for Inactive)
REMARK    1  A    between atoms: C_2  and  C_4
REMARK    2  A    between atoms: C_9  and  C_10
REMARK                            x       y       z     vdW  Elec       q    Type
REMARK                         _______ _______ _______ _____ _____    ______ ____
ROOT
ATOM      1  C   UNL     1      28.534  22.762  27.626  0.00  0.00    +0.000 A 
ATOM      2  C   UNL     1      29.867  22.578  28.078  0.00  0.00    +0.000 A 
ATOM      3  C   UNL     1      30.952  22.518  27.221  0.00  0.00    +0.000 A 
ATOM      4  C   UNL     1      30.694  22.638  25.851  0.00  0.00    +0.000 A 
ATOM      5  C   UNL     1      29.386  22.818  25.398  0.00  0.00    +0.000 A 
ATOM      6  C   UNL     1      29.139  22.943  24.062  0.00  0.00    +0.000 A 
ATOM      7  C   UNL     1      27.896  23.131  23.565  0.00  0.00    +0.000 A 
ATOM      8  C   UNL     1      26.791  23.209  24.434  0.00  0.00    +0.000 A 
ATOM      9  C   UNL     1      27.012  23.086  25.773  0.00  0.00    +0.000 A 
ATOM     10  C   UNL     1      28.299  22.886  26.290  0.00  0.00    +0.000 A 
ENDROOT
BRANCH   1  16
ATOM     11  C   UNL     1      26.969  23.856  29.236  0.00  0.00    +0.000 A 
ATOM     12  N   UNL     1      26.173  23.418  30.224  0.00  0.00    +0.000 NA
ATOM     13  C   UNL     1      26.306  22.053  30.255  0.00  0.00    +0.000 A 
ATOM     14  N   UNL     1      25.707  21.096  31.125  0.00  0.00    +0.000 NA
ATOM     15  O   UNL     1      27.157  21.702  29.301  0.00  0.00    +0.000 OA
ATOM     16  C   UNL     1      27.570  22.764  28.692  0.00  0.00    +0.000 A 
BRANCH  11  18
ATOM     17  C   UNL     1      27.347  26.249  29.789  0.00  0.00    +0.000 C 
ATOM     18  C   UNL     1      27.079  25.219  28.694  0.00  0.00    +0.000 C 
ATOM     19  C   UNL     1      25.642  25.660  28.215  0.00  0.00    +0.000 C 
ENDBRANCH  11  18
ENDBRANCH   1  16
TORSDOF 2
ENDMDL
MODEL 5
REMARK VINA RESULT:      -6.8      9.298     10.675
REMARK  Name = 
REMARK  2 active torsions:
REMARK  status: ('A' for Active; 'I' for Inactive)
REMARK    1  A    between atoms: C_2  and  C_4
REMARK    2  A    between atoms: C_9  and  C_10
REMARK                            x       y       z     vdW  Elec       q    Type
REMARK                         _______ _______ _______ _____ _____    ______ ____
ROOT
ATOM      1  C   UNL     1      18.562  21.541  35.185  0.00  0.00    +0.000 A 
ATOM      2  C   UNL     1      18.787  20.685  34.076  0.00  0.00    +0.000 A 
ATOM      3  C   UNL     1      17.847  20.475  33.082  0.00  0.00    +0.000 A 
ATOM      4  C   UNL     1      16.624  21.143  33.206  0.00  0.00    +0.000 A 
ATOM      5  C   UNL     1      16.394  21.987  34.293  0.00  0.00    +0.000 A 
ATOM      6  C   UNL     1      15.203  22.644  34.405  0.00  0.00    +0.000 A 
ATOM      7  C   UNL     1      14.927  23.482  35.429  0.00  0.00    +0.000 A 
ATOM      8  C   UNL     1      15.886  23.711  36.434  0.00  0.00    +0.000 A 
ATOM      9  C   UNL     1      17.084  23.066  36.345  0.00  0.00    +0.000 A 
ATOM     10  C   UNL     1      17.369  22.192  35.287  0.00  0.00    +0.000 A 
ENDROOT
BRANCH   1  16
ATOM     11  C   UNL     1      19.712  21.014  37.339  0.00  0.00    +0.000 A 
ATOM     12  N   UNL     1      20.904  21.324  37.873  0.00  0.00    +0.000 NA
ATOM     13  C   UNL     1      21.564  22.080  36.938  0.00  0.00    +0.000 A 
ATOM     14  N   UNL     1      22.851  22.690  37.000  0.00  0.00    +0.000 NA
ATOM     15  O   UNL     1      20.778  22.202  35.877  0.00  0.00    +0.000 OA
ATOM     16  C   UNL     1      19.666  21.582  36.104  0.00  0.00    +0.000 A 
BRANCH  11  18
ATOM     17  C   UNL     1      17.962  20.695  39.074  0.00  0.00    +0.000 C 
ATOM     18  C   UNL     1      18.689  20.101  37.869  0.00  0.00    +0.000 C 
ATOM     19  C   UNL     1      19.436  18.884  38.542  0.00  0.00    +0.000 C 
ENDBRANCH  11  18
ENDBRANCH   1  16
TORSDOF 2
ENDMDL
MODEL 6
REMARK VINA RESULT:      -6.8      4.661      8.504
REMARK  Name = 
REMARK  2 active torsions:
REMARK  status: ('A' for Active; 'I' for Inactive)
REMARK    1  A    between atoms: C_2  and  C_4
REMARK    2  A    between atoms: C_9  and  C_10
REMARK                            x       y       z     vdW  Elec       q    Type
REMARK                         _______ _______ _______ _____ _____    ______ ____
ROOT
ATOM      1  C   UNL     1      17.724   9.180  40.079  0.00  0.00    +0.000 A 
ATOM      2  C   UNL     1      16.490   9.771  40.458  0.00  0.00    +0.000 A 
ATOM      3  C   UNL     1      15.508   9.086  41.150  0.00  0.00    +0.000 A 
ATOM      4  C   UNL     1      15.764   7.748  41.472  0.00  0.00    +0.000 A 
ATOM      5  C   UNL     1      16.974   7.159  41.103  0.00  0.00    +0.000 A 
ATOM      6  C   UNL     1      17.224   5.857  41.426  0.00  0.00    +0.000 A 
ATOM      7  C   UNL     1      18.381   5.237  41.106  0.00  0.00    +0.000 A 
ATOM      8  C   UNL     1      19.391   5.934  40.416  0.00  0.00    +0.000 A 
ATOM      9  C   UNL     1      19.165   7.236  40.081  0.00  0.00    +0.000 A 
ATOM     10  C   UNL     1      17.963   7.879  40.407  0.00  0.00    +0.000 A 
ENDROOT
BRANCH   1  16
ATOM     11  C   UNL     1      18.616  10.224  37.992  0.00  0.00    +0.000 A 
ATOM     12  N   UNL     1      19.576  11.122  37.722  0.00  0.00    +0.000 NA
ATOM     13  C   UNL     1      20.104  11.502  38.930  0.00  0.00    +0.000 A 
ATOM     14  N   UNL     1      21.165  12.409  39.219  0.00  0.00    +0.000 NA
ATOM     15  O   UNL     1      19.461  10.845  39.885  0.00  0.00    +0.000 OA
ATOM     16  C   UNL     1      18.578  10.072  39.344  0.00  0.00    +0.000 A 
BRANCH  11  18
ATOM     17  C   UNL     1      18.263   9.358  35.690  0.00  0.00    +0.000 C 
ATOM     18  C   UNL     1      17.649   9.621  37.063  0.00  0.00    +0.000 C 
ATOM     19  C   UNL     1      16.578  10.723  36.706  0.00  0.00    +0.000 C 
ENDBRANCH  11  18
ENDBRANCH   1  16
TORSDOF 2
ENDMDL
MODEL 7
REMARK VINA RESULT:      -6.6     20.705     22.433
REMARK  Name = 
REMARK  2 active torsions:
REMARK  status: ('A' for Active; 'I' for Inactive)
REMARK    1  A    between atoms: C_2  and  C_4
REMARK    2  A    between atoms: C_9  and  C_10
REMARK                            x       y       z     vdW  Elec       q    Type
REMARK                         _______ _______ _______ _____ _____    ______ ____
ROOT
ATOM      1  C   UNL     1      18.944  -9.010  26.847  0.00  0.00    +0.000 A 
ATOM      2  C   UNL     1      19.907  -9.859  26.242  0.00  0.00    +0.000 A 
ATOM      3  C   UNL     1      20.944  -9.384  25.459  0.00  0.00    +0.000 A 
ATOM      4  C   UNL     1      21.020  -8.000  25.266  0.00  0.00    +0.000 A 
ATOM      5  C   UNL     1      20.077  -7.158  25.857  0.00  0.00    +0.000 A 
ATOM      6  C   UNL     1      20.159  -5.808  25.673  0.00  0.00    +0.000 A 
ATOM      7  C   UNL     1      19.282  -4.943  26.228  0.00  0.00    +0.000 A 
ATOM      8  C   UNL     1      18.234  -5.419  27.038  0.00  0.00    +0.000 A 
ATOM      9  C   UNL     1      18.131  -6.764  27.237  0.00  0.00    +0.000 A 
ATOM     10  C   UNL     1      19.035  -7.663  26.657  0.00  0.00    +0.000 A 
ENDROOT
BRANCH   1  16
ATOM     11  C   UNL     1      18.002 -10.067  28.905  0.00  0.00    +0.000 A 
ATOM     12  N   UNL     1      16.886 -10.758  29.185  0.00  0.00    +0.000 NA
ATOM     13  C   UNL     1      16.163 -10.818  28.021  0.00  0.00    +0.000 A 
ATOM     14  N   UNL     1      14.916 -11.453  27.751  0.00  0.00    +0.000 NA
ATOM     15  O   UNL     1      16.841 -10.170  27.083  0.00  0.00    +0.000 OA
ATOM     16  C   UNL     1      17.943  -9.726  27.590  0.00  0.00    +0.000 A 
BRANCH  11  18
ATOM     17  C   UNL     1      20.238 -10.539  29.882  0.00  0.00    +0.000 C 
ATOM     18  C   UNL     1      19.037  -9.596  29.838  0.00  0.00    +0.000 C 
ATOM     19  C   UNL     1      18.473  -9.762  31.302  0.00  0.00    +0.000 C 
ENDBRANCH  11  18
ENDBRANCH   1  16
TORSDOF 2
ENDMDL
MODEL 8
REMARK VINA RESULT:      -6.5     19.843     21.030
REMARK  Name = 
REMARK  2 active torsions:
REMARK  status: ('A' for Active; 'I' for Inactive)
REMARK    1  A    between atoms: C_2  and  C_4
REMARK    2  A    between atoms: C_9  and  C_10
REMARK                            x       y       z     vdW  Elec       q    Type
REMARK                         _______ _______ _______ _____ _____    ______ ____
ROOT
ATOM      1  C   UNL     1      29.411  23.923  24.609  0.00  0.00    +0.000 A 
ATOM      2  C   UNL     1      30.282  22.809  24.495  0.00  0.00    +0.000 A 
ATOM      3  C   UNL     1      31.659  22.916  24.580  0.00  0.00    +0.000 A 
ATOM      4  C   UNL     1      32.191  24.195  24.780  0.00  0.00    +0.000 A 
ATOM      5  C   UNL     1      31.342  25.297  24.894  0.00  0.00    +0.000 A 
ATOM      6  C   UNL     1      31.864  26.541  25.098  0.00  0.00    +0.000 A 
ATOM      7  C   UNL     1      31.092  27.643  25.227  0.00  0.00    +0.000 A 
ATOM      8  C   UNL     1      29.690  27.536  25.157  0.00  0.00    +0.000 A 
ATOM      9  C   UNL     1      29.144  26.304  24.952  0.00  0.00    +0.000 A 
ATOM     10  C   UNL     1      29.943  25.162  24.813  0.00  0.00    +0.000 A 
ENDROOT
BRANCH   1  16
ATOM     11  C   UNL     1      27.142  23.321  25.463  0.00  0.00    +0.000 A 
ATOM     12  N   UNL     1      25.972  23.002  24.888  0.00  0.00    +0.000 NA
ATOM     13  C   UNL     1      26.171  23.076  23.533  0.00  0.00    +0.000 A 
ATOM     14  N   UNL     1      25.269  22.811  22.461  0.00  0.00    +0.000 NA
ATOM     15  O   UNL     1      27.429  23.437  23.321  0.00  0.00    +0.000 OA
ATOM     16  C   UNL     1      28.025  23.577  24.459  0.00  0.00    +0.000 A 
BRANCH  11  18
ATOM     17  C   UNL     1      27.930  22.264  27.569  0.00  0.00    +0.000 C 
ATOM     18  C   UNL     1      27.426  23.535  26.889  0.00  0.00    +0.000 C 
ATOM     19  C   UNL     1      26.045  23.739  27.626  0.00  0.00    +0.000 C 
ENDBRANCH  11  18
ENDBRANCH   1  16
TORSDOF 2
ENDMDL
MODEL 9
REMARK VINA RESULT:      -6.4     20.868     22.777
REMARK  Name = 
REMARK  2 active torsions:
REMARK  status: ('A' for Active; 'I' for Inactive)
REMARK    1  A    between atoms: C_2  and  C_4
REMARK    2  A    between atoms: C_9  and  C_10
REMARK                            x       y       z     vdW  Elec       q    Type
REMARK                         _______ _______ _______ _____ _____    ______ ____
ROOT
ATOM      1  C   UNL     1      25.333   4.064  17.054  0.00  0.00    +0.000 A 
ATOM      2  C   UNL     1      24.146   4.376  17.767  0.00  0.00    +0.000 A 
ATOM      3  C   UNL     1      23.394   3.423  18.431  0.00  0.00    +0.000 A 
ATOM      4  C   UNL     1      23.842   2.099  18.374  0.00  0.00    +0.000 A 
ATOM      5  C   UNL     1      25.008   1.783  17.675  0.00  0.00    +0.000 A 
ATOM      6  C   UNL     1      25.446   0.492  17.628  0.00  0.00    +0.000 A 
ATOM      7  C   UNL     1      26.573   0.128  16.977  0.00  0.00    +0.000 A 
ATOM      8  C   UNL     1      27.350   1.096  16.313  0.00  0.00    +0.000 A 
ATOM      9  C   UNL     1      26.933   2.393  16.344  0.00  0.00    +0.000 A 
ATOM     10  C   UNL     1      25.762   2.771  17.014  0.00  0.00    +0.000 A 
ENDROOT
BRANCH   1  16
ATOM     11  C   UNL     1      26.816   6.073  16.982  0.00  0.00    +0.000 A 
ATOM     12  N   UNL     1      27.088   7.013  16.063  0.00  0.00    +0.000 NA
ATOM     13  C   UNL     1      26.356   6.691  14.949  0.00  0.00    +0.000 A 
ATOM     14  N   UNL     1      26.253   7.365  13.697  0.00  0.00    +0.000 NA
ATOM     15  O   UNL     1      25.676   5.583  15.209  0.00  0.00    +0.000 OA
ATOM     16  C   UNL     1      25.930   5.207  16.420  0.00  0.00    +0.000 A 
BRANCH  11  18
ATOM     17  C   UNL     1      27.879   7.194  18.928  0.00  0.00    +0.000 C 
ATOM     18  C   UNL     1      27.451   5.873  18.293  0.00  0.00    +0.000 C 
ATOM     19  C   UNL     1      28.853   5.192  18.046  0.00  0.00    +0.000 C 
ENDBRANCH  11  18
ENDBRANCH   1  16
TORSDOF 2
ENDMDL
MODEL 10
REMARK VINA RESULT:      -6.4     18.474     19.938
REMARK  Name = 
REMARK  2 active torsions:
REMARK  status: ('A' for Active; 'I' for Inactive)
REMARK    1  A    between atoms: C_2  and  C_4
REMARK    2  A    between atoms: C_9  and  C_10
REMARK                            x       y       z     vdW  Elec       q    Type
REMARK                         _______ _______ _______ _____ _____    ______ ____
ROOT
ATOM      1  C   UNL     1      27.347  23.382  26.659  0.00  0.00    +0.000 A 
ATOM      2  C   UNL     1      26.316  23.502  27.627  0.00  0.00    +0.000 A 
ATOM      3  C   UNL     1      26.517  23.264  28.975  0.00  0.00    +0.000 A 
ATOM      4  C   UNL     1      27.803  22.881  29.374  0.00  0.00    +0.000 A 
ATOM      5  C   UNL     1      28.822  22.761  28.428  0.00  0.00    +0.000 A 
ATOM      6  C   UNL     1      30.077  22.396  28.822  0.00  0.00    +0.000 A 
ATOM      7  C   UNL     1      31.106  22.274  27.955  0.00  0.00    +0.000 A 
ATOM      8  C   UNL     1      30.911  22.531  26.584  0.00  0.00    +0.000 A 
ATOM      9  C   UNL     1      29.666  22.896  26.166  0.00  0.00    +0.000 A 
ATOM     10  C   UNL     1      28.597  23.017  27.063  0.00  0.00    +0.000 A 
ENDROOT
BRANCH   1  16
ATOM     11  C   UNL     1      27.033  24.821  24.641  0.00  0.00    +0.000 A 
ATOM     12  N   UNL     1      26.449  24.654  23.444  0.00  0.00    +0.000 NA
ATOM     13  C   UNL     1      25.971  23.368  23.421  0.00  0.00    +0.000 A 
ATOM     14  N   UNL     1      25.247  22.681  22.404  0.00  0.00    +0.000 NA
ATOM     15  O   UNL     1      26.278  22.795  24.576  0.00  0.00    +0.000 OA
ATOM     16  C   UNL     1      26.901  23.649  25.319  0.00  0.00    +0.000 A 
BRANCH  11  18
ATOM     17  C   UNL     1      27.143  27.298  24.810  0.00  0.00    +0.000 C 
ATOM     18  C   UNL     1      27.826  25.966  25.113  0.00  0.00    +0.000 C 
ATOM     19  C   UNL     1      29.106  26.072  24.196  0.00  0.00    +0.000 C 
ENDBRANCH  11  18
ENDBRANCH   1  16
TORSDOF 2
ENDMDL
