MODEL 1
REMARK VINA RESULT:      -6.6      0.000      0.000
REMARK  Name = 
REMARK  9 active torsions:
REMARK  status: ('A' for Active; 'I' for Inactive)
REMARK    1  A    between atoms: C_9  and  C_10
REMARK    2  A    between atoms: C_13  and  O_14
REMARK    3  A    between atoms: O_14  and  C_15
REMARK    4  A    between atoms: C_15  and  C_16
REMARK    5  A    between atoms: C_16  and  C_17
REMARK    6  A    between atoms: C_17  and  C_18
REMARK    7  A    between atoms: C_18  and  C_19
REMARK    8  A    between atoms: C_23  and  C_24
REMARK    9  A    between atoms: N_26  and  C_27
REMARK                            x       y       z     vdW  Elec       q    Type
REMARK                         _______ _______ _______ _____ _____    ______ ____
ROOT
ATOM      1  C   UNL     1      42.000  -3.336  13.084  0.00  0.00    +0.000 C 
ATOM      2  C   UNL     1      41.308  -2.760  14.019  0.00  0.00    +0.000 C 
ATOM      3  N   UNL     1      41.065  -3.254  15.339  0.00  0.00    +0.000 NA
ATOM      4  C   UNL     1      39.722  -2.988  15.788  0.00  0.00    +0.000 A 
ATOM      5  N   UNL     1      39.168  -3.264  16.982  0.00  0.00    +0.000 NA
ATOM      6  C   UNL     1      37.912  -2.798  16.972  0.00  0.00    +0.000 A 
ATOM      7  N   UNL     1      37.686  -2.233  15.773  0.00  0.00    +0.000 NA
ATOM      8  N   UNL     1      38.827  -2.374  15.073  0.00  0.00    +0.000 N 
ATOM      9  C   UNL     1      39.053  -1.949  13.612  0.00  0.00    +0.000 C 
ATOM     10  C   UNL     1      40.622  -1.343  13.775  0.00  0.00    +0.000 C 
ENDROOT
BRANCH   9  11
ATOM     11  C   UNL     1      38.318  -0.535  13.678  0.00  0.00    +0.000 A 
ATOM     12  C   UNL     1      37.268  -0.215  12.944  0.00  0.00    +0.000 A 
ATOM     13  C   UNL     1      36.667   1.009  13.028  0.00  0.00    +0.000 A 
ATOM     14  C   UNL     1      37.169   1.939  13.902  0.00  0.00    +0.000 A 
ATOM     15  C   UNL     1      38.264   1.601  14.664  0.00  0.00    +0.000 A 
ATOM     16  C   UNL     1      38.858   0.368  14.571  0.00  0.00    +0.000 A 
BRANCH  14  17
ATOM     17  O   UNL     1      36.586   3.222  14.030  0.00  0.00    +0.000 OA
BRANCH  17  18
ATOM     18  C   UNL     1      36.022   3.553  15.284  0.00  0.00    +0.000 C 
BRANCH  18  19
ATOM     19  C   UNL     1      34.739   2.741  15.467  0.00  0.00    +0.000 C 
BRANCH  19  20
ATOM     20  C   UNL     1      34.845   1.865  16.687  0.00  0.00    +0.000 C 
BRANCH  20  21
ATOM     21  C   UNL     1      35.231   0.443  16.338  0.00  0.00    +0.000 C 
BRANCH  21  22
ATOM     22  C   UNL     1      35.052  -0.406  17.576  0.00  0.00    +0.000 C 
ATOM     23  C   UNL     1      34.094  -1.536  17.348  0.00  0.00    +0.000 C 
ENDBRANCH  21  22
ENDBRANCH  20  21
ENDBRANCH  19  20
ENDBRANCH  18  19
ENDBRANCH  17  18
ENDBRANCH  14  17
ENDBRANCH   9  11
BRANCH  10  24
ATOM     24  C   UNL     1      40.911  -1.221  12.225  0.00  0.00    +0.000 C 
ATOM     25  O   UNL     1      41.915  -0.539  11.889  0.00  0.00    +0.000 OA
ATOM     26  N   UNL     1      40.122  -1.820  11.281  0.00  0.00    +0.000 NA
BRANCH  26  27
ATOM     27  C   UNL     1      40.328  -1.749   9.878  0.00  0.00    +0.000 A 
ATOM     28  C   UNL     1      40.775  -2.874   9.224  0.00  0.00    +0.000 A 
ATOM     29  C   UNL     1      40.995  -2.862   7.844  0.00  0.00    +0.000 A 
ATOM     30  C   UNL     1      40.773  -1.736   7.099  0.00  0.00    +0.000 A 
ATOM     31  C   UNL     1      40.328  -0.608   7.743  0.00  0.00    +0.000 A 
ATOM     32  C   UNL     1      40.110  -0.625   9.118  0.00  0.00    +0.000 A 
ENDBRANCH  26  27
ENDBRANCH  10  24
TORSDOF 9
ENDMDL
MODEL 2
REMARK VINA RESULT:      -6.5      3.108      7.085
REMARK  Name = 
REMARK  9 active torsions:
REMARK  status: ('A' for Active; 'I' for Inactive)
REMARK    1  A    between atoms: C_9  and  C_10
REMARK    2  A    between atoms: C_13  and  O_14
REMARK    3  A    between atoms: O_14  and  C_15
REMARK    4  A    between atoms: C_15  and  C_16
REMARK    5  A    between atoms: C_16  and  C_17
REMARK    6  A    between atoms: C_17  and  C_18
REMARK    7  A    between atoms: C_18  and  C_19
REMARK    8  A    between atoms: C_23  and  C_24
REMARK    9  A    between atoms: N_26  and  C_27
REMARK                            x       y       z     vdW  Elec       q    Type
REMARK                         _______ _______ _______ _____ _____    ______ ____
ROOT
ATOM      1  C   UNL     1      34.849   1.012  16.795  0.00  0.00    +0.000 C 
ATOM      2  C   UNL     1      35.634   1.880  16.235  0.00  0.00    +0.000 C 
ATOM      3  N   UNL     1      35.372   3.269  16.025  0.00  0.00    +0.000 NA
ATOM      4  C   UNL     1      35.860   3.736  14.752  0.00  0.00    +0.000 A 
ATOM      5  N   UNL     1      35.830   4.984  14.250  0.00  0.00    +0.000 NA
ATOM      6  C   UNL     1      36.437   4.962  13.056  0.00  0.00    +0.000 A 
ATOM      7  N   UNL     1      36.843   3.703  12.817  0.00  0.00    +0.000 NA
ATOM      8  N   UNL     1      36.466   2.980  13.886  0.00  0.00    +0.000 N 
ATOM      9  C   UNL     1      36.643   1.461  14.062  0.00  0.00    +0.000 C 
ATOM     10  C   UNL     1      37.072   1.455  15.697  0.00  0.00    +0.000 C 
ENDROOT
BRANCH   9  11
ATOM     11  C   UNL     1      38.129   1.345  13.496  0.00  0.00    +0.000 A 
ATOM     12  C   UNL     1      38.449   0.685  12.398  0.00  0.00    +0.000 A 
ATOM     13  C   UNL     1      39.737   0.607  11.947  0.00  0.00    +0.000 A 
ATOM     14  C   UNL     1      40.731   1.233  12.654  0.00  0.00    +0.000 A 
ATOM     15  C   UNL     1      40.391   1.919  13.798  0.00  0.00    +0.000 A 
ATOM     16  C   UNL     1      39.095   1.990  14.241  0.00  0.00    +0.000 A 
BRANCH  14  17
ATOM     17  O   UNL     1      42.080   1.185  12.232  0.00  0.00    +0.000 OA
BRANCH  17  18
ATOM     18  C   UNL     1      43.043   0.782  13.188  0.00  0.00    +0.000 C 
BRANCH  18  19
ATOM     19  C   UNL     1      43.392  -0.685  12.934  0.00  0.00    +0.000 C 
BRANCH  19  20
ATOM     20  C   UNL     1      42.679  -1.570  13.922  0.00  0.00    +0.000 C 
BRANCH  20  21
ATOM     21  C   UNL     1      41.816  -2.610  13.239  0.00  0.00    +0.000 C 
BRANCH  21  22
ATOM     22  C   UNL     1      40.415  -2.488  13.790  0.00  0.00    +0.000 C 
ATOM     23  C   UNL     1      40.364  -1.615  15.008  0.00  0.00    +0.000 C 
ENDBRANCH  21  22
ENDBRANCH  20  21
ENDBRANCH  19  20
ENDBRANCH  18  19
ENDBRANCH  17  18
ENDBRANCH  14  17
ENDBRANCH   9  11
BRANCH  10  24
ATOM     24  C   UNL     1      36.931  -0.108  15.896  0.00  0.00    +0.000 C 
ATOM     25  O   UNL     1      37.538  -0.609  16.878  0.00  0.00    +0.000 OA
ATOM     26  N   UNL     1      36.189  -0.891  15.055  0.00  0.00    +0.000 NA
BRANCH  26  27
ATOM     27  C   UNL     1      36.023  -2.296  15.179  0.00  0.00    +0.000 A 
ATOM     28  C   UNL     1      34.889  -2.769  15.798  0.00  0.00    +0.000 A 
ATOM     29  C   UNL     1      34.671  -4.141  15.949  0.00  0.00    +0.000 A 
ATOM     30  C   UNL     1      35.576  -5.058  15.487  0.00  0.00    +0.000 A 
ATOM     31  C   UNL     1      36.712  -4.595  14.868  0.00  0.00    +0.000 A 
ATOM     32  C   UNL     1      36.924  -3.227  14.721  0.00  0.00    +0.000 A 
ENDBRANCH  26  27
ENDBRANCH  10  24
TORSDOF 9
ENDMDL
MODEL 3
REMARK VINA RESULT:      -6.5      2.024      6.805
REMARK  Name = 
REMARK  9 active torsions:
REMARK  status: ('A' for Active; 'I' for Inactive)
REMARK    1  A    between atoms: C_9  and  C_10
REMARK    2  A    between atoms: C_13  and  O_14
REMARK    3  A    between atoms: O_14  and  C_15
REMARK    4  A    between atoms: C_15  and  C_16
REMARK    5  A    between atoms: C_16  and  C_17
REMARK    6  A    between atoms: C_17  and  C_18
REMARK    7  A    between atoms: C_18  and  C_19
REMARK    8  A    between atoms: C_23  and  C_24
REMARK    9  A    between atoms: N_26  and  C_27
REMARK                            x       y       z     vdW  Elec       q    Type
REMARK                         _______ _______ _______ _____ _____    ______ ____
ROOT
ATOM      1  C   UNL     1      35.213   0.922  16.484  0.00  0.00    +0.000 C 
ATOM      2  C   UNL     1      35.566  -0.229  16.000  0.00  0.00    +0.000 C 
ATOM      3  N   UNL     1      35.123  -1.518  16.433  0.00  0.00    +0.000 NA
ATOM      4  C   UNL     1      36.181  -2.496  16.426  0.00  0.00    +0.000 A 
ATOM      5  N   UNL     1      36.113  -3.806  16.722  0.00  0.00    +0.000 NA
ATOM      6  C   UNL     1      37.330  -4.334  16.537  0.00  0.00    +0.000 A 
ATOM      7  N   UNL     1      38.153  -3.353  16.126  0.00  0.00    +0.000 NA
ATOM      8  N   UNL     1      37.405  -2.237  16.073  0.00  0.00    +0.000 N 
ATOM      9  C   UNL     1      37.907  -0.825  15.721  0.00  0.00    +0.000 C 
ATOM     10  C   UNL     1      36.591  -0.327  14.785  0.00  0.00    +0.000 C 
ENDROOT
BRANCH   9  11
ATOM     11  C   UNL     1      38.846  -1.224  14.496  0.00  0.00    +0.000 A 
ATOM     12  C   UNL     1      38.425  -1.874  13.426  0.00  0.00    +0.000 A 
ATOM     13  C   UNL     1      39.263  -2.198  12.397  0.00  0.00    +0.000 A 
ATOM     14  C   UNL     1      40.585  -1.840  12.474  0.00  0.00    +0.000 A 
ATOM     15  C   UNL     1      41.017  -1.164  13.592  0.00  0.00    +0.000 A 
ATOM     16  C   UNL     1      40.167  -0.843  14.618  0.00  0.00    +0.000 A 
BRANCH  14  17
ATOM     17  O   UNL     1      41.495  -2.152  11.437  0.00  0.00    +0.000 OA
BRANCH  17  18
ATOM     18  C   UNL     1      41.124  -1.790  10.121  0.00  0.00    +0.000 C 
BRANCH  18  19
ATOM     19  C   UNL     1      41.835  -0.486   9.758  0.00  0.00    +0.000 C 
BRANCH  19  20
ATOM     20  C   UNL     1      40.933   0.691  10.023  0.00  0.00    +0.000 C 
BRANCH  20  21
ATOM     21  C   UNL     1      39.522   0.453   9.527  0.00  0.00    +0.000 C 
BRANCH  21  22
ATOM     22  C   UNL     1      38.568   0.846  10.631  0.00  0.00    +0.000 C 
ATOM     23  C   UNL     1      39.257   1.602  11.727  0.00  0.00    +0.000 C 
ENDBRANCH  21  22
ENDBRANCH  20  21
ENDBRANCH  19  20
ENDBRANCH  18  19
ENDBRANCH  17  18
ENDBRANCH  14  17
ENDBRANCH   9  11
BRANCH  10  24
ATOM     24  C   UNL     1      37.005   1.199  14.722  0.00  0.00    +0.000 C 
ATOM     25  O   UNL     1      36.437   1.903  13.847  0.00  0.00    +0.000 OA
ATOM     26  N   UNL     1      37.932   1.744  15.568  0.00  0.00    +0.000 NA
BRANCH  26  27
ATOM     27  C   UNL     1      38.346   3.102  15.563  0.00  0.00    +0.000 A 
ATOM     28  C   UNL     1      37.732   3.977  16.429  0.00  0.00    +0.000 A 
ATOM     29  C   UNL     1      38.098   5.325  16.467  0.00  0.00    +0.000 A 
ATOM     30  C   UNL     1      39.078   5.818  15.648  0.00  0.00    +0.000 A 
ATOM     31  C   UNL     1      39.696   4.952  14.780  0.00  0.00    +0.000 A 
ATOM     32  C   UNL     1      39.327   3.611  14.745  0.00  0.00    +0.000 A 
ENDBRANCH  26  27
ENDBRANCH  10  24
TORSDOF 9
ENDMDL
MODEL 4
REMARK VINA RESULT:      -6.5      5.120      7.909
REMARK  Name = 
REMARK  9 active torsions:
REMARK  status: ('A' for Active; 'I' for Inactive)
REMARK    1  A    between atoms: C_9  and  C_10
REMARK    2  A    between atoms: C_13  and  O_14
REMARK    3  A    between atoms: O_14  and  C_15
REMARK    4  A    between atoms: C_15  and  C_16
REMARK    5  A    between atoms: C_16  and  C_17
REMARK    6  A    between atoms: C_17  and  C_18
REMARK    7  A    between atoms: C_18  and  C_19
REMARK    8  A    between atoms: C_23  and  C_24
REMARK    9  A    between atoms: N_26  and  C_27
REMARK                            x       y       z     vdW  Elec       q    Type
REMARK                         _______ _______ _______ _____ _____    ______ ____
ROOT
ATOM      1  C   UNL     1      35.362   2.011  14.203  0.00  0.00    +0.000 C 
ATOM      2  C   UNL     1      35.472   3.186  14.742  0.00  0.00    +0.000 C 
ATOM      3  N   UNL     1      34.731   4.361  14.406  0.00  0.00    +0.000 NA
ATOM      4  C   UNL     1      35.542   5.551  14.432  0.00  0.00    +0.000 A 
ATOM      5  N   UNL     1      35.168   6.825  14.218  0.00  0.00    +0.000 NA
ATOM      6  C   UNL     1      36.243   7.605  14.389  0.00  0.00    +0.000 A 
ATOM      7  N   UNL     1      37.285   6.817  14.708  0.00  0.00    +0.000 NA
ATOM      8  N   UNL     1      36.809   5.558  14.722  0.00  0.00    +0.000 N 
ATOM      9  C   UNL     1      37.631   4.281  14.968  0.00  0.00    +0.000 C 
ATOM     10  C   UNL     1      36.509   3.451  15.922  0.00  0.00    +0.000 C 
ENDROOT
BRANCH   9  11
ATOM     11  C   UNL     1      38.518   4.820  16.180  0.00  0.00    +0.000 A 
ATOM     12  C   UNL     1      38.163   4.731  17.448  0.00  0.00    +0.000 A 
ATOM     13  C   UNL     1      38.952   5.207  18.458  0.00  0.00    +0.000 A 
ATOM     14  C   UNL     1      40.149   5.797  18.147  0.00  0.00    +0.000 A 
ATOM     15  C   UNL     1      40.513   5.887  16.823  0.00  0.00    +0.000 A 
ATOM     16  C   UNL     1      39.714   5.406  15.819  0.00  0.00    +0.000 A 
BRANCH  14  17
ATOM     17  O   UNL     1      41.004   6.307  19.153  0.00  0.00    +0.000 OA
BRANCH  17  18
ATOM     18  C   UNL     1      40.393   6.960  20.250  0.00  0.00    +0.000 C 
BRANCH  18  19
ATOM     19  C   UNL     1      40.220   8.438  19.897  0.00  0.00    +0.000 C 
BRANCH  19  20
ATOM     20  C   UNL     1      38.920   8.958  20.451  0.00  0.00    +0.000 C 
BRANCH  20  21
ATOM     21  C   UNL     1      37.722   8.420  19.697  0.00  0.00    +0.000 C 
BRANCH  21  22
ATOM     22  C   UNL     1      37.898   8.762  18.236  0.00  0.00    +0.000 C 
ATOM     23  C   UNL     1      36.723   9.517  17.690  0.00  0.00    +0.000 C 
ENDBRANCH  21  22
ENDBRANCH  20  21
ENDBRANCH  19  20
ENDBRANCH  18  19
ENDBRANCH  17  18
ENDBRANCH  14  17
ENDBRANCH   9  11
BRANCH  10  24
ATOM     24  C   UNL     1      37.257   2.058  15.877  0.00  0.00    +0.000 C 
ATOM     25  O   UNL     1      37.052   1.276  16.842  0.00  0.00    +0.000 OA
ATOM     26  N   UNL     1      38.087   1.703  14.850  0.00  0.00    +0.000 NA
BRANCH  26  27
ATOM     27  C   UNL     1      38.785   0.471  14.750  0.00  0.00    +0.000 A 
ATOM     28  C   UNL     1      38.058  -0.697  14.754  0.00  0.00    +0.000 A 
ATOM     29  C   UNL     1      38.692  -1.939  14.659  0.00  0.00    +0.000 A 
ATOM     30  C   UNL     1      40.053  -2.035  14.559  0.00  0.00    +0.000 A 
ATOM     31  C   UNL     1      40.788  -0.875  14.555  0.00  0.00    +0.000 A 
ATOM     32  C   UNL     1      40.152   0.359  14.650  0.00  0.00    +0.000 A 
ENDBRANCH  26  27
ENDBRANCH  10  24
TORSDOF 9
ENDMDL
MODEL 5
REMARK VINA RESULT:      -6.4      2.410      3.720
REMARK  Name = 
REMARK  9 active torsions:
REMARK  status: ('A' for Active; 'I' for Inactive)
REMARK    1  A    between atoms: C_9  and  C_10
REMARK    2  A    between atoms: C_13  and  O_14
REMARK    3  A    between atoms: O_14  and  C_15
REMARK    4  A    between atoms: C_15  and  C_16
REMARK    5  A    between atoms: C_16  and  C_17
REMARK    6  A    between atoms: C_17  and  C_18
REMARK    7  A    between atoms: C_18  and  C_19
REMARK    8  A    between atoms: C_23  and  C_24
REMARK    9  A    between atoms: N_26  and  C_27
REMARK                            x       y       z     vdW  Elec       q    Type
REMARK                         _______ _______ _______ _____ _____    ______ ____
ROOT
ATOM      1  C   UNL     1      39.275  -3.728  16.093  0.00  0.00    +0.000 C 
ATOM      2  C   UNL     1      38.975  -2.567  16.588  0.00  0.00    +0.000 C 
ATOM      3  N   UNL     1      38.587  -2.279  17.934  0.00  0.00    +0.000 NA
ATOM      4  C   UNL     1      37.546  -1.286  18.007  0.00  0.00    +0.000 A 
ATOM      5  N   UNL     1      36.981  -0.744  19.101  0.00  0.00    +0.000 NA
ATOM      6  C   UNL     1      36.089   0.169  18.695  0.00  0.00    +0.000 A 
ATOM      7  N   UNL     1      36.100   0.195  17.350  0.00  0.00    +0.000 NA
ATOM      8  N   UNL     1      37.011  -0.718  16.967  0.00  0.00    +0.000 N 
ATOM      9  C   UNL     1      37.345  -1.114  15.519  0.00  0.00    +0.000 C 
ATOM     10  C   UNL     1      39.021  -1.255  15.686  0.00  0.00    +0.000 C 
ENDROOT
BRANCH   9  11
ATOM     11  C   UNL     1      37.360   0.351  14.888  0.00  0.00    +0.000 A 
ATOM     12  C   UNL     1      36.344   0.881  14.233  0.00  0.00    +0.000 A 
ATOM     13  C   UNL     1      36.397   2.141  13.705  0.00  0.00    +0.000 A 
ATOM     14  C   UNL     1      37.542   2.880  13.858  0.00  0.00    +0.000 A 
ATOM     15  C   UNL     1      38.598   2.321  14.541  0.00  0.00    +0.000 A 
ATOM     16  C   UNL     1      38.532   1.056  15.067  0.00  0.00    +0.000 A 
BRANCH  14  17
ATOM     17  O   UNL     1      37.651   4.188  13.332  0.00  0.00    +0.000 OA
BRANCH  17  18
ATOM     18  C   UNL     1      38.404   5.125  14.079  0.00  0.00    +0.000 C 
BRANCH  18  19
ATOM     19  C   UNL     1      37.491   5.743  15.139  0.00  0.00    +0.000 C 
BRANCH  19  20
ATOM     20  C   UNL     1      38.249   5.957  16.422  0.00  0.00    +0.000 C 
BRANCH  20  21
ATOM     21  C   UNL     1      38.251   4.720  17.297  0.00  0.00    +0.000 C 
BRANCH  21  22
ATOM     22  C   UNL     1      39.083   5.018  18.522  0.00  0.00    +0.000 C 
ATOM     23  C   UNL     1      38.983   6.456  18.935  0.00  0.00    +0.000 C 
ENDBRANCH  21  22
ENDBRANCH  20  21
ENDBRANCH  19  20
ENDBRANCH  18  19
ENDBRANCH  17  18
ENDBRANCH  14  17
ENDBRANCH   9  11
BRANCH  10  24
ATOM     24  C   UNL     1      39.265  -1.956  14.288  0.00  0.00    +0.000 C 
ATOM     25  O   UNL     1      38.351  -2.712  13.868  0.00  0.00    +0.000 OA
ATOM     26  N   UNL     1      40.406  -1.761  13.559  0.00  0.00    +0.000 NA
BRANCH  26  27
ATOM     27  C   UNL     1      40.685  -2.359  12.302  0.00  0.00    +0.000 A 
ATOM     28  C   UNL     1      41.650  -3.337  12.241  0.00  0.00    +0.000 A 
ATOM     29  C   UNL     1      41.967  -3.960  11.030  0.00  0.00    +0.000 A 
ATOM     30  C   UNL     1      41.329  -3.618   9.869  0.00  0.00    +0.000 A 
ATOM     31  C   UNL     1      40.364  -2.642   9.919  0.00  0.00    +0.000 A 
ATOM     32  C   UNL     1      40.053  -2.025  11.128  0.00  0.00    +0.000 A 
ENDBRANCH  26  27
ENDBRANCH  10  24
TORSDOF 9
ENDMDL
MODEL 6
REMARK VINA RESULT:      -6.3      2.683      5.432
REMARK  Name = 
REMARK  9 active torsions:
REMARK  status: ('A' for Active; 'I' for Inactive)
REMARK    1  A    between atoms: C_9  and  C_10
REMARK    2  A    between atoms: C_13  and  O_14
REMARK    3  A    between atoms: O_14  and  C_15
REMARK    4  A    between atoms: C_15  and  C_16
REMARK    5  A    between atoms: C_16  and  C_17
REMARK    6  A    between atoms: C_17  and  C_18
REMARK    7  A    between atoms: C_18  and  C_19
REMARK    8  A    between atoms: C_23  and  C_24
REMARK    9  A    between atoms: N_26  and  C_27
REMARK                            x       y       z     vdW  Elec       q    Type
REMARK                         _______ _______ _______ _____ _____    ______ ____
ROOT
ATOM      1  C   UNL     1      41.148   2.541  12.277  0.00  0.00    +0.000 C 
ATOM      2  C   UNL     1      41.259   1.330  12.731  0.00  0.00    +0.000 C 
ATOM      3  N   UNL     1      42.184   0.330  12.299  0.00  0.00    +0.000 NA
ATOM      4  C   UNL     1      41.594  -0.984  12.251  0.00  0.00    +0.000 A 
ATOM      5  N   UNL     1      42.179  -2.154  11.940  0.00  0.00    +0.000 NA
ATOM      6  C   UNL     1      41.260  -3.121  12.069  0.00  0.00    +0.000 A 
ATOM      7  N   UNL     1      40.107  -2.552  12.460  0.00  0.00    +0.000 NA
ATOM      8  N   UNL     1      40.356  -1.233  12.558  0.00  0.00    +0.000 N 
ATOM      9  C   UNL     1      39.331  -0.141  12.908  0.00  0.00    +0.000 C 
ATOM     10  C   UNL     1      40.316   0.806  13.903  0.00  0.00    +0.000 C 
ENDROOT
BRANCH   9  11
ATOM     11  C   UNL     1      38.585  -0.909  14.090  0.00  0.00    +0.000 A 
ATOM     12  C   UNL     1      37.322  -1.293  14.037  0.00  0.00    +0.000 A 
ATOM     13  C   UNL     1      36.718  -1.948  15.073  0.00  0.00    +0.000 A 
ATOM     14  C   UNL     1      37.443  -2.216  16.206  0.00  0.00    +0.000 A 
ATOM     15  C   UNL     1      38.758  -1.812  16.255  0.00  0.00    +0.000 A 
ATOM     16  C   UNL     1      39.353  -1.156  15.209  0.00  0.00    +0.000 A 
BRANCH  14  17
ATOM     17  O   UNL     1      36.867  -2.891  17.308  0.00  0.00    +0.000 OA
BRANCH  17  18
ATOM     18  C   UNL     1      35.781  -2.259  17.957  0.00  0.00    +0.000 C 
BRANCH  18  19
ATOM     19  C   UNL     1      36.337  -1.206  18.917  0.00  0.00    +0.000 C 
BRANCH  19  20
ATOM     20  C   UNL     1      35.669   0.123  18.679  0.00  0.00    +0.000 C 
BRANCH  20  21
ATOM     21  C   UNL     1      34.744   0.091  17.480  0.00  0.00    +0.000 C 
BRANCH  21  22
ATOM     22  C   UNL     1      35.060   1.289  16.616  0.00  0.00    +0.000 C 
ATOM     23  C   UNL     1      36.537   1.498  16.462  0.00  0.00    +0.000 C 
ENDBRANCH  21  22
ENDBRANCH  20  21
ENDBRANCH  19  20
ENDBRANCH  18  19
ENDBRANCH  17  18
ENDBRANCH  14  17
ENDBRANCH   9  11
BRANCH  10  24
ATOM     24  C   UNL     1      39.336   2.046  13.970  0.00  0.00    +0.000 C 
ATOM     25  O   UNL     1      39.423   2.780  14.989  0.00  0.00    +0.000 OA
ATOM     26  N   UNL     1      38.433   2.323  12.980  0.00  0.00    +0.000 NA
BRANCH  26  27
ATOM     27  C   UNL     1      37.529   3.417  12.980  0.00  0.00    +0.000 A 
ATOM     28  C   UNL     1      36.440   3.368  13.820  0.00  0.00    +0.000 A 
ATOM     29  C   UNL     1      35.517   4.416  13.863  0.00  0.00    +0.000 A 
ATOM     30  C   UNL     1      35.665   5.524  13.073  0.00  0.00    +0.000 A 
ATOM     31  C   UNL     1      36.748   5.582  12.231  0.00  0.00    +0.000 A 
ATOM     32  C   UNL     1      37.664   4.535  12.193  0.00  0.00    +0.000 A 
ENDBRANCH  26  27
ENDBRANCH  10  24
TORSDOF 9
ENDMDL
MODEL 7
REMARK VINA RESULT:      -6.3      7.321     11.208
REMARK  Name = 
REMARK  9 active torsions:
REMARK  status: ('A' for Active; 'I' for Inactive)
REMARK    1  A    between atoms: C_9  and  C_10
REMARK    2  A    between atoms: C_13  and  O_14
REMARK    3  A    between atoms: O_14  and  C_15
REMARK    4  A    between atoms: C_15  and  C_16
REMARK    5  A    between atoms: C_16  and  C_17
REMARK    6  A    between atoms: C_17  and  C_18
REMARK    7  A    between atoms: C_18  and  C_19
REMARK    8  A    between atoms: C_23  and  C_24
REMARK    9  A    between atoms: N_26  and  C_27
REMARK                            x       y       z     vdW  Elec       q    Type
REMARK                         _______ _______ _______ _____ _____    ______ ____
ROOT
ATOM      1  C   UNL     1      39.780  10.594  20.413  0.00  0.00    +0.000 C 
ATOM      2  C   UNL     1      40.291   9.414  20.239  0.00  0.00    +0.000 C 
ATOM      3  N   UNL     1      41.662   9.038  20.389  0.00  0.00    +0.000 NA
ATOM      4  C   UNL     1      42.090   8.098  19.384  0.00  0.00    +0.000 A 
ATOM      5  N   UNL     1      43.287   7.500  19.252  0.00  0.00    +0.000 NA
ATOM      6  C   UNL     1      43.220   6.670  18.202  0.00  0.00    +0.000 A 
ATOM      7  N   UNL     1      41.982   6.754  17.683  0.00  0.00    +0.000 NA
ATOM      8  N   UNL     1      41.319   7.646  18.441  0.00  0.00    +0.000 N 
ATOM      9  C   UNL     1      39.880   8.140  18.209  0.00  0.00    +0.000 C 
ATOM     10  C   UNL     1      39.375   8.179  19.822  0.00  0.00    +0.000 C 
ENDROOT
BRANCH   9  11
ATOM     11  C   UNL     1      39.218   6.733  17.858  0.00  0.00    +0.000 A 
ATOM     12  C   UNL     1      39.158   5.716  18.698  0.00  0.00    +0.000 A 
ATOM     13  C   UNL     1      38.582   4.524  18.358  0.00  0.00    +0.000 A 
ATOM     14  C   UNL     1      38.049   4.376  17.104  0.00  0.00    +0.000 A 
ATOM     15  C   UNL     1      38.115   5.439  16.232  0.00  0.00    +0.000 A 
ATOM     16  C   UNL     1      38.694   6.630  16.585  0.00  0.00    +0.000 A 
BRANCH  14  17
ATOM     17  O   UNL     1      37.441   3.164  16.699  0.00  0.00    +0.000 OA
BRANCH  17  18
ATOM     18  C   UNL     1      36.560   3.220  15.594  0.00  0.00    +0.000 C 
BRANCH  18  19
ATOM     19  C   UNL     1      35.204   2.662  16.028  0.00  0.00    +0.000 C 
BRANCH  19  20
ATOM     20  C   UNL     1      35.392   1.552  17.028  0.00  0.00    +0.000 C 
BRANCH  20  21
ATOM     21  C   UNL     1      35.264   0.183  16.392  0.00  0.00    +0.000 C 
BRANCH  21  22
ATOM     22  C   UNL     1      35.130  -0.835  17.501  0.00  0.00    +0.000 C 
ATOM     23  C   UNL     1      33.870  -1.638  17.379  0.00  0.00    +0.000 C 
ENDBRANCH  21  22
ENDBRANCH  20  21
ENDBRANCH  19  20
ENDBRANCH  18  19
ENDBRANCH  17  18
ENDBRANCH  14  17
ENDBRANCH   9  11
BRANCH  10  24
ATOM     24  C   UNL     1      38.036   8.977  19.553  0.00  0.00    +0.000 C 
ATOM     25  O   UNL     1      37.152   8.914  20.447  0.00  0.00    +0.000 OA
ATOM     26  N   UNL     1      37.832   9.707  18.414  0.00  0.00    +0.000 NA
BRANCH  26  27
ATOM     27  C   UNL     1      36.656  10.444  18.115  0.00  0.00    +0.000 A 
ATOM     28  C   UNL     1      36.655  11.799  18.349  0.00  0.00    +0.000 A 
ATOM     29  C   UNL     1      35.525  12.575  18.073  0.00  0.00    +0.000 A 
ATOM     30  C   UNL     1      34.387  12.014  17.562  0.00  0.00    +0.000 A 
ATOM     31  C   UNL     1      34.378  10.662  17.325  0.00  0.00    +0.000 A 
ATOM     32  C   UNL     1      35.505   9.893  17.602  0.00  0.00    +0.000 A 
ENDBRANCH  26  27
ENDBRANCH  10  24
TORSDOF 9
ENDMDL
MODEL 8
REMARK VINA RESULT:      -6.3      2.469      6.949
REMARK  Name = 
REMARK  9 active torsions:
REMARK  status: ('A' for Active; 'I' for Inactive)
REMARK    1  A    between atoms: C_9  and  C_10
REMARK    2  A    between atoms: C_13  and  O_14
REMARK    3  A    between atoms: O_14  and  C_15
REMARK    4  A    between atoms: C_15  and  C_16
REMARK    5  A    between atoms: C_16  and  C_17
REMARK    6  A    between atoms: C_17  and  C_18
REMARK    7  A    between atoms: C_18  and  C_19
REMARK    8  A    between atoms: C_23  and  C_24
REMARK    9  A    between atoms: N_26  and  C_27
REMARK                            x       y       z     vdW  Elec       q    Type
REMARK                         _______ _______ _______ _____ _____    ______ ____
ROOT
ATOM      1  C   UNL     1      35.324   2.567  16.288  0.00  0.00    +0.000 C 
ATOM      2  C   UNL     1      35.371   1.299  16.019  0.00  0.00    +0.000 C 
ATOM      3  N   UNL     1      34.584   0.263  16.612  0.00  0.00    +0.000 NA
ATOM      4  C   UNL     1      35.341  -0.942  16.841  0.00  0.00    +0.000 A 
ATOM      5  N   UNL     1      34.914  -2.119  17.333  0.00  0.00    +0.000 NA
ATOM      6  C   UNL     1      35.950  -2.968  17.329  0.00  0.00    +0.000 A 
ATOM      7  N   UNL     1      37.019  -2.319  16.836  0.00  0.00    +0.000 NA
ATOM      8  N   UNL     1      36.601  -1.073  16.549  0.00  0.00    +0.000 N 
ATOM      9  C   UNL     1      37.474   0.078  16.022  0.00  0.00    +0.000 C 
ATOM     10  C   UNL     1      36.374   0.732  14.919  0.00  0.00    +0.000 C 
ENDROOT
BRANCH   9  11
ATOM     11  C   UNL     1      38.314  -0.754  14.952  0.00  0.00    +0.000 A 
ATOM     12  C   UNL     1      39.610  -0.983  15.049  0.00  0.00    +0.000 A 
ATOM     13  C   UNL     1      40.294  -1.701  14.108  0.00  0.00    +0.000 A 
ATOM     14  C   UNL     1      39.615  -2.200  13.027  0.00  0.00    +0.000 A 
ATOM     15  C   UNL     1      38.264  -1.957  12.930  0.00  0.00    +0.000 A 
ATOM     16  C   UNL     1      37.588  -1.236  13.881  0.00  0.00    +0.000 A 
BRANCH  14  17
ATOM     17  O   UNL     1      40.274  -2.949  12.024  0.00  0.00    +0.000 OA
BRANCH  17  18
ATOM     18  C   UNL     1      40.138  -2.501  10.688  0.00  0.00    +0.000 C 
BRANCH  18  19
ATOM     19  C   UNL     1      41.035  -1.278  10.495  0.00  0.00    +0.000 C 
BRANCH  19  20
ATOM     20  C   UNL     1      40.201  -0.063  10.182  0.00  0.00    +0.000 C 
BRANCH  20  21
ATOM     21  C   UNL     1      40.096   0.877  11.365  0.00  0.00    +0.000 C 
BRANCH  21  22
ATOM     22  C   UNL     1      41.436   1.551  11.544  0.00  0.00    +0.000 C 
ATOM     23  C   UNL     1      42.024   1.284  12.898  0.00  0.00    +0.000 C 
ENDBRANCH  21  22
ENDBRANCH  20  21
ENDBRANCH  19  20
ENDBRANCH  18  19
ENDBRANCH  17  18
ENDBRANCH  14  17
ENDBRANCH   9  11
BRANCH  10  24
ATOM     24  C   UNL     1      37.184   2.064  14.650  0.00  0.00    +0.000 C 
ATOM     25  O   UNL     1      36.837   2.744  13.650  0.00  0.00    +0.000 OA
ATOM     26  N   UNL     1      38.213   2.472  15.454  0.00  0.00    +0.000 NA
BRANCH  26  27
ATOM     27  C   UNL     1      38.977   3.654  15.268  0.00  0.00    +0.000 A 
ATOM     28  C   UNL     1      38.902   4.640  16.225  0.00  0.00    +0.000 A 
ATOM     29  C   UNL     1      39.632   5.825  16.094  0.00  0.00    +0.000 A 
ATOM     30  C   UNL     1      40.444   6.043  15.014  0.00  0.00    +0.000 A 
ATOM     31  C   UNL     1      40.524   5.065  14.053  0.00  0.00    +0.000 A 
ATOM     32  C   UNL     1      39.795   3.887  14.188  0.00  0.00    +0.000 A 
ENDBRANCH  26  27
ENDBRANCH  10  24
TORSDOF 9
ENDMDL
MODEL 9
REMARK VINA RESULT:      -6.2      4.459      6.355
REMARK  Name = 
REMARK  9 active torsions:
REMARK  status: ('A' for Active; 'I' for Inactive)
REMARK    1  A    between atoms: C_9  and  C_10
REMARK    2  A    between atoms: C_13  and  O_14
REMARK    3  A    between atoms: O_14  and  C_15
REMARK    4  A    between atoms: C_15  and  C_16
REMARK    5  A    between atoms: C_16  and  C_17
REMARK    6  A    between atoms: C_17  and  C_18
REMARK    7  A    between atoms: C_18  and  C_19
REMARK    8  A    between atoms: C_23  and  C_24
REMARK    9  A    between atoms: N_26  and  C_27
REMARK                            x       y       z     vdW  Elec       q    Type
REMARK                         _______ _______ _______ _____ _____    ______ ____
ROOT
ATOM      1  C   UNL     1      37.643   2.272  15.055  0.00  0.00    +0.000 C 
ATOM      2  C   UNL     1      36.881   1.483  15.749  0.00  0.00    +0.000 C 
ATOM      3  N   UNL     1      36.452   1.668  17.100  0.00  0.00    +0.000 NA
ATOM      4  C   UNL     1      36.436   0.436  17.847  0.00  0.00    +0.000 A 
ATOM      5  N   UNL     1      36.044   0.232  19.117  0.00  0.00    +0.000 NA
ATOM      6  C   UNL     1      36.158  -1.077  19.379  0.00  0.00    +0.000 A 
ATOM      7  N   UNL     1      36.620  -1.685  18.272  0.00  0.00    +0.000 NA
ATOM      8  N   UNL     1      36.779  -0.715  17.353  0.00  0.00    +0.000 N 
ATOM      9  C   UNL     1      37.353  -0.894  15.936  0.00  0.00    +0.000 C 
ATOM     10  C   UNL     1      36.300   0.142  15.116  0.00  0.00    +0.000 C 
ENDROOT
BRANCH   9  11
ATOM     11  C   UNL     1      36.591  -2.244  15.559  0.00  0.00    +0.000 A 
ATOM     12  C   UNL     1      37.193  -3.327  15.102  0.00  0.00    +0.000 A 
ATOM     13  C   UNL     1      36.503  -4.464  14.788  0.00  0.00    +0.000 A 
ATOM     14  C   UNL     1      35.141  -4.484  14.951  0.00  0.00    +0.000 A 
ATOM     15  C   UNL     1      34.520  -3.352  15.426  0.00  0.00    +0.000 A 
ATOM     16  C   UNL     1      35.223  -2.217  15.738  0.00  0.00    +0.000 A 
BRANCH  14  17
ATOM     17  O   UNL     1      34.379  -5.634  14.641  0.00  0.00    +0.000 OA
BRANCH  17  18
ATOM     18  C   UNL     1      34.453  -6.722  15.544  0.00  0.00    +0.000 C 
BRANCH  18  19
ATOM     19  C   UNL     1      33.980  -7.983  14.821  0.00  0.00    +0.000 C 
BRANCH  19  20
ATOM     20  C   UNL     1      33.945  -7.752  13.333  0.00  0.00    +0.000 C 
BRANCH  20  21
ATOM     21  C   UNL     1      33.889  -9.050  12.554  0.00  0.00    +0.000 C 
BRANCH  21  22
ATOM     22  C   UNL     1      32.636  -9.031  11.709  0.00  0.00    +0.000 C 
ATOM     23  C   UNL     1      31.700 -10.146  12.065  0.00  0.00    +0.000 C 
ENDBRANCH  21  22
ENDBRANCH  20  21
ENDBRANCH  19  20
ENDBRANCH  18  19
ENDBRANCH  17  18
ENDBRANCH  14  17
ENDBRANCH   9  11
BRANCH  10  24
ATOM     24  C   UNL     1      37.117   0.165  13.761  0.00  0.00    +0.000 C 
ATOM     25  O   UNL     1      36.494   0.535  12.732  0.00  0.00    +0.000 OA
ATOM     26  N   UNL     1      38.434  -0.196  13.692  0.00  0.00    +0.000 NA
BRANCH  26  27
ATOM     27  C   UNL     1      39.222  -0.197  12.510  0.00  0.00    +0.000 A 
ATOM     28  C   UNL     1      39.387  -1.383  11.834  0.00  0.00    +0.000 A 
ATOM     29  C   UNL     1      40.152  -1.444  10.666  0.00  0.00    +0.000 A 
ATOM     30  C   UNL     1      40.758  -0.328  10.156  0.00  0.00    +0.000 A 
ATOM     31  C   UNL     1      40.599   0.861  10.824  0.00  0.00    +0.000 A 
ATOM     32  C   UNL     1      39.837   0.916  11.988  0.00  0.00    +0.000 A 
ENDBRANCH  26  27
ENDBRANCH  10  24
TORSDOF 9
ENDMDL
MODEL 10
REMARK VINA RESULT:      -6.2      3.380      7.644
REMARK  Name = 
REMARK  9 active torsions:
REMARK  status: ('A' for Active; 'I' for Inactive)
REMARK    1  A    between atoms: C_9  and  C_10
REMARK    2  A    between atoms: C_13  and  O_14
REMARK    3  A    between atoms: O_14  and  C_15
REMARK    4  A    between atoms: C_15  and  C_16
REMARK    5  A    between atoms: C_16  and  C_17
REMARK    6  A    between atoms: C_17  and  C_18
REMARK    7  A    between atoms: C_18  and  C_19
REMARK    8  A    between atoms: C_23  and  C_24
REMARK    9  A    between atoms: N_26  and  C_27
REMARK                            x       y       z     vdW  Elec       q    Type
REMARK                         _______ _______ _______ _____ _____    ______ ____
ROOT
ATOM      1  C   UNL     1      35.728   1.293  17.459  0.00  0.00    +0.000 C 
ATOM      2  C   UNL     1      35.639   0.525  16.417  0.00  0.00    +0.000 C 
ATOM      3  N   UNL     1      35.231  -0.845  16.389  0.00  0.00    +0.000 NA
ATOM      4  C   UNL     1      36.003  -1.631  15.460  0.00  0.00    +0.000 A 
ATOM      5  N   UNL     1      35.863  -2.930  15.144  0.00  0.00    +0.000 NA
ATOM      6  C   UNL     1      36.769  -3.226  14.202  0.00  0.00    +0.000 A 
ATOM      7  N   UNL     1      37.471  -2.111  13.934  0.00  0.00    +0.000 NA
ATOM      8  N   UNL     1      36.968  -1.152  14.733  0.00  0.00    +0.000 N 
ATOM      9  C   UNL     1      37.483   0.293  14.850  0.00  0.00    +0.000 C 
ATOM     10  C   UNL     1      35.989   1.075  14.963  0.00  0.00    +0.000 C 
ENDROOT
BRANCH   9  11
ATOM     11  C   UNL     1      37.705   0.575  13.296  0.00  0.00    +0.000 A 
ATOM     12  C   UNL     1      36.731   0.590  12.404  0.00  0.00    +0.000 A 
ATOM     13  C   UNL     1      36.963   0.834  11.079  0.00  0.00    +0.000 A 
ATOM     14  C   UNL     1      38.246   1.070  10.659  0.00  0.00    +0.000 A 
ATOM     15  C   UNL     1      39.257   1.053  11.594  0.00  0.00    +0.000 A 
ATOM     16  C   UNL     1      39.012   0.807  12.920  0.00  0.00    +0.000 A 
BRANCH  14  17
ATOM     17  O   UNL     1      38.542   1.328   9.300  0.00  0.00    +0.000 OA
BRANCH  17  18
ATOM     18  C   UNL     1      37.921   2.452   8.706  0.00  0.00    +0.000 C 
BRANCH  18  19
ATOM     19  C   UNL     1      37.195   1.991   7.441  0.00  0.00    +0.000 C 
BRANCH  19  20
ATOM     20  C   UNL     1      36.450   3.141   6.817  0.00  0.00    +0.000 C 
BRANCH  20  21
ATOM     21  C   UNL     1      35.638   2.710   5.614  0.00  0.00    +0.000 C 
BRANCH  21  22
ATOM     22  C   UNL     1      35.857   1.229   5.410  0.00  0.00    +0.000 C 
ATOM     23  C   UNL     1      35.629   0.817   3.987  0.00  0.00    +0.000 C 
ENDBRANCH  21  22
ENDBRANCH  20  21
ENDBRANCH  19  20
ENDBRANCH  18  19
ENDBRANCH  17  18
ENDBRANCH  14  17
ENDBRANCH   9  11
BRANCH  10  24
ATOM     24  C   UNL     1      36.573   2.481  15.392  0.00  0.00    +0.000 C 
ATOM     25  O   UNL     1      35.822   3.478  15.231  0.00  0.00    +0.000 OA
ATOM     26  N   UNL     1      37.829   2.626  15.915  0.00  0.00    +0.000 NA
BRANCH  26  27
ATOM     27  C   UNL     1      38.410   3.857  16.319  0.00  0.00    +0.000 A 
ATOM     28  C   UNL     1      39.205   4.532  15.422  0.00  0.00    +0.000 A 
ATOM     29  C   UNL     1      39.802   5.748  15.765  0.00  0.00    +0.000 A 
ATOM     30  C   UNL     1      39.617   6.306  17.001  0.00  0.00    +0.000 A 
ATOM     31  C   UNL     1      38.826   5.639  17.904  0.00  0.00    +0.000 A 
ATOM     32  C   UNL     1      38.233   4.428  17.557  0.00  0.00    +0.000 A 
ENDBRANCH  26  27
ENDBRANCH  10  24
TORSDOF 9
ENDMDL
