MODEL 1
REMARK VINA RESULT:      -7.6      0.000      0.000
REMARK  Name = 
REMARK  7 active torsions:
REMARK  status: ('A' for Active; 'I' for Inactive)
REMARK    1  A    between atoms: C_5  and  C_6
REMARK    2  A    between atoms: C_9  and  C_10
REMARK    3  A    between atoms: C_17  and  C_18
REMARK    4  A    between atoms: C_21  and  O_22
REMARK    5  A    between atoms: O_22  and  C_23
REMARK    6  A    between atoms: C_23  and  C_24
REMARK    7  A    between atoms: C_24  and  N_25
REMARK                            x       y       z     vdW  Elec       q    Type
REMARK                         _______ _______ _______ _____ _____    ______ ____
ROOT
ATOM      1  C   UNL     1      35.114  -2.946  15.677  0.00  0.00    +0.000 A 
ATOM      2  C   UNL     1      33.768  -3.330  15.781  0.00  0.00    +0.000 A 
ATOM      3  C   UNL     1      33.431  -4.595  15.355  0.00  0.00    +0.000 A 
ATOM      4  C   UNL     1      34.355  -5.479  14.839  0.00  0.00    +0.000 A 
ATOM      5  N   UNL     1      35.630  -5.080  14.755  0.00  0.00    +0.000 NA
ATOM      6  C   UNL     1      36.019  -3.832  15.163  0.00  0.00    +0.000 A 
ENDROOT
BRANCH   1  11
ATOM      7  O   UNL     1      36.584   2.172  17.466  0.00  0.00    +0.000 OA
ATOM      8  C   UNL     1      36.225   0.908  17.033  0.00  0.00    +0.000 A 
ATOM      9  C   UNL     1      35.907  -0.093  17.924  0.00  0.00    +0.000 A 
ATOM     10  C   UNL     1      35.546  -1.352  17.505  0.00  0.00    +0.000 A 
ATOM     11  C   UNL     1      35.506  -1.615  16.129  0.00  0.00    +0.000 A 
ATOM     12  C   UNL     1      35.820  -0.626  15.257  0.00  0.00    +0.000 A 
ATOM     13  C   UNL     1      36.176   0.623  15.691  0.00  0.00    +0.000 A 
ENDBRANCH   1  11
BRANCH   4  14
ATOM     14  C   UNL     1      33.946  -6.830  14.405  0.00  0.00    +0.000 A 
ATOM     15  C   UNL     1      33.599  -7.828  15.270  0.00  0.00    +0.000 A 
ATOM     16  C   UNL     1      33.222  -9.092  14.820  0.00  0.00    +0.000 A 
ATOM     17  C   UNL     1      33.191  -9.371  13.472  0.00  0.00    +0.000 A 
ATOM     18  C   UNL     1      33.542  -8.360  12.617  0.00  0.00    +0.000 A 
ATOM     19  C   UNL     1      33.910  -7.123  13.051  0.00  0.00    +0.000 A 
ENDBRANCH   4  14
BRANCH   6  20
ATOM     20  C   UNL     1      37.421  -3.435  15.044  0.00  0.00    +0.000 A 
ATOM     21  C   UNL     1      38.264  -3.411  16.141  0.00  0.00    +0.000 A 
ATOM     22  C   UNL     1      39.589  -3.056  15.996  0.00  0.00    +0.000 A 
ATOM     23  C   UNL     1      40.149  -2.712  14.787  0.00  0.00    +0.000 A 
ATOM     24  C   UNL     1      39.292  -2.736  13.679  0.00  0.00    +0.000 A 
ATOM     25  C   UNL     1      37.972  -3.091  13.832  0.00  0.00    +0.000 A 
BRANCH  23  26
ATOM     26  O   UNL     1      41.481  -2.354  14.612  0.00  0.00    +0.000 OA
BRANCH  26  27
ATOM     27  C   UNL     1      41.885  -1.538  13.555  0.00  0.00    +0.000 C 
BRANCH  27  28
ATOM     28  C   UNL     1      42.206  -0.158  14.121  0.00  0.00    +0.000 C 
BRANCH  28  29
ATOM     29  N   UNL     1      41.393   0.801  13.380  0.00  0.00    +0.000 NA
ATOM     30  C   UNL     1      40.241   1.186  14.165  0.00  0.00    +0.000 C 
ATOM     31  C   UNL     1      39.009   0.812  13.415  0.00  0.00    +0.000 C 
ATOM     32  C   UNL     1      39.461   0.548  11.996  0.00  0.00    +0.000 C 
ATOM     33  C   UNL     1      40.918   0.269  12.130  0.00  0.00    +0.000 C 
ENDBRANCH  28  29
ENDBRANCH  27  28
ENDBRANCH  26  27
ENDBRANCH  23  26
ENDBRANCH   6  20
TORSDOF 7
ENDMDL
MODEL 2
REMARK VINA RESULT:      -7.4      5.160      7.918
REMARK  Name = 
REMARK  7 active torsions:
REMARK  status: ('A' for Active; 'I' for Inactive)
REMARK    1  A    between atoms: C_5  and  C_6
REMARK    2  A    between atoms: C_9  and  C_10
REMARK    3  A    between atoms: C_17  and  C_18
REMARK    4  A    between atoms: C_21  and  O_22
REMARK    5  A    between atoms: O_22  and  C_23
REMARK    6  A    between atoms: C_23  and  C_24
REMARK    7  A    between atoms: C_24  and  N_25
REMARK                            x       y       z     vdW  Elec       q    Type
REMARK                         _______ _______ _______ _____ _____    ______ ____
ROOT
ATOM      1  C   UNL     1      36.818   2.582  14.200  0.00  0.00    +0.000 A 
ATOM      2  C   UNL     1      36.087   1.413  13.937  0.00  0.00    +0.000 A 
ATOM      3  C   UNL     1      36.591   0.224  14.414  0.00  0.00    +0.000 A 
ATOM      4  C   UNL     1      37.770   0.146  15.127  0.00  0.00    +0.000 A 
ATOM      5  N   UNL     1      38.441   1.281  15.359  0.00  0.00    +0.000 NA
ATOM      6  C   UNL     1      37.984   2.490  14.908  0.00  0.00    +0.000 A 
ENDROOT
BRANCH   1  11
ATOM      7  O   UNL     1      34.788   7.488  12.366  0.00  0.00    +0.000 OA
ATOM      8  C   UNL     1      35.287   6.282  12.826  0.00  0.00    +0.000 A 
ATOM      9  C   UNL     1      34.865   5.740  14.020  0.00  0.00    +0.000 A 
ATOM     10  C   UNL     1      35.352   4.541  14.486  0.00  0.00    +0.000 A 
ATOM     11  C   UNL     1      36.305   3.860  13.717  0.00  0.00    +0.000 A 
ATOM     12  C   UNL     1      36.715   4.399  12.543  0.00  0.00    +0.000 A 
ATOM     13  C   UNL     1      36.220   5.594  12.093  0.00  0.00    +0.000 A 
ENDBRANCH   1  11
BRANCH   4  14
ATOM     14  C   UNL     1      38.265  -1.152  15.627  0.00  0.00    +0.000 A 
ATOM     15  C   UNL     1      37.526  -1.990  16.412  0.00  0.00    +0.000 A 
ATOM     16  C   UNL     1      38.032  -3.206  16.867  0.00  0.00    +0.000 A 
ATOM     17  C   UNL     1      39.308  -3.599  16.532  0.00  0.00    +0.000 A 
ATOM     18  C   UNL     1      40.037  -2.748  15.744  0.00  0.00    +0.000 A 
ATOM     19  C   UNL     1      39.547  -1.559  15.296  0.00  0.00    +0.000 A 
ENDBRANCH   4  14
BRANCH   6  20
ATOM     20  C   UNL     1      38.755   3.703  15.176  0.00  0.00    +0.000 A 
ATOM     21  C   UNL     1      38.551   4.454  16.320  0.00  0.00    +0.000 A 
ATOM     22  C   UNL     1      39.309   5.579  16.562  0.00  0.00    +0.000 A 
ATOM     23  C   UNL     1      40.294   6.022  15.709  0.00  0.00    +0.000 A 
ATOM     24  C   UNL     1      40.497   5.261  14.550  0.00  0.00    +0.000 A 
ATOM     25  C   UNL     1      39.736   4.139  14.317  0.00  0.00    +0.000 A 
BRANCH  23  26
ATOM     26  O   UNL     1      41.075   7.151  15.929  0.00  0.00    +0.000 OA
BRANCH  26  27
ATOM     27  C   UNL     1      40.672   8.158  16.807  0.00  0.00    +0.000 C 
BRANCH  27  28
ATOM     28  C   UNL     1      41.844   8.473  17.732  0.00  0.00    +0.000 C 
BRANCH  28  29
ATOM     29  N   UNL     1      41.359   8.303  19.098  0.00  0.00    +0.000 NA
ATOM     30  C   UNL     1      41.846   7.059  19.648  0.00  0.00    +0.000 C 
ATOM     31  C   UNL     1      40.676   6.207  20.005  0.00  0.00    +0.000 C 
ATOM     32  C   UNL     1      39.484   7.138  20.012  0.00  0.00    +0.000 C 
ATOM     33  C   UNL     1      39.922   8.288  19.173  0.00  0.00    +0.000 C 
ENDBRANCH  28  29
ENDBRANCH  27  28
ENDBRANCH  26  27
ENDBRANCH  23  26
ENDBRANCH   6  20
TORSDOF 7
ENDMDL
MODEL 3
REMARK VINA RESULT:      -7.3      7.234     12.340
REMARK  Name = 
REMARK  7 active torsions:
REMARK  status: ('A' for Active; 'I' for Inactive)
REMARK    1  A    between atoms: C_5  and  C_6
REMARK    2  A    between atoms: C_9  and  C_10
REMARK    3  A    between atoms: C_17  and  C_18
REMARK    4  A    between atoms: C_21  and  O_22
REMARK    5  A    between atoms: O_22  and  C_23
REMARK    6  A    between atoms: C_23  and  C_24
REMARK    7  A    between atoms: C_24  and  N_25
REMARK                            x       y       z     vdW  Elec       q    Type
REMARK                         _______ _______ _______ _____ _____    ______ ____
ROOT
ATOM      1  C   UNL     1      40.343   7.937  19.365  0.00  0.00    +0.000 A 
ATOM      2  C   UNL     1      41.123   8.669  20.275  0.00  0.00    +0.000 A 
ATOM      3  C   UNL     1      42.326   8.126  20.665  0.00  0.00    +0.000 A 
ATOM      4  C   UNL     1      42.781   6.910  20.201  0.00  0.00    +0.000 A 
ATOM      5  N   UNL     1      42.012   6.239  19.335  0.00  0.00    +0.000 NA
ATOM      6  C   UNL     1      40.807   6.733  18.914  0.00  0.00    +0.000 A 
ENDROOT
BRANCH   1  11
ATOM      7  O   UNL     1      35.460  10.115  17.644  0.00  0.00    +0.000 OA
ATOM      8  C   UNL     1      36.666   9.578  18.060  0.00  0.00    +0.000 A 
ATOM      9  C   UNL     1      37.825   9.779  17.344  0.00  0.00    +0.000 A 
ATOM     10  C   UNL     1      39.030   9.253  17.749  0.00  0.00    +0.000 A 
ATOM     11  C   UNL     1      39.067   8.491  18.924  0.00  0.00    +0.000 A 
ATOM     12  C   UNL     1      37.923   8.296  19.623  0.00  0.00    +0.000 A 
ATOM     13  C   UNL     1      36.731   8.829  19.207  0.00  0.00    +0.000 A 
ENDBRANCH   1  11
BRANCH   4  14
ATOM     14  C   UNL     1      44.085   6.373  20.642  0.00  0.00    +0.000 A 
ATOM     15  C   UNL     1      45.262   6.630  20.000  0.00  0.00    +0.000 A 
ATOM     16  C   UNL     1      46.472   6.101  20.446  0.00  0.00    +0.000 A 
ATOM     17  C   UNL     1      46.511   5.294  21.560  0.00  0.00    +0.000 A 
ATOM     18  C   UNL     1      45.322   5.046  22.194  0.00  0.00    +0.000 A 
ATOM     19  C   UNL     1      44.137   5.561  21.763  0.00  0.00    +0.000 A 
ENDBRANCH   4  14
BRANCH   6  20
ATOM     20  C   UNL     1      39.995   5.962  17.973  0.00  0.00    +0.000 A 
ATOM     21  C   UNL     1      38.982   5.124  18.406  0.00  0.00    +0.000 A 
ATOM     22  C   UNL     1      38.215   4.428  17.497  0.00  0.00    +0.000 A 
ATOM     23  C   UNL     1      38.396   4.514  16.136  0.00  0.00    +0.000 A 
ATOM     24  C   UNL     1      39.423   5.362  15.701  0.00  0.00    +0.000 A 
ATOM     25  C   UNL     1      40.184   6.053  16.614  0.00  0.00    +0.000 A 
BRANCH  23  26
ATOM     26  O   UNL     1      37.636   3.826  15.197  0.00  0.00    +0.000 OA
BRANCH  26  27
ATOM     27  C   UNL     1      36.610   2.961  15.580  0.00  0.00    +0.000 C 
BRANCH  27  28
ATOM     28  C   UNL     1      37.080   1.531  15.328  0.00  0.00    +0.000 C 
BRANCH  28  29
ATOM     29  N   UNL     1      36.707   0.751  16.504  0.00  0.00    +0.000 NA
ATOM     30  C   UNL     1      36.841  -0.660  16.227  0.00  0.00    +0.000 C 
ATOM     31  C   UNL     1      35.509  -1.307  16.395  0.00  0.00    +0.000 C 
ATOM     32  C   UNL     1      34.666  -0.308  17.156  0.00  0.00    +0.000 C 
ATOM     33  C   UNL     1      35.349   0.994  16.915  0.00  0.00    +0.000 C 
ENDBRANCH  28  29
ENDBRANCH  27  28
ENDBRANCH  26  27
ENDBRANCH  23  26
ENDBRANCH   6  20
TORSDOF 7
ENDMDL
MODEL 4
REMARK VINA RESULT:      -7.2      3.344      6.735
REMARK  Name = 
REMARK  7 active torsions:
REMARK  status: ('A' for Active; 'I' for Inactive)
REMARK    1  A    between atoms: C_5  and  C_6
REMARK    2  A    between atoms: C_9  and  C_10
REMARK    3  A    between atoms: C_17  and  C_18
REMARK    4  A    between atoms: C_21  and  O_22
REMARK    5  A    between atoms: O_22  and  C_23
REMARK    6  A    between atoms: C_23  and  C_24
REMARK    7  A    between atoms: C_24  and  N_25
REMARK                            x       y       z     vdW  Elec       q    Type
REMARK                         _______ _______ _______ _____ _____    ______ ____
ROOT
ATOM      1  C   UNL     1      36.830  -1.107  15.532  0.00  0.00    +0.000 A 
ATOM      2  C   UNL     1      35.724  -0.393  16.020  0.00  0.00    +0.000 A 
ATOM      3  C   UNL     1      35.542   0.893  15.563  0.00  0.00    +0.000 A 
ATOM      4  C   UNL     1      36.396   1.491  14.660  0.00  0.00    +0.000 A 
ATOM      5  N   UNL     1      37.440   0.781  14.215  0.00  0.00    +0.000 NA
ATOM      6  C   UNL     1      37.667  -0.502  14.637  0.00  0.00    +0.000 A 
ENDROOT
BRANCH   1  11
ATOM      7  O   UNL     1      37.598  -6.391  17.275  0.00  0.00    +0.000 OA
ATOM      8  C   UNL     1      37.407  -5.092  16.838  0.00  0.00    +0.000 A 
ATOM      9  C   UNL     1      36.580  -4.808  15.774  0.00  0.00    +0.000 A 
ATOM     10  C   UNL     1      36.381  -3.520  15.332  0.00  0.00    +0.000 A 
ATOM     11  C   UNL     1      37.044  -2.476  15.989  0.00  0.00    +0.000 A 
ATOM     12  C   UNL     1      37.856  -2.762  17.035  0.00  0.00    +0.000 A 
ATOM     13  C   UNL     1      38.043  -4.050  17.464  0.00  0.00    +0.000 A 
ENDBRANCH   1  11
BRANCH   4  14
ATOM     14  C   UNL     1      36.153   2.871  14.191  0.00  0.00    +0.000 A 
ATOM     15  C   UNL     1      35.183   3.682  14.705  0.00  0.00    +0.000 A 
ATOM     16  C   UNL     1      34.983   4.978  14.231  0.00  0.00    +0.000 A 
ATOM     17  C   UNL     1      35.770   5.479  13.219  0.00  0.00    +0.000 A 
ATOM     18  C   UNL     1      36.739   4.652  12.714  0.00  0.00    +0.000 A 
ATOM     19  C   UNL     1      36.939   3.386  13.173  0.00  0.00    +0.000 A 
ENDBRANCH   4  14
BRANCH   6  20
ATOM     20  C   UNL     1      38.826  -1.237  14.132  0.00  0.00    +0.000 A 
ATOM     21  C   UNL     1      40.036  -1.231  14.801  0.00  0.00    +0.000 A 
ATOM     22  C   UNL     1      41.106  -1.954  14.317  0.00  0.00    +0.000 A 
ATOM     23  C   UNL     1      41.047  -2.709  13.168  0.00  0.00    +0.000 A 
ATOM     24  C   UNL     1      39.820  -2.711  12.492  0.00  0.00    +0.000 A 
ATOM     25  C   UNL     1      38.758  -1.988  12.982  0.00  0.00    +0.000 A 
BRANCH  23  26
ATOM     26  O   UNL     1      42.108  -3.449  12.659  0.00  0.00    +0.000 OA
BRANCH  26  27
ATOM     27  C   UNL     1      43.222  -2.832  12.090  0.00  0.00    +0.000 C 
BRANCH  27  28
ATOM     28  C   UNL     1      44.435  -3.153  12.958  0.00  0.00    +0.000 C 
BRANCH  28  29
ATOM     29  N   UNL     1      45.052  -1.877  13.308  0.00  0.00    +0.000 NA
ATOM     30  C   UNL     1      45.158  -1.754  14.744  0.00  0.00    +0.000 C 
ATOM     31  C   UNL     1      44.382  -0.557  15.177  0.00  0.00    +0.000 C 
ATOM     32  C   UNL     1      44.136   0.245  13.918  0.00  0.00    +0.000 C 
ATOM     33  C   UNL     1      44.299  -0.751  12.822  0.00  0.00    +0.000 C 
ENDBRANCH  28  29
ENDBRANCH  27  28
ENDBRANCH  26  27
ENDBRANCH  23  26
ENDBRANCH   6  20
TORSDOF 7
ENDMDL
MODEL 5
REMARK VINA RESULT:      -7.1      4.188      7.133
REMARK  Name = 
REMARK  7 active torsions:
REMARK  status: ('A' for Active; 'I' for Inactive)
REMARK    1  A    between atoms: C_5  and  C_6
REMARK    2  A    between atoms: C_9  and  C_10
REMARK    3  A    between atoms: C_17  and  C_18
REMARK    4  A    between atoms: C_21  and  O_22
REMARK    5  A    between atoms: O_22  and  C_23
REMARK    6  A    between atoms: C_23  and  C_24
REMARK    7  A    between atoms: C_24  and  N_25
REMARK                            x       y       z     vdW  Elec       q    Type
REMARK                         _______ _______ _______ _____ _____    ______ ____
ROOT
ATOM      1  C   UNL     1      39.429  -2.115  13.374  0.00  0.00    +0.000 A 
ATOM      2  C   UNL     1      38.133  -2.627  13.552  0.00  0.00    +0.000 A 
ATOM      3  C   UNL     1      37.464  -2.282  14.704  0.00  0.00    +0.000 A 
ATOM      4  C   UNL     1      38.014  -1.468  15.671  0.00  0.00    +0.000 A 
ATOM      5  N   UNL     1      39.251  -0.997  15.469  0.00  0.00    +0.000 NA
ATOM      6  C   UNL     1      39.961  -1.309  14.341  0.00  0.00    +0.000 A 
ENDROOT
BRANCH   1  11
ATOM      7  O   UNL     1      42.296  -3.429   8.726  0.00  0.00    +0.000 OA
ATOM      8  C   UNL     1      41.591  -3.113   9.874  0.00  0.00    +0.000 A 
ATOM      9  C   UNL     1      41.832  -3.762  11.065  0.00  0.00    +0.000 A 
ATOM     10  C   UNL     1      41.139  -3.455  12.213  0.00  0.00    +0.000 A 
ATOM     11  C   UNL     1      40.161  -2.453  12.159  0.00  0.00    +0.000 A 
ATOM     12  C   UNL     1      39.929  -1.819  10.984  0.00  0.00    +0.000 A 
ATOM     13  C   UNL     1      40.629  -2.136   9.849  0.00  0.00    +0.000 A 
ENDBRANCH   1  11
BRANCH   4  14
ATOM     14  C   UNL     1      37.251  -1.118  16.887  0.00  0.00    +0.000 A 
ATOM     15  C   UNL     1      36.193  -0.255  16.891  0.00  0.00    +0.000 A 
ATOM     16  C   UNL     1      35.501   0.053  18.061  0.00  0.00    +0.000 A 
ATOM     17  C   UNL     1      35.873  -0.514  19.260  0.00  0.00    +0.000 A 
ATOM     18  C   UNL     1      36.936  -1.377  19.239  0.00  0.00    +0.000 A 
ATOM     19  C   UNL     1      37.615  -1.682  18.098  0.00  0.00    +0.000 A 
ENDBRANCH   4  14
BRANCH   6  20
ATOM     20  C   UNL     1      41.313  -0.780  14.166  0.00  0.00    +0.000 A 
ATOM     21  C   UNL     1      41.551   0.388  13.464  0.00  0.00    +0.000 A 
ATOM     22  C   UNL     1      42.833   0.878  13.336  0.00  0.00    +0.000 A 
ATOM     23  C   UNL     1      43.934   0.259  13.881  0.00  0.00    +0.000 A 
ATOM     24  C   UNL     1      43.691  -0.925  14.590  0.00  0.00    +0.000 A 
ATOM     25  C   UNL     1      42.409  -1.407  14.713  0.00  0.00    +0.000 A 
BRANCH  23  26
ATOM     26  O   UNL     1      45.236   0.732  13.770  0.00  0.00    +0.000 OA
BRANCH  26  27
ATOM     27  C   UNL     1      46.322  -0.137  13.656  0.00  0.00    +0.000 C 
BRANCH  27  28
ATOM     28  C   UNL     1      46.374  -0.641  12.217  0.00  0.00    +0.000 C 
BRANCH  28  29
ATOM     29  N   UNL     1      46.679  -2.067  12.280  0.00  0.00    +0.000 NA
ATOM     30  C   UNL     1      45.584  -2.834  11.734  0.00  0.00    +0.000 C 
ATOM     31  C   UNL     1      45.062  -3.740  12.796  0.00  0.00    +0.000 C 
ATOM     32  C   UNL     1      46.129  -3.766  13.868  0.00  0.00    +0.000 C 
ATOM     33  C   UNL     1      46.910  -2.520  13.627  0.00  0.00    +0.000 C 
ENDBRANCH  28  29
ENDBRANCH  27  28
ENDBRANCH  26  27
ENDBRANCH  23  26
ENDBRANCH   6  20
TORSDOF 7
ENDMDL
MODEL 6
REMARK VINA RESULT:      -7.1      7.161     12.131
REMARK  Name = 
REMARK  7 active torsions:
REMARK  status: ('A' for Active; 'I' for Inactive)
REMARK    1  A    between atoms: C_5  and  C_6
REMARK    2  A    between atoms: C_9  and  C_10
REMARK    3  A    between atoms: C_17  and  C_18
REMARK    4  A    between atoms: C_21  and  O_22
REMARK    5  A    between atoms: O_22  and  C_23
REMARK    6  A    between atoms: C_23  and  C_24
REMARK    7  A    between atoms: C_24  and  N_25
REMARK                            x       y       z     vdW  Elec       q    Type
REMARK                         _______ _______ _______ _____ _____    ______ ____
ROOT
ATOM      1  C   UNL     1      40.303   7.909  19.318  0.00  0.00    +0.000 A 
ATOM      2  C   UNL     1      41.089   8.657  20.210  0.00  0.00    +0.000 A 
ATOM      3  C   UNL     1      42.292   8.119  20.605  0.00  0.00    +0.000 A 
ATOM      4  C   UNL     1      42.741   6.891  20.163  0.00  0.00    +0.000 A 
ATOM      5  N   UNL     1      41.967   6.205  19.314  0.00  0.00    +0.000 NA
ATOM      6  C   UNL     1      40.761   6.694  18.889  0.00  0.00    +0.000 A 
ENDROOT
BRANCH   1  11
ATOM      7  O   UNL     1      35.360   9.972  17.626  0.00  0.00    +0.000 OA
ATOM      8  C   UNL     1      36.575   9.465  18.051  0.00  0.00    +0.000 A 
ATOM      9  C   UNL     1      36.689   8.779  19.239  0.00  0.00    +0.000 A 
ATOM     10  C   UNL     1      37.891   8.267  19.671  0.00  0.00    +0.000 A 
ATOM     11  C   UNL     1      39.026   8.457  18.872  0.00  0.00    +0.000 A 
ATOM     12  C   UNL     1      38.907   9.133  17.704  0.00  0.00    +0.000 A 
ATOM     13  C   UNL     1      37.703   9.635  17.287  0.00  0.00    +0.000 A 
ENDBRANCH   1  11
BRANCH   4  14
ATOM     14  C   UNL     1      44.046   6.360  20.608  0.00  0.00    +0.000 A 
ATOM     15  C   UNL     1      45.224   6.621  19.970  0.00  0.00    +0.000 A 
ATOM     16  C   UNL     1      46.435   6.097  20.420  0.00  0.00    +0.000 A 
ATOM     17  C   UNL     1      46.474   5.291  21.535  0.00  0.00    +0.000 A 
ATOM     18  C   UNL     1      45.283   5.039  22.165  0.00  0.00    +0.000 A 
ATOM     19  C   UNL     1      44.098   5.549  21.730  0.00  0.00    +0.000 A 
ENDBRANCH   4  14
BRANCH   6  20
ATOM     20  C   UNL     1      39.942   5.907  17.969  0.00  0.00    +0.000 A 
ATOM     21  C   UNL     1      40.134   5.960  16.600  0.00  0.00    +0.000 A 
ATOM     22  C   UNL     1      39.366   5.188  15.755  0.00  0.00    +0.000 A 
ATOM     23  C   UNL     1      38.383   4.334  16.201  0.00  0.00    +0.000 A 
ATOM     24  C   UNL     1      38.190   4.283  17.588  0.00  0.00    +0.000 A 
ATOM     25  C   UNL     1      38.961   5.057  18.423  0.00  0.00    +0.000 A 
BRANCH  23  26
ATOM     26  O   UNL     1      37.596   3.542  15.373  0.00  0.00    +0.000 OA
BRANCH  26  27
ATOM     27  C   UNL     1      37.985   2.252  15.010  0.00  0.00    +0.000 C 
BRANCH  27  28
ATOM     28  C   UNL     1      36.905   1.283  15.481  0.00  0.00    +0.000 C 
BRANCH  28  29
ATOM     29  N   UNL     1      37.328  -0.052  15.069  0.00  0.00    +0.000 NA
ATOM     30  C   UNL     1      37.107  -0.996  16.140  0.00  0.00    +0.000 C 
ATOM     31  C   UNL     1      38.416  -1.598  16.520  0.00  0.00    +0.000 C 
ATOM     32  C   UNL     1      39.359  -1.271  15.384  0.00  0.00    +0.000 C 
ATOM     33  C   UNL     1      38.722  -0.102  14.715  0.00  0.00    +0.000 C 
ENDBRANCH  28  29
ENDBRANCH  27  28
ENDBRANCH  26  27
ENDBRANCH  23  26
ENDBRANCH   6  20
TORSDOF 7
ENDMDL
MODEL 7
REMARK VINA RESULT:      -7.0      8.534     12.557
REMARK  Name = 
REMARK  7 active torsions:
REMARK  status: ('A' for Active; 'I' for Inactive)
REMARK    1  A    between atoms: C_5  and  C_6
REMARK    2  A    between atoms: C_9  and  C_10
REMARK    3  A    between atoms: C_17  and  C_18
REMARK    4  A    between atoms: C_21  and  O_22
REMARK    5  A    between atoms: O_22  and  C_23
REMARK    6  A    between atoms: C_23  and  C_24
REMARK    7  A    between atoms: C_24  and  N_25
REMARK                            x       y       z     vdW  Elec       q    Type
REMARK                         _______ _______ _______ _____ _____    ______ ____
ROOT
ATOM      1  C   UNL     1      40.311   7.953  19.340  0.00  0.00    +0.000 A 
ATOM      2  C   UNL     1      41.117   8.686  20.226  0.00  0.00    +0.000 A 
ATOM      3  C   UNL     1      42.320   8.131  20.601  0.00  0.00    +0.000 A 
ATOM      4  C   UNL     1      42.749   6.902  20.145  0.00  0.00    +0.000 A 
ATOM      5  N   UNL     1      41.955   6.231  19.302  0.00  0.00    +0.000 NA
ATOM      6  C   UNL     1      40.749   6.736  18.897  0.00  0.00    +0.000 A 
ENDROOT
BRANCH   1  11
ATOM      7  O   UNL     1      35.370  10.084  17.726  0.00  0.00    +0.000 OA
ATOM      8  C   UNL     1      36.585   9.559  18.132  0.00  0.00    +0.000 A 
ATOM      9  C   UNL     1      36.701   8.839  19.300  0.00  0.00    +0.000 A 
ATOM     10  C   UNL     1      37.902   8.311  19.712  0.00  0.00    +0.000 A 
ATOM     11  C   UNL     1      39.035   8.518  18.915  0.00  0.00    +0.000 A 
ATOM     12  C   UNL     1      38.914   9.228  17.766  0.00  0.00    +0.000 A 
ATOM     13  C   UNL     1      37.710   9.747  17.369  0.00  0.00    +0.000 A 
ENDBRANCH   1  11
BRANCH   4  14
ATOM     14  C   UNL     1      44.053   6.353  20.569  0.00  0.00    +0.000 A 
ATOM     15  C   UNL     1      44.221   5.581  21.683  0.00  0.00    +0.000 A 
ATOM     16  C   UNL     1      45.470   5.085  22.051  0.00  0.00    +0.000 A 
ATOM     17  C   UNL     1      46.583   5.367  21.291  0.00  0.00    +0.000 A 
ATOM     18  C   UNL     1      46.398   6.143  20.177  0.00  0.00    +0.000 A 
ATOM     19  C   UNL     1      45.180   6.628  19.812  0.00  0.00    +0.000 A 
ENDBRANCH   4  14
BRANCH   6  20
ATOM     20  C   UNL     1      39.909   5.964  17.982  0.00  0.00    +0.000 A 
ATOM     21  C   UNL     1      38.927   5.108  18.447  0.00  0.00    +0.000 A 
ATOM     22  C   UNL     1      38.132   4.411  17.562  0.00  0.00    +0.000 A 
ATOM     23  C   UNL     1      38.255   4.514  16.196  0.00  0.00    +0.000 A 
ATOM     24  C   UNL     1      39.252   5.381  15.728  0.00  0.00    +0.000 A 
ATOM     25  C   UNL     1      40.040   6.073  16.617  0.00  0.00    +0.000 A 
BRANCH  23  26
ATOM     26  O   UNL     1      37.466   3.826  15.282  0.00  0.00    +0.000 OA
BRANCH  26  27
ATOM     27  C   UNL     1      36.978   4.442  14.128  0.00  0.00    +0.000 C 
BRANCH  27  28
ATOM     28  C   UNL     1      35.502   4.760  14.352  0.00  0.00    +0.000 C 
BRANCH  28  29
ATOM     29  N   UNL     1      35.239   6.030  13.683  0.00  0.00    +0.000 NA
ATOM     30  C   UNL     1      36.235   7.007  14.061  0.00  0.00    +0.000 C 
ATOM     31  C   UNL     1      35.549   8.155  14.720  0.00  0.00    +0.000 C 
ATOM     32  C   UNL     1      34.084   8.007  14.372  0.00  0.00    +0.000 C 
ATOM     33  C   UNL     1      33.945   6.567  14.015  0.00  0.00    +0.000 C 
ENDBRANCH  28  29
ENDBRANCH  27  28
ENDBRANCH  26  27
ENDBRANCH  23  26
ENDBRANCH   6  20
TORSDOF 7
ENDMDL
MODEL 8
REMARK VINA RESULT:      -6.9      4.174      7.903
REMARK  Name = 
REMARK  7 active torsions:
REMARK  status: ('A' for Active; 'I' for Inactive)
REMARK    1  A    between atoms: C_5  and  C_6
REMARK    2  A    between atoms: C_9  and  C_10
REMARK    3  A    between atoms: C_17  and  C_18
REMARK    4  A    between atoms: C_21  and  O_22
REMARK    5  A    between atoms: O_22  and  C_23
REMARK    6  A    between atoms: C_23  and  C_24
REMARK    7  A    between atoms: C_24  and  N_25
REMARK                            x       y       z     vdW  Elec       q    Type
REMARK                         _______ _______ _______ _____ _____    ______ ____
ROOT
ATOM      1  C   UNL     1      37.452   3.143  11.727  0.00  0.00    +0.000 A 
ATOM      2  C   UNL     1      37.064   4.221  10.916  0.00  0.00    +0.000 A 
ATOM      3  C   UNL     1      36.741   3.950   9.606  0.00  0.00    +0.000 A 
ATOM      4  C   UNL     1      36.787   2.678   9.074  0.00  0.00    +0.000 A 
ATOM      5  N   UNL     1      37.161   1.674   9.876  0.00  0.00    +0.000 NA
ATOM      6  C   UNL     1      37.492   1.888  11.187  0.00  0.00    +0.000 A 
ENDROOT
BRANCH   1  11
ATOM      7  O   UNL     1      38.704   4.145  17.110  0.00  0.00    +0.000 OA
ATOM      8  C   UNL     1      38.389   3.894  15.786  0.00  0.00    +0.000 A 
ATOM      9  C   UNL     1      37.086   3.698  15.384  0.00  0.00    +0.000 A 
ATOM     10  C   UNL     1      36.760   3.451  14.071  0.00  0.00    +0.000 A 
ATOM     11  C   UNL     1      37.791   3.395  13.123  0.00  0.00    +0.000 A 
ATOM     12  C   UNL     1      39.071   3.588  13.526  0.00  0.00    +0.000 A 
ATOM     13  C   UNL     1      39.378   3.835  14.838  0.00  0.00    +0.000 A 
ENDBRANCH   1  11
BRANCH   4  14
ATOM     14  C   UNL     1      36.420   2.436   7.664  0.00  0.00    +0.000 A 
ATOM     15  C   UNL     1      35.838   3.377   6.863  0.00  0.00    +0.000 A 
ATOM     16  C   UNL     1      35.504   3.107   5.537  0.00  0.00    +0.000 A 
ATOM     17  C   UNL     1      35.755   1.868   4.994  0.00  0.00    +0.000 A 
ATOM     18  C   UNL     1      36.339   0.935   5.809  0.00  0.00    +0.000 A 
ATOM     19  C   UNL     1      36.669   1.194   7.105  0.00  0.00    +0.000 A 
ENDBRANCH   4  14
BRANCH   6  20
ATOM     20  C   UNL     1      37.905   0.762  12.023  0.00  0.00    +0.000 A 
ATOM     21  C   UNL     1      37.007   0.097  12.840  0.00  0.00    +0.000 A 
ATOM     22  C   UNL     1      37.415  -0.977  13.599  0.00  0.00    +0.000 A 
ATOM     23  C   UNL     1      38.707  -1.452  13.600  0.00  0.00    +0.000 A 
ATOM     24  C   UNL     1      39.615  -0.776  12.774  0.00  0.00    +0.000 A 
ATOM     25  C   UNL     1      39.198   0.296  12.019  0.00  0.00    +0.000 A 
BRANCH  23  26
ATOM     26  O   UNL     1      39.146  -2.534  14.354  0.00  0.00    +0.000 OA
BRANCH  26  27
ATOM     27  C   UNL     1      39.454  -2.404  15.709  0.00  0.00    +0.000 C 
BRANCH  27  28
ATOM     28  C   UNL     1      38.174  -2.632  16.507  0.00  0.00    +0.000 C 
BRANCH  28  29
ATOM     29  N   UNL     1      38.044  -1.505  17.426  0.00  0.00    +0.000 NA
ATOM     30  C   UNL     1      38.181  -1.959  18.791  0.00  0.00    +0.000 C 
ATOM     31  C   UNL     1      36.925  -1.639  19.527  0.00  0.00    +0.000 C 
ATOM     32  C   UNL     1      36.193  -0.636  18.662  0.00  0.00    +0.000 C 
ATOM     33  C   UNL     1      36.773  -0.842  17.305  0.00  0.00    +0.000 C 
ENDBRANCH  28  29
ENDBRANCH  27  28
ENDBRANCH  26  27
ENDBRANCH  23  26
ENDBRANCH   6  20
TORSDOF 7
ENDMDL
MODEL 9
REMARK VINA RESULT:      -6.9      4.701      7.102
REMARK  Name = 
REMARK  7 active torsions:
REMARK  status: ('A' for Active; 'I' for Inactive)
REMARK    1  A    between atoms: C_5  and  C_6
REMARK    2  A    between atoms: C_9  and  C_10
REMARK    3  A    between atoms: C_17  and  C_18
REMARK    4  A    between atoms: C_21  and  O_22
REMARK    5  A    between atoms: O_22  and  C_23
REMARK    6  A    between atoms: C_23  and  C_24
REMARK    7  A    between atoms: C_24  and  N_25
REMARK                            x       y       z     vdW  Elec       q    Type
REMARK                         _______ _______ _______ _____ _____    ______ ____
ROOT
ATOM      1  C   UNL     1      39.960  -1.844  14.194  0.00  0.00    +0.000 A 
ATOM      2  C   UNL     1      40.215  -3.038  14.887  0.00  0.00    +0.000 A 
ATOM      3  C   UNL     1      39.701  -3.160  16.158  0.00  0.00    +0.000 A 
ATOM      4  C   UNL     1      38.959  -2.166  16.761  0.00  0.00    +0.000 A 
ATOM      5  N   UNL     1      38.734  -1.041  16.071  0.00  0.00    +0.000 NA
ATOM      6  C   UNL     1      39.222  -0.868  14.804  0.00  0.00    +0.000 A 
ENDROOT
BRANCH   1  11
ATOM      7  O   UNL     1      41.943  -1.295   8.968  0.00  0.00    +0.000 OA
ATOM      8  C   UNL     1      41.446  -1.430  10.252  0.00  0.00    +0.000 A 
ATOM      9  C   UNL     1      40.222  -2.015  10.490  0.00  0.00    +0.000 A 
ATOM     10  C   UNL     1      39.720  -2.157  11.763  0.00  0.00    +0.000 A 
ATOM     11  C   UNL     1      40.482  -1.688  12.841  0.00  0.00    +0.000 A 
ATOM     12  C   UNL     1      41.685  -1.113  12.600  0.00  0.00    +0.000 A 
ATOM     13  C   UNL     1      42.172  -0.981  11.326  0.00  0.00    +0.000 A 
ENDBRANCH   1  11
BRANCH   4  14
ATOM     14  C   UNL     1      38.420  -2.349  18.125  0.00  0.00    +0.000 A 
ATOM     15  C   UNL     1      37.464  -1.542  18.672  0.00  0.00    +0.000 A 
ATOM     16  C   UNL     1      36.984  -1.745  19.965  0.00  0.00    +0.000 A 
ATOM     17  C   UNL     1      37.469  -2.780  20.733  0.00  0.00    +0.000 A 
ATOM     18  C   UNL     1      38.427  -3.581  20.170  0.00  0.00    +0.000 A 
ATOM     19  C   UNL     1      38.899  -3.386  18.907  0.00  0.00    +0.000 A 
ENDBRANCH   4  14
BRANCH   6  20
ATOM     20  C   UNL     1      38.961   0.381  14.091  0.00  0.00    +0.000 A 
ATOM     21  C   UNL     1      39.810   1.468  14.197  0.00  0.00    +0.000 A 
ATOM     22  C   UNL     1      39.554   2.626  13.493  0.00  0.00    +0.000 A 
ATOM     23  C   UNL     1      38.469   2.778  12.661  0.00  0.00    +0.000 A 
ATOM     24  C   UNL     1      37.610   1.675  12.557  0.00  0.00    +0.000 A 
ATOM     25  C   UNL     1      37.873   0.524  13.262  0.00  0.00    +0.000 A 
BRANCH  23  26
ATOM     26  O   UNL     1      38.188   3.931  11.938  0.00  0.00    +0.000 OA
BRANCH  26  27
ATOM     27  C   UNL     1      37.078   4.724  12.230  0.00  0.00    +0.000 C 
BRANCH  27  28
ATOM     28  C   UNL     1      37.449   5.648  13.386  0.00  0.00    +0.000 C 
BRANCH  28  29
ATOM     29  N   UNL     1      36.548   5.326  14.489  0.00  0.00    +0.000 NA
ATOM     30  C   UNL     1      37.283   4.698  15.563  0.00  0.00    +0.000 C 
ATOM     31  C   UNL     1      36.720   3.337  15.793  0.00  0.00    +0.000 C 
ATOM     32  C   UNL     1      35.382   3.328  15.087  0.00  0.00    +0.000 C 
ATOM     33  C   UNL     1      35.493   4.430  14.092  0.00  0.00    +0.000 C 
ENDBRANCH  28  29
ENDBRANCH  27  28
ENDBRANCH  26  27
ENDBRANCH  23  26
ENDBRANCH   6  20
TORSDOF 7
ENDMDL
MODEL 10
REMARK VINA RESULT:      -6.9      4.420      7.227
REMARK  Name = 
REMARK  7 active torsions:
REMARK  status: ('A' for Active; 'I' for Inactive)
REMARK    1  A    between atoms: C_5  and  C_6
REMARK    2  A    between atoms: C_9  and  C_10
REMARK    3  A    between atoms: C_17  and  C_18
REMARK    4  A    between atoms: C_21  and  O_22
REMARK    5  A    between atoms: O_22  and  C_23
REMARK    6  A    between atoms: C_23  and  C_24
REMARK    7  A    between atoms: C_24  and  N_25
REMARK                            x       y       z     vdW  Elec       q    Type
REMARK                         _______ _______ _______ _____ _____    ______ ____
ROOT
ATOM      1  C   UNL     1      38.977  -1.388  13.169  0.00  0.00    +0.000 A 
ATOM      2  C   UNL     1      37.589  -1.559  13.297  0.00  0.00    +0.000 A 
ATOM      3  C   UNL     1      37.038  -1.387  14.546  0.00  0.00    +0.000 A 
ATOM      4  C   UNL     1      37.790  -1.059  15.655  0.00  0.00    +0.000 A 
ATOM      5  N   UNL     1      39.110  -0.903  15.497  0.00  0.00    +0.000 NA
ATOM      6  C   UNL     1      39.710  -1.063  14.276  0.00  0.00    +0.000 A 
ENDROOT
BRANCH   1  11
ATOM      7  O   UNL     1      41.303  -1.985   8.091  0.00  0.00    +0.000 OA
ATOM      8  C   UNL     1      40.732  -1.829   9.342  0.00  0.00    +0.000 A 
ATOM      9  C   UNL     1      40.245  -0.612   9.762  0.00  0.00    +0.000 A 
ATOM     10  C   UNL     1      39.674  -0.446  11.002  0.00  0.00    +0.000 A 
ATOM     11  C   UNL     1      39.591  -1.554  11.856  0.00  0.00    +0.000 A 
ATOM     12  C   UNL     1      40.072  -2.749  11.436  0.00  0.00    +0.000 A 
ATOM     13  C   UNL     1      40.637  -2.898  10.198  0.00  0.00    +0.000 A 
ENDBRANCH   1  11
BRANCH   4  14
ATOM     14  C   UNL     1      37.150  -0.874  16.973  0.00  0.00    +0.000 A 
ATOM     15  C   UNL     1      36.170   0.046  17.214  0.00  0.00    +0.000 A 
ATOM     16  C   UNL     1      35.594   0.192  18.475  0.00  0.00    +0.000 A 
ATOM     17  C   UNL     1      36.005  -0.599  19.524  0.00  0.00    +0.000 A 
ATOM     18  C   UNL     1      36.988  -1.517  19.267  0.00  0.00    +0.000 A 
ATOM     19  C   UNL     1      37.554  -1.664  18.037  0.00  0.00    +0.000 A 
ENDBRANCH   4  14
BRANCH   6  20
ATOM     20  C   UNL     1      41.156  -0.893  14.152  0.00  0.00    +0.000 A 
ATOM     21  C   UNL     1      41.717   0.324  13.808  0.00  0.00    +0.000 A 
ATOM     22  C   UNL     1      43.086   0.465  13.722  0.00  0.00    +0.000 A 
ATOM     23  C   UNL     1      43.965  -0.566  13.965  0.00  0.00    +0.000 A 
ATOM     24  C   UNL     1      43.394  -1.798  14.311  0.00  0.00    +0.000 A 
ATOM     25  C   UNL     1      42.028  -1.929  14.395  0.00  0.00    +0.000 A 
BRANCH  23  26
ATOM     26  O   UNL     1      45.348  -0.452  13.888  0.00  0.00    +0.000 OA
BRANCH  26  27
ATOM     27  C   UNL     1      46.176  -0.900  14.919  0.00  0.00    +0.000 C 
BRANCH  27  28
ATOM     28  C   UNL     1      46.146   0.141  16.034  0.00  0.00    +0.000 C 
BRANCH  28  29
ATOM     29  N   UNL     1      45.735  -0.554  17.249  0.00  0.00    +0.000 NA
ATOM     30  C   UNL     1      46.502  -0.079  18.378  0.00  0.00    +0.000 C 
ATOM     31  C   UNL     1      47.252  -1.227  18.961  0.00  0.00    +0.000 C 
ATOM     32  C   UNL     1      46.605  -2.468  18.386  0.00  0.00    +0.000 C 
ATOM     33  C   UNL     1      45.921  -1.979  17.156  0.00  0.00    +0.000 C 
ENDBRANCH  28  29
ENDBRANCH  27  28
ENDBRANCH  26  27
ENDBRANCH  23  26
ENDBRANCH   6  20
TORSDOF 7
ENDMDL
