MODEL 1
REMARK VINA RESULT:      -8.6      0.000      0.000
REMARK  Name = 
REMARK  5 active torsions:
REMARK  status: ('A' for Active; 'I' for Inactive)
REMARK    1  A    between atoms: C_2  and  O_4
REMARK    2  A    between atoms: O_4  and  C_5
REMARK    3  A    between atoms: C_10  and  C_11
REMARK    4  A    between atoms: C_13  and  C_14
REMARK    5  A    between atoms: N_16  and  C_17
REMARK                            x       y       z     vdW  Elec       q    Type
REMARK                         _______ _______ _______ _____ _____    ______ ____
ROOT
ATOM      1  C   UNL     1      39.096   5.571  16.585  0.00  0.00    +0.000 A 
ATOM      2  C   UNL     1      38.939   4.289  16.132  0.00  0.00    +0.000 A 
ATOM      3  C   UNL     1      37.958   4.032  15.198  0.00  0.00    +0.000 A 
ATOM      4  C   UNL     1      37.190   5.092  14.775  0.00  0.00    +0.000 A 
ATOM      5  C   UNL     1      36.216   4.839  13.846  0.00  0.00    +0.000 A 
ATOM      6  C   UNL     1      35.376   5.822  13.338  0.00  0.00    +0.000 A 
ATOM      7  C   UNL     1      35.543   7.105  13.799  0.00  0.00    +0.000 A 
ATOM      8  C   UNL     1      36.519   7.374  14.734  0.00  0.00    +0.000 A 
ATOM      9  C   UNL     1      37.336   6.383  15.219  0.00  0.00    +0.000 A 
ATOM     10  N   UNL     1      38.309   6.593  16.136  0.00  0.00    +0.000 NA
ENDROOT
BRANCH   1  16
ATOM     11  C   UNL     1      41.366   6.351  17.270  0.00  0.00    +0.000 A 
ATOM     12  C   UNL     1      42.223   6.684  18.348  0.00  0.00    +0.000 A 
ATOM     13  C   UNL     1      41.880   6.645  19.656  0.00  0.00    +0.000 A 
ATOM     14  C   UNL     1      40.583   6.246  19.940  0.00  0.00    +0.000 A 
ATOM     15  C   UNL     1      39.737   5.920  18.943  0.00  0.00    +0.000 A 
ATOM     16  C   UNL     1      40.084   5.959  17.623  0.00  0.00    +0.000 A 
BRANCH  11  17
ATOM     17  O   UNL     1      41.805   6.429  16.041  0.00  0.00    +0.000 OA
BRANCH  17  19
ATOM     18  C   UNL     1      41.714   5.399  13.875  0.00  0.00    +0.000 C 
ATOM     19  C   UNL     1      42.237   6.501  14.835  0.00  0.00    +0.000 C 
ATOM     20  C   UNL     1      43.780   6.506  14.652  0.00  0.00    +0.000 C 
ENDBRANCH  17  19
ENDBRANCH  11  17
ENDBRANCH   1  16
BRANCH   3  21
ATOM     21  C   UNL     1      37.688   2.701  14.669  0.00  0.00    +0.000 C 
ATOM     22  O   UNL     1      37.881   2.530  13.446  0.00  0.00    +0.000 OA
ATOM     23  N   UNL     1      37.234   1.600  15.413  0.00  0.00    +0.000 NA
BRANCH  23  24
ATOM     24  C   UNL     1      37.028   0.254  14.615  0.00  0.00    +0.000 C 
ATOM     25  C   UNL     1      38.393  -0.453  15.286  0.00  0.00    +0.000 C 
ATOM     26  C   UNL     1      38.453  -1.672  14.375  0.00  0.00    +0.000 C 
ATOM     27  C   UNL     1      37.150  -2.413  14.403  0.00  0.00    +0.000 C 
ATOM     28  C   UNL     1      36.180  -1.841  15.398  0.00  0.00    +0.000 A 
ATOM     29  C   UNL     1      35.400  -2.728  16.149  0.00  0.00    +0.000 A 
ATOM     30  C   UNL     1      34.525  -2.158  17.048  0.00  0.00    +0.000 A 
ATOM     31  C   UNL     1      34.409  -0.797  17.214  0.00  0.00    +0.000 A 
ATOM     32  C   UNL     1      35.205   0.045  16.443  0.00  0.00    +0.000 A 
ATOM     33  C   UNL     1      36.037  -0.503  15.588  0.00  0.00    +0.000 A 
ENDBRANCH  23  24
ENDBRANCH   3  21
TORSDOF 5
ENDMDL
MODEL 2
REMARK VINA RESULT:      -8.6      2.277      8.633
REMARK  Name = 
REMARK  5 active torsions:
REMARK  status: ('A' for Active; 'I' for Inactive)
REMARK    1  A    between atoms: C_2  and  O_4
REMARK    2  A    between atoms: O_4  and  C_5
REMARK    3  A    between atoms: C_10  and  C_11
REMARK    4  A    between atoms: C_13  and  C_14
REMARK    5  A    between atoms: N_16  and  C_17
REMARK                            x       y       z     vdW  Elec       q    Type
REMARK                         _______ _______ _______ _____ _____    ______ ____
ROOT
ATOM      1  C   UNL     1      37.754  -1.406  14.808  0.00  0.00    +0.000 A 
ATOM      2  C   UNL     1      37.687  -0.046  14.665  0.00  0.00    +0.000 A 
ATOM      3  C   UNL     1      38.855   0.656  14.457  0.00  0.00    +0.000 A 
ATOM      4  C   UNL     1      40.027  -0.062  14.405  0.00  0.00    +0.000 A 
ATOM      5  C   UNL     1      41.188   0.634  14.196  0.00  0.00    +0.000 A 
ATOM      6  C   UNL     1      42.436   0.028  14.123  0.00  0.00    +0.000 A 
ATOM      7  C   UNL     1      42.491  -1.337  14.267  0.00  0.00    +0.000 A 
ATOM      8  C   UNL     1      41.331  -2.051  14.478  0.00  0.00    +0.000 A 
ATOM      9  C   UNL     1      40.110  -1.425  14.546  0.00  0.00    +0.000 A 
ATOM     10  N   UNL     1      38.942  -2.077  14.750  0.00  0.00    +0.000 NA
ENDROOT
BRANCH   1  16
ATOM     11  C   UNL     1      35.708  -1.962  16.126  0.00  0.00    +0.000 A 
ATOM     12  C   UNL     1      34.625  -2.858  16.300  0.00  0.00    +0.000 A 
ATOM     13  C   UNL     1      34.388  -3.951  15.539  0.00  0.00    +0.000 A 
ATOM     14  C   UNL     1      35.289  -4.192  14.513  0.00  0.00    +0.000 A 
ATOM     15  C   UNL     1      36.333  -3.364  14.314  0.00  0.00    +0.000 A 
ATOM     16  C   UNL     1      36.572  -2.261  15.084  0.00  0.00    +0.000 A 
BRANCH  11  17
ATOM     17  O   UNL     1      35.837  -0.934  16.922  0.00  0.00    +0.000 OA
BRANCH  17  19
ATOM     18  C   UNL     1      35.588  -0.173  19.185  0.00  0.00    +0.000 C 
ATOM     19  C   UNL     1      35.964   0.079  17.701  0.00  0.00    +0.000 C 
ATOM     20  C   UNL     1      35.191   1.365  17.295  0.00  0.00    +0.000 C 
ENDBRANCH  17  19
ENDBRANCH  11  17
ENDBRANCH   1  16
BRANCH   3  21
ATOM     21  C   UNL     1      38.901   2.106  14.318  0.00  0.00    +0.000 C 
ATOM     22  O   UNL     1      39.176   2.556  13.185  0.00  0.00    +0.000 OA
ATOM     23  N   UNL     1      38.660   3.035  15.343  0.00  0.00    +0.000 NA
BRANCH  23  24
ATOM     24  C   UNL     1      38.755   4.559  14.941  0.00  0.00    +0.000 C 
ATOM     25  C   UNL     1      37.094   4.703  14.762  0.00  0.00    +0.000 C 
ATOM     26  C   UNL     1      37.084   6.076  14.104  0.00  0.00    +0.000 C 
ATOM     27  C   UNL     1      37.823   7.070  14.949  0.00  0.00    +0.000 C 
ATOM     28  C   UNL     1      38.270   6.492  16.263  0.00  0.00    +0.000 A 
ATOM     29  C   UNL     1      38.177   7.295  17.405  0.00  0.00    +0.000 A 
ATOM     30  C   UNL     1      38.598   6.725  18.587  0.00  0.00    +0.000 A 
ATOM     31  C   UNL     1      39.087   5.440  18.661  0.00  0.00    +0.000 A 
ATOM     32  C   UNL     1      39.161   4.680  17.496  0.00  0.00    +0.000 A 
ATOM     33  C   UNL     1      38.758   5.230  16.374  0.00  0.00    +0.000 A 
ENDBRANCH  23  24
ENDBRANCH   3  21
TORSDOF 5
ENDMDL
MODEL 3
REMARK VINA RESULT:      -8.5      1.860      3.300
REMARK  Name = 
REMARK  5 active torsions:
REMARK  status: ('A' for Active; 'I' for Inactive)
REMARK    1  A    between atoms: C_2  and  O_4
REMARK    2  A    between atoms: O_4  and  C_5
REMARK    3  A    between atoms: C_10  and  C_11
REMARK    4  A    between atoms: C_13  and  C_14
REMARK    5  A    between atoms: N_16  and  C_17
REMARK                            x       y       z     vdW  Elec       q    Type
REMARK                         _______ _______ _______ _____ _____    ______ ____
ROOT
ATOM      1  C   UNL     1      39.007   6.337  17.351  0.00  0.00    +0.000 A 
ATOM      2  C   UNL     1      38.250   5.266  16.959  0.00  0.00    +0.000 A 
ATOM      3  C   UNL     1      38.637   4.554  15.843  0.00  0.00    +0.000 A 
ATOM      4  C   UNL     1      39.772   4.971  15.186  0.00  0.00    +0.000 A 
ATOM      5  C   UNL     1      40.159   4.264  14.079  0.00  0.00    +0.000 A 
ATOM      6  C   UNL     1      41.285   4.581  13.329  0.00  0.00    +0.000 A 
ATOM      7  C   UNL     1      42.037   5.658  13.732  0.00  0.00    +0.000 A 
ATOM      8  C   UNL     1      41.659   6.378  14.845  0.00  0.00    +0.000 A 
ATOM      9  C   UNL     1      40.541   6.043  15.568  0.00  0.00    +0.000 A 
ATOM     10  N   UNL     1      40.127   6.714  16.667  0.00  0.00    +0.000 NA
ENDROOT
BRANCH   1  16
ATOM     11  C   UNL     1      39.553   7.374  19.555  0.00  0.00    +0.000 A 
ATOM     12  C   UNL     1      39.108   8.214  20.606  0.00  0.00    +0.000 A 
ATOM     13  C   UNL     1      37.911   8.841  20.647  0.00  0.00    +0.000 A 
ATOM     14  C   UNL     1      37.069   8.632  19.565  0.00  0.00    +0.000 A 
ATOM     15  C   UNL     1      37.454   7.839  18.545  0.00  0.00    +0.000 A 
ATOM     16  C   UNL     1      38.663   7.205  18.504  0.00  0.00    +0.000 A 
BRANCH  11  17
ATOM     17  O   UNL     1      40.735   6.821  19.619  0.00  0.00    +0.000 OA
BRANCH  17  19
ATOM     18  C   UNL     1      42.616   6.397  21.049  0.00  0.00    +0.000 C 
ATOM     19  C   UNL     1      41.897   6.278  19.679  0.00  0.00    +0.000 C 
ATOM     20  C   UNL     1      42.937   6.754  18.626  0.00  0.00    +0.000 C 
ENDBRANCH  17  19
ENDBRANCH  11  17
ENDBRANCH   1  16
BRANCH   3  21
ATOM     21  C   UNL     1      37.891   3.415  15.324  0.00  0.00    +0.000 C 
ATOM     22  O   UNL     1      36.997   3.660  14.486  0.00  0.00    +0.000 OA
ATOM     23  N   UNL     1      38.092   2.072  15.682  0.00  0.00    +0.000 NA
BRANCH  23  24
ATOM     24  C   UNL     1      37.164   1.013  14.969  0.00  0.00    +0.000 C 
ATOM     25  C   UNL     1      38.353  -0.170  14.990  0.00  0.00    +0.000 C 
ATOM     26  C   UNL     1      37.657  -1.167  14.073  0.00  0.00    +0.000 C 
ATOM     27  C   UNL     1      36.287  -1.489  14.591  0.00  0.00    +0.000 C 
ATOM     28  C   UNL     1      36.007  -0.851  15.923  0.00  0.00    +0.000 A 
ATOM     29  C   UNL     1      35.307  -1.594  16.879  0.00  0.00    +0.000 A 
ATOM     30  C   UNL     1      35.073  -0.968  18.085  0.00  0.00    +0.000 A 
ATOM     31  C   UNL     1      35.494   0.315  18.352  0.00  0.00    +0.000 A 
ATOM     32  C   UNL     1      36.186   1.014  17.367  0.00  0.00    +0.000 A 
ATOM     33  C   UNL     1      36.406   0.412  16.221  0.00  0.00    +0.000 A 
ENDBRANCH  23  24
ENDBRANCH   3  21
TORSDOF 5
ENDMDL
MODEL 4
REMARK VINA RESULT:      -8.4      2.391      8.011
REMARK  Name = 
REMARK  5 active torsions:
REMARK  status: ('A' for Active; 'I' for Inactive)
REMARK    1  A    between atoms: C_2  and  O_4
REMARK    2  A    between atoms: O_4  and  C_5
REMARK    3  A    between atoms: C_10  and  C_11
REMARK    4  A    between atoms: C_13  and  C_14
REMARK    5  A    between atoms: N_16  and  C_17
REMARK                            x       y       z     vdW  Elec       q    Type
REMARK                         _______ _______ _______ _____ _____    ______ ____
ROOT
ATOM      1  C   UNL     1      36.634   2.463  16.157  0.00  0.00    +0.000 A 
ATOM      2  C   UNL     1      36.347   3.265  15.085  0.00  0.00    +0.000 A 
ATOM      3  C   UNL     1      36.847   4.550  15.066  0.00  0.00    +0.000 A 
ATOM      4  C   UNL     1      37.612   4.950  16.138  0.00  0.00    +0.000 A 
ATOM      5  C   UNL     1      38.110   6.225  16.119  0.00  0.00    +0.000 A 
ATOM      6  C   UNL     1      38.896   6.749  17.138  0.00  0.00    +0.000 A 
ATOM      7  C   UNL     1      39.178   5.936  18.208  0.00  0.00    +0.000 A 
ATOM      8  C   UNL     1      38.683   4.650  18.240  0.00  0.00    +0.000 A 
ATOM      9  C   UNL     1      37.909   4.157  17.219  0.00  0.00    +0.000 A 
ATOM     10  N   UNL     1      37.399   2.904  17.200  0.00  0.00    +0.000 NA
ENDROOT
BRANCH   1  16
ATOM     11  C   UNL     1      36.777   0.006  15.741  0.00  0.00    +0.000 A 
ATOM     12  C   UNL     1      36.177  -1.261  15.944  0.00  0.00    +0.000 A 
ATOM     13  C   UNL     1      35.035  -1.480  16.635  0.00  0.00    +0.000 A 
ATOM     14  C   UNL     1      34.422  -0.362  17.181  0.00  0.00    +0.000 A 
ATOM     15  C   UNL     1      34.961   0.861  17.011  0.00  0.00    +0.000 A 
ATOM     16  C   UNL     1      36.114   1.082  16.311  0.00  0.00    +0.000 A 
BRANCH  11  17
ATOM     17  O   UNL     1      37.886   0.099  15.056  0.00  0.00    +0.000 OA
BRANCH  17  19
ATOM     18  C   UNL     1      40.071  -0.846  14.751  0.00  0.00    +0.000 C 
ATOM     19  C   UNL     1      38.977   0.192  14.386  0.00  0.00    +0.000 C 
ATOM     20  C   UNL     1      39.693   1.571  14.418  0.00  0.00    +0.000 C 
ENDBRANCH  17  19
ENDBRANCH  11  17
ENDBRANCH   1  16
BRANCH   3  21
ATOM     21  C   UNL     1      36.581   5.494  13.988  0.00  0.00    +0.000 C 
ATOM     22  O   UNL     1      37.209   5.324  12.921  0.00  0.00    +0.000 OA
ATOM     23  N   UNL     1      35.681   6.571  14.046  0.00  0.00    +0.000 NA
BRANCH  23  24
ATOM     24  C   UNL     1      35.557   7.447  12.739  0.00  0.00    +0.000 C 
ATOM     25  C   UNL     1      33.951   7.023  12.505  0.00  0.00    +0.000 C 
ATOM     26  C   UNL     1      33.795   7.600  11.105  0.00  0.00    +0.000 C 
ATOM     27  C   UNL     1      34.186   9.048  11.086  0.00  0.00    +0.000 C 
ATOM     28  C   UNL     1      34.507   9.578  12.456  0.00  0.00    +0.000 A 
ATOM     29  C   UNL     1      34.077  10.868  12.784  0.00  0.00    +0.000 A 
ATOM     30  C   UNL     1      34.395  11.312  14.050  0.00  0.00    +0.000 A 
ATOM     31  C   UNL     1      35.095  10.546  14.954  0.00  0.00    +0.000 A 
ATOM     32  C   UNL     1      35.502   9.268  14.580  0.00  0.00    +0.000 A 
ATOM     33  C   UNL     1      35.196   8.851  13.373  0.00  0.00    +0.000 A 
ENDBRANCH  23  24
ENDBRANCH   3  21
TORSDOF 5
ENDMDL
MODEL 5
REMARK VINA RESULT:      -8.4      4.309      8.908
REMARK  Name = 
REMARK  5 active torsions:
REMARK  status: ('A' for Active; 'I' for Inactive)
REMARK    1  A    between atoms: C_2  and  O_4
REMARK    2  A    between atoms: O_4  and  C_5
REMARK    3  A    between atoms: C_10  and  C_11
REMARK    4  A    between atoms: C_13  and  C_14
REMARK    5  A    between atoms: N_16  and  C_17
REMARK                            x       y       z     vdW  Elec       q    Type
REMARK                         _______ _______ _______ _____ _____    ______ ____
ROOT
ATOM      1  C   UNL     1      35.866  -2.468  15.387  0.00  0.00    +0.000 A 
ATOM      2  C   UNL     1      36.873  -2.085  14.542  0.00  0.00    +0.000 A 
ATOM      3  C   UNL     1      37.192  -0.747  14.456  0.00  0.00    +0.000 A 
ATOM      4  C   UNL     1      36.472   0.129  15.234  0.00  0.00    +0.000 A 
ATOM      5  C   UNL     1      36.789   1.459  15.152  0.00  0.00    +0.000 A 
ATOM      6  C   UNL     1      36.139   2.443  15.886  0.00  0.00    +0.000 A 
ATOM      7  C   UNL     1      35.131   2.048  16.731  0.00  0.00    +0.000 A 
ATOM      8  C   UNL     1      34.800   0.713  16.824  0.00  0.00    +0.000 A 
ATOM      9  C   UNL     1      35.460  -0.240  16.087  0.00  0.00    +0.000 A 
ATOM     10  N   UNL     1      35.177  -1.562  16.141  0.00  0.00    +0.000 NA
ENDROOT
BRANCH   1  16
ATOM     11  C   UNL     1      36.189  -4.818  16.164  0.00  0.00    +0.000 A 
ATOM     12  C   UNL     1      35.647  -6.126  16.223  0.00  0.00    +0.000 A 
ATOM     13  C   UNL     1      34.449  -6.496  15.715  0.00  0.00    +0.000 A 
ATOM     14  C   UNL     1      33.711  -5.501  15.092  0.00  0.00    +0.000 A 
ATOM     15  C   UNL     1      34.192  -4.244  15.014  0.00  0.00    +0.000 A 
ATOM     16  C   UNL     1      35.402  -3.871  15.527  0.00  0.00    +0.000 A 
BRANCH  11  17
ATOM     17  O   UNL     1      37.359  -4.574  16.693  0.00  0.00    +0.000 OA
BRANCH  17  19
ATOM     18  C   UNL     1      38.472  -3.619  18.593  0.00  0.00    +0.000 C 
ATOM     19  C   UNL     1      38.506  -4.335  17.217  0.00  0.00    +0.000 C 
ATOM     20  C   UNL     1      39.504  -3.515  16.352  0.00  0.00    +0.000 C 
ENDBRANCH  17  19
ENDBRANCH  11  17
ENDBRANCH   1  16
BRANCH   3  21
ATOM     21  C   UNL     1      38.227  -0.228  13.570  0.00  0.00    +0.000 C 
ATOM     22  O   UNL     1      37.885   0.038  12.398  0.00  0.00    +0.000 OA
ATOM     23  N   UNL     1      39.567  -0.001  13.921  0.00  0.00    +0.000 NA
BRANCH  23  24
ATOM     24  C   UNL     1      40.497   0.582  12.787  0.00  0.00    +0.000 C 
ATOM     25  C   UNL     1      40.498   2.119  13.458  0.00  0.00    +0.000 C 
ATOM     26  C   UNL     1      41.149   2.846  12.289  0.00  0.00    +0.000 C 
ATOM     27  C   UNL     1      42.453   2.198  11.929  0.00  0.00    +0.000 C 
ATOM     28  C   UNL     1      42.832   1.094  12.876  0.00  0.00    +0.000 A 
ATOM     29  C   UNL     1      44.175   0.974  13.249  0.00  0.00    +0.000 A 
ATOM     30  C   UNL     1      44.476  -0.052  14.118  0.00  0.00    +0.000 A 
ATOM     31  C   UNL     1      43.524  -0.921  14.603  0.00  0.00    +0.000 A 
ATOM     32  C   UNL     1      42.201  -0.761  14.201  0.00  0.00    +0.000 A 
ATOM     33  C   UNL     1      41.921   0.218  13.373  0.00  0.00    +0.000 A 
ENDBRANCH  23  24
ENDBRANCH   3  21
TORSDOF 5
ENDMDL
MODEL 6
REMARK VINA RESULT:      -8.3      1.680      3.448
REMARK  Name = 
REMARK  5 active torsions:
REMARK  status: ('A' for Active; 'I' for Inactive)
REMARK    1  A    between atoms: C_2  and  O_4
REMARK    2  A    between atoms: O_4  and  C_5
REMARK    3  A    between atoms: C_10  and  C_11
REMARK    4  A    between atoms: C_13  and  C_14
REMARK    5  A    between atoms: N_16  and  C_17
REMARK                            x       y       z     vdW  Elec       q    Type
REMARK                         _______ _______ _______ _____ _____    ______ ____
ROOT
ATOM      1  C   UNL     1      39.251   5.829  16.854  0.00  0.00    +0.000 A 
ATOM      2  C   UNL     1      38.498   4.731  16.535  0.00  0.00    +0.000 A 
ATOM      3  C   UNL     1      38.834   4.001  15.414  0.00  0.00    +0.000 A 
ATOM      4  C   UNL     1      39.917   4.427  14.680  0.00  0.00    +0.000 A 
ATOM      5  C   UNL     1      40.253   3.703  13.567  0.00  0.00    +0.000 A 
ATOM      6  C   UNL     1      41.324   4.027  12.743  0.00  0.00    +0.000 A 
ATOM      7  C   UNL     1      42.072   5.130  13.074  0.00  0.00    +0.000 A 
ATOM      8  C   UNL     1      41.745   5.869  14.191  0.00  0.00    +0.000 A 
ATOM      9  C   UNL     1      40.682   5.526  14.988  0.00  0.00    +0.000 A 
ATOM     10  N   UNL     1      40.318   6.214  16.095  0.00  0.00    +0.000 NA
ENDROOT
BRANCH   1  16
ATOM     11  C   UNL     1      38.105   7.802  17.867  0.00  0.00    +0.000 A 
ATOM     12  C   UNL     1      37.913   8.585  19.032  0.00  0.00    +0.000 A 
ATOM     13  C   UNL     1      38.489   8.347  20.232  0.00  0.00    +0.000 A 
ATOM     14  C   UNL     1      39.328   7.246  20.306  0.00  0.00    +0.000 A 
ATOM     15  C   UNL     1      39.538   6.476  19.219  0.00  0.00    +0.000 A 
ATOM     16  C   UNL     1      38.957   6.717  18.007  0.00  0.00    +0.000 A 
BRANCH  11  17
ATOM     17  O   UNL     1      37.493   8.124  16.758  0.00  0.00    +0.000 OA
BRANCH  17  19
ATOM     18  C   UNL     1      35.543   9.189  15.850  0.00  0.00    +0.000 C 
ATOM     19  C   UNL     1      36.893   8.445  15.670  0.00  0.00    +0.000 C 
ATOM     20  C   UNL     1      36.592   7.286  14.678  0.00  0.00    +0.000 C 
ENDBRANCH  17  19
ENDBRANCH  11  17
ENDBRANCH   1  16
BRANCH   3  21
ATOM     21  C   UNL     1      38.086   2.833  14.968  0.00  0.00    +0.000 C 
ATOM     22  O   UNL     1      37.181   3.028  14.130  0.00  0.00    +0.000 OA
ATOM     23  N   UNL     1      38.298   1.512  15.397  0.00  0.00    +0.000 NA
BRANCH  23  24
ATOM     24  C   UNL     1      37.365   0.412  14.755  0.00  0.00    +0.000 C 
ATOM     25  C   UNL     1      38.462  -0.819  15.061  0.00  0.00    +0.000 C 
ATOM     26  C   UNL     1      37.782  -1.901  14.233  0.00  0.00    +0.000 C 
ATOM     27  C   UNL     1      36.353  -2.066  14.655  0.00  0.00    +0.000 C 
ATOM     28  C   UNL     1      36.001  -1.221  15.848  0.00  0.00    +0.000 A 
ATOM     29  C   UNL     1      35.169  -1.773  16.828  0.00  0.00    +0.000 A 
ATOM     30  C   UNL     1      34.873  -0.963  17.903  0.00  0.00    +0.000 A 
ATOM     31  C   UNL     1      35.358   0.320  18.024  0.00  0.00    +0.000 A 
ATOM     32  C   UNL     1      36.181   0.825  17.022  0.00  0.00    +0.000 A 
ATOM     33  C   UNL     1      36.459   0.048  16.001  0.00  0.00    +0.000 A 
ENDBRANCH  23  24
ENDBRANCH   3  21
TORSDOF 5
ENDMDL
MODEL 7
REMARK VINA RESULT:      -8.2      2.499      4.436
REMARK  Name = 
REMARK  5 active torsions:
REMARK  status: ('A' for Active; 'I' for Inactive)
REMARK    1  A    between atoms: C_2  and  O_4
REMARK    2  A    between atoms: O_4  and  C_5
REMARK    3  A    between atoms: C_10  and  C_11
REMARK    4  A    between atoms: C_13  and  C_14
REMARK    5  A    between atoms: N_16  and  C_17
REMARK                            x       y       z     vdW  Elec       q    Type
REMARK                         _______ _______ _______ _____ _____    ______ ____
ROOT
ATOM      1  C   UNL     1      41.599   6.726  19.534  0.00  0.00    +0.000 A 
ATOM      2  C   UNL     1      41.108   6.189  18.375  0.00  0.00    +0.000 A 
ATOM      3  C   UNL     1      39.816   6.492  17.999  0.00  0.00    +0.000 A 
ATOM      4  C   UNL     1      39.094   7.326  18.822  0.00  0.00    +0.000 A 
ATOM      5  C   UNL     1      37.812   7.629  18.449  0.00  0.00    +0.000 A 
ATOM      6  C   UNL     1      36.981   8.459  19.192  0.00  0.00    +0.000 A 
ATOM      7  C   UNL     1      37.484   8.992  20.354  0.00  0.00    +0.000 A 
ATOM      8  C   UNL     1      38.773   8.694  20.741  0.00  0.00    +0.000 A 
ATOM      9  C   UNL     1      39.573   7.872  19.988  0.00  0.00    +0.000 A 
ATOM     10  N   UNL     1      40.844   7.549  20.321  0.00  0.00    +0.000 NA
ENDROOT
BRANCH   1  16
ATOM     11  C   UNL     1      44.086   6.747  19.328  0.00  0.00    +0.000 A 
ATOM     12  C   UNL     1      45.323   6.407  19.931  0.00  0.00    +0.000 A 
ATOM     13  C   UNL     1      45.463   5.815  21.139  0.00  0.00    +0.000 A 
ATOM     14  C   UNL     1      44.292   5.529  21.823  0.00  0.00    +0.000 A 
ATOM     15  C   UNL     1      43.095   5.836  21.284  0.00  0.00    +0.000 A 
ATOM     16  C   UNL     1      42.954   6.433  20.064  0.00  0.00    +0.000 A 
BRANCH  11  17
ATOM     17  O   UNL     1      44.070   7.322  18.154  0.00  0.00    +0.000 OA
BRANCH  17  19
ATOM     18  C   UNL     1      43.010   9.025  16.837  0.00  0.00    +0.000 C 
ATOM     19  C   UNL     1      44.054   7.889  17.003  0.00  0.00    +0.000 C 
ATOM     20  C   UNL     1      43.845   6.958  15.776  0.00  0.00    +0.000 C 
ENDBRANCH  17  19
ENDBRANCH  11  17
ENDBRANCH   1  16
BRANCH   3  21
ATOM     21  C   UNL     1      39.187   5.955  16.799  0.00  0.00    +0.000 C 
ATOM     22  O   UNL     1      39.205   6.678  15.780  0.00  0.00    +0.000 OA
ATOM     23  N   UNL     1      38.566   4.700  16.692  0.00  0.00    +0.000 NA
BRANCH  23  24
ATOM     24  C   UNL     1      37.966   4.337  15.278  0.00  0.00    +0.000 C 
ATOM     25  C   UNL     1      39.260   3.342  14.890  0.00  0.00    +0.000 C 
ATOM     26  C   UNL     1      38.923   3.143  13.418  0.00  0.00    +0.000 C 
ATOM     27  C   UNL     1      37.524   2.626  13.265  0.00  0.00    +0.000 C 
ATOM     28  C   UNL     1      36.870   2.326  14.585  0.00  0.00    +0.000 A 
ATOM     29  C   UNL     1      36.072   1.182  14.684  0.00  0.00    +0.000 A 
ATOM     30  C   UNL     1      35.492   0.948  15.913  0.00  0.00    +0.000 A 
ATOM     31  C   UNL     1      35.676   1.781  16.993  0.00  0.00    +0.000 A 
ATOM     32  C   UNL     1      36.478   2.909  16.845  0.00  0.00    +0.000 A 
ATOM     33  C   UNL     1      37.027   3.126  15.672  0.00  0.00    +0.000 A 
ENDBRANCH  23  24
ENDBRANCH   3  21
TORSDOF 5
ENDMDL
MODEL 8
REMARK VINA RESULT:      -8.2      5.258      8.037
REMARK  Name = 
REMARK  5 active torsions:
REMARK  status: ('A' for Active; 'I' for Inactive)
REMARK    1  A    between atoms: C_2  and  O_4
REMARK    2  A    between atoms: O_4  and  C_5
REMARK    3  A    between atoms: C_10  and  C_11
REMARK    4  A    between atoms: C_13  and  C_14
REMARK    5  A    between atoms: N_16  and  C_17
REMARK                            x       y       z     vdW  Elec       q    Type
REMARK                         _______ _______ _______ _____ _____    ______ ____
ROOT
ATOM      1  C   UNL     1      41.475  -2.608  11.611  0.00  0.00    +0.000 A 
ATOM      2  C   UNL     1      40.521  -2.861  12.561  0.00  0.00    +0.000 A 
ATOM      3  C   UNL     1      39.418  -2.038  12.628  0.00  0.00    +0.000 A 
ATOM      4  C   UNL     1      39.342  -1.002  11.726  0.00  0.00    +0.000 A 
ATOM      5  C   UNL     1      38.246  -0.184  11.790  0.00  0.00    +0.000 A 
ATOM      6  C   UNL     1      38.050   0.894  10.936  0.00  0.00    +0.000 A 
ATOM      7  C   UNL     1      39.012   1.139   9.987  0.00  0.00    +0.000 A 
ATOM      8  C   UNL     1      40.122   0.324   9.911  0.00  0.00    +0.000 A 
ATOM      9  C   UNL     1      40.289  -0.736  10.767  0.00  0.00    +0.000 A 
ATOM     10  N   UNL     1      41.357  -1.566  10.736  0.00  0.00    +0.000 NA
ENDROOT
BRANCH   1  16
ATOM     11  C   UNL     1      43.747  -3.269  12.404  0.00  0.00    +0.000 A 
ATOM     12  C   UNL     1      44.898  -4.059  12.161  0.00  0.00    +0.000 A 
ATOM     13  C   UNL     1      45.056  -4.900  11.114  0.00  0.00    +0.000 A 
ATOM     14  C   UNL     1      43.998  -4.981  10.222  0.00  0.00    +0.000 A 
ATOM     15  C   UNL     1      42.885  -4.245  10.418  0.00  0.00    +0.000 A 
ATOM     16  C   UNL     1      42.726  -3.394  11.475  0.00  0.00    +0.000 A 
BRANCH  11  17
ATOM     17  O   UNL     1      43.702  -2.491  13.453  0.00  0.00    +0.000 OA
BRANCH  17  19
ATOM     18  C   UNL     1      42.824  -0.426  14.305  0.00  0.00    +0.000 C 
ATOM     19  C   UNL     1      43.655  -1.724  14.482  0.00  0.00    +0.000 C 
ATOM     20  C   UNL     1      45.020  -1.261  15.062  0.00  0.00    +0.000 C 
ENDBRANCH  17  19
ENDBRANCH  11  17
ENDBRANCH   1  16
BRANCH   3  21
ATOM     21  C   UNL     1      38.358  -2.201  13.615  0.00  0.00    +0.000 C 
ATOM     22  O   UNL     1      37.491  -3.069  13.375  0.00  0.00    +0.000 OA
ATOM     23  N   UNL     1      38.231  -1.473  14.809  0.00  0.00    +0.000 NA
BRANCH  23  24
ATOM     24  C   UNL     1      37.001  -1.843  15.726  0.00  0.00    +0.000 C 
ATOM     25  C   UNL     1      37.864  -1.573  17.139  0.00  0.00    +0.000 C 
ATOM     26  C   UNL     1      36.850  -2.167  18.107  0.00  0.00    +0.000 C 
ATOM     27  C   UNL     1      35.509  -1.520  17.927  0.00  0.00    +0.000 C 
ATOM     28  C   UNL     1      35.542  -0.387  16.939  0.00  0.00    +0.000 A 
ATOM     29  C   UNL     1      34.794   0.761  17.224  0.00  0.00    +0.000 A 
ATOM     30  C   UNL     1      34.854   1.773  16.290  0.00  0.00    +0.000 A 
ATOM     31  C   UNL     1      35.600   1.680  15.137  0.00  0.00    +0.000 A 
ATOM     32  C   UNL     1      36.327   0.517  14.898  0.00  0.00    +0.000 A 
ATOM     33  C   UNL     1      36.266  -0.444  15.791  0.00  0.00    +0.000 A 
ENDBRANCH  23  24
ENDBRANCH   3  21
TORSDOF 5
ENDMDL
MODEL 9
REMARK VINA RESULT:      -8.0     23.792     26.525
REMARK  Name = 
REMARK  5 active torsions:
REMARK  status: ('A' for Active; 'I' for Inactive)
REMARK    1  A    between atoms: C_2  and  O_4
REMARK    2  A    between atoms: O_4  and  C_5
REMARK    3  A    between atoms: C_10  and  C_11
REMARK    4  A    between atoms: C_13  and  C_14
REMARK    5  A    between atoms: N_16  and  C_17
REMARK                            x       y       z     vdW  Elec       q    Type
REMARK                         _______ _______ _______ _____ _____    ______ ____
ROOT
ATOM      1  C   UNL     1      15.748  -4.610   6.901  0.00  0.00    +0.000 A 
ATOM      2  C   UNL     1      16.056  -3.910   5.766  0.00  0.00    +0.000 A 
ATOM      3  C   UNL     1      15.505  -2.658   5.590  0.00  0.00    +0.000 A 
ATOM      4  C   UNL     1      14.671  -2.186   6.577  0.00  0.00    +0.000 A 
ATOM      5  C   UNL     1      14.125  -0.943   6.404  0.00  0.00    +0.000 A 
ATOM      6  C   UNL     1      13.270  -0.353   7.327  0.00  0.00    +0.000 A 
ATOM      7  C   UNL     1      12.968  -1.064   8.463  0.00  0.00    +0.000 A 
ATOM      8  C   UNL     1      13.511  -2.317   8.650  0.00  0.00    +0.000 A 
ATOM      9  C   UNL     1      14.354  -2.876   7.721  0.00  0.00    +0.000 A 
ATOM     10  N   UNL     1      14.914  -4.100   7.856  0.00  0.00    +0.000 NA
ENDROOT
BRANCH   1  16
ATOM     11  C   UNL     1      15.702  -7.076   6.518  0.00  0.00    +0.000 A 
ATOM     12  C   UNL     1      16.243  -8.336   6.875  0.00  0.00    +0.000 A 
ATOM     13  C   UNL     1      17.221  -8.531   7.790  0.00  0.00    +0.000 A 
ATOM     14  C   UNL     1      17.717  -7.396   8.412  0.00  0.00    +0.000 A 
ATOM     15  C   UNL     1      17.229  -6.180   8.100  0.00  0.00    +0.000 A 
ATOM     16  C   UNL     1      16.241  -5.982   7.178  0.00  0.00    +0.000 A 
BRANCH  11  17
ATOM     17  O   UNL     1      14.758  -7.005   5.616  0.00  0.00    +0.000 OA
BRANCH  17  19
ATOM     18  C   UNL     1      12.899  -5.698   4.846  0.00  0.00    +0.000 C 
ATOM     19  C   UNL     1      13.829  -6.935   4.733  0.00  0.00    +0.000 C 
ATOM     20  C   UNL     1      12.875  -8.158   4.634  0.00  0.00    +0.000 C 
ENDBRANCH  17  19
ENDBRANCH  11  17
ENDBRANCH   1  16
BRANCH   3  21
ATOM     21  C   UNL     1      15.744  -1.840   4.408  0.00  0.00    +0.000 C 
ATOM     22  O   UNL     1      14.917  -1.938   3.476  0.00  0.00    +0.000 OA
ATOM     23  N   UNL     1      16.819  -0.953   4.229  0.00  0.00    +0.000 NA
BRANCH  23  24
ATOM     24  C   UNL     1      16.854  -0.164   2.863  0.00  0.00    +0.000 C 
ATOM     25  C   UNL     1      17.321   1.267   3.602  0.00  0.00    +0.000 C 
ATOM     26  C   UNL     1      17.123   2.184   2.403  0.00  0.00    +0.000 C 
ATOM     27  C   UNL     1      17.894   1.678   1.221  0.00  0.00    +0.000 C 
ATOM     28  C   UNL     1      18.747   0.486   1.554  0.00  0.00    +0.000 A 
ATOM     29  C   UNL     1      20.024   0.407   0.988  0.00  0.00    +0.000 A 
ATOM     30  C   UNL     1      20.770  -0.703   1.321  0.00  0.00    +0.000 A 
ATOM     31  C   UNL     1      20.303  -1.690   2.160  0.00  0.00    +0.000 A 
ATOM     32  C   UNL     1      19.025  -1.567   2.697  0.00  0.00    +0.000 A 
ATOM     33  C   UNL     1      18.319  -0.507   2.376  0.00  0.00    +0.000 A 
ENDBRANCH  23  24
ENDBRANCH   3  21
TORSDOF 5
ENDMDL
MODEL 10
REMARK VINA RESULT:      -8.0      4.718      7.588
REMARK  Name = 
REMARK  5 active torsions:
REMARK  status: ('A' for Active; 'I' for Inactive)
REMARK    1  A    between atoms: C_2  and  O_4
REMARK    2  A    between atoms: O_4  and  C_5
REMARK    3  A    between atoms: C_10  and  C_11
REMARK    4  A    between atoms: C_13  and  C_14
REMARK    5  A    between atoms: N_16  and  C_17
REMARK                            x       y       z     vdW  Elec       q    Type
REMARK                         _______ _______ _______ _____ _____    ______ ____
ROOT
ATOM      1  C   UNL     1      43.199  -1.359  14.069  0.00  0.00    +0.000 A 
ATOM      2  C   UNL     1      41.931  -1.749  14.406  0.00  0.00    +0.000 A 
ATOM      3  C   UNL     1      40.893  -0.861  14.218  0.00  0.00    +0.000 A 
ATOM      4  C   UNL     1      41.201   0.376  13.698  0.00  0.00    +0.000 A 
ATOM      5  C   UNL     1      40.171   1.258  13.510  0.00  0.00    +0.000 A 
ATOM      6  C   UNL     1      40.350   2.535  12.992  0.00  0.00    +0.000 A 
ATOM      7  C   UNL     1      41.626   2.915  12.657  0.00  0.00    +0.000 A 
ATOM      8  C   UNL     1      42.673   2.037  12.842  0.00  0.00    +0.000 A 
ATOM      9  C   UNL     1      42.468   0.780  13.355  0.00  0.00    +0.000 A 
ATOM     10  N   UNL     1      43.458  -0.120  13.556  0.00  0.00    +0.000 NA
ENDROOT
BRANCH   1  16
ATOM     11  C   UNL     1      44.773  -3.145  13.318  0.00  0.00    +0.000 A 
ATOM     12  C   UNL     1      45.926  -3.907  13.628  0.00  0.00    +0.000 A 
ATOM     13  C   UNL     1      46.661  -3.783  14.757  0.00  0.00    +0.000 A 
ATOM     14  C   UNL     1      46.235  -2.828  15.667  0.00  0.00    +0.000 A 
ATOM     15  C   UNL     1      45.142  -2.082  15.410  0.00  0.00    +0.000 A 
ATOM     16  C   UNL     1      44.399  -2.209  14.271  0.00  0.00    +0.000 A 
BRANCH  11  17
ATOM     17  O   UNL     1      44.141  -3.349  12.193  0.00  0.00    +0.000 OA
BRANCH  17  19
ATOM     18  C   UNL     1      41.970  -3.619  11.204  0.00  0.00    +0.000 C 
ATOM     19  C   UNL     1      43.516  -3.550  11.090  0.00  0.00    +0.000 C 
ATOM     20  C   UNL     1      43.924  -4.815  10.284  0.00  0.00    +0.000 C 
ENDBRANCH  17  19
ENDBRANCH  11  17
ENDBRANCH   1  16
BRANCH   3  21
ATOM     21  C   UNL     1      39.511  -1.162  14.567  0.00  0.00    +0.000 C 
ATOM     22  O   UNL     1      38.825  -1.746  13.701  0.00  0.00    +0.000 OA
ATOM     23  N   UNL     1      38.888  -0.857  15.788  0.00  0.00    +0.000 NA
BRANCH  23  24
ATOM     24  C   UNL     1      37.380  -1.300  15.933  0.00  0.00    +0.000 C 
ATOM     25  C   UNL     1      37.503  -1.476  17.597  0.00  0.00    +0.000 C 
ATOM     26  C   UNL     1      36.167  -2.171  17.822  0.00  0.00    +0.000 C 
ATOM     27  C   UNL     1      35.047  -1.356  17.247  0.00  0.00    +0.000 C 
ATOM     28  C   UNL     1      35.511  -0.028  16.716  0.00  0.00    +0.000 A 
ATOM     29  C   UNL     1      34.702   1.092  16.935  0.00  0.00    +0.000 A 
ATOM     30  C   UNL     1      35.167   2.287  16.430  0.00  0.00    +0.000 A 
ATOM     31  C   UNL     1      36.357   2.393  15.745  0.00  0.00    +0.000 A 
ATOM     32  C   UNL     1      37.127   1.250  15.552  0.00  0.00    +0.000 A 
ATOM     33  C   UNL     1      36.678   0.114  16.036  0.00  0.00    +0.000 A 
ENDBRANCH  23  24
ENDBRANCH   3  21
TORSDOF 5
ENDMDL
