MODEL 1
REMARK VINA RESULT:      -8.3      0.000      0.000
REMARK  Name = 
REMARK  7 active torsions:
REMARK  status: ('A' for Active; 'I' for Inactive)
REMARK    1  A    between atoms: C_2  and  O_3
REMARK    2  A    between atoms: O_3  and  C_4
REMARK    3  A    between atoms: C_7  and  N_8
REMARK    4  A    between atoms: N_8  and  C_9
REMARK    5  A    between atoms: C_10  and  S_11
REMARK    6  A    between atoms: S_11  and  C_12
REMARK    7  A    between atoms: N_21  and  C_22
REMARK                            x       y       z     vdW  Elec       q    Type
REMARK                         _______ _______ _______ _____ _____    ______ ____
ROOT
ATOM      1  C   UNL     1      36.457   4.497  14.805  0.00  0.00    +0.000 C 
ATOM      2  C   UNL     1      37.761   4.255  14.984  0.00  0.00    +0.000 C 
ATOM      3  C   UNL     1      37.903   2.825  15.200  0.00  0.00    +0.000 C 
ATOM      4  O   UNL     1      38.957   2.196  15.406  0.00  0.00    +0.000 OA
ATOM      5  N   UNL     1      36.600   2.209  15.141  0.00  0.00    +0.000 N 
ATOM      6  C   UNL     1      35.698   3.267  14.893  0.00  0.00    +0.000 C 
ATOM      7  O   UNL     1      34.463   3.076  14.781  0.00  0.00    +0.000 OA
ENDROOT
BRANCH   5   8
ATOM      8  C   UNL     1      36.290   0.815  15.307  0.00  0.00    +0.000 A 
ATOM      9  C   UNL     1      35.531   0.375  16.369  0.00  0.00    +0.000 A 
ATOM     10  C   UNL     1      35.227  -0.975  16.538  0.00  0.00    +0.000 A 
ATOM     11  C   UNL     1      35.680  -1.923  15.644  0.00  0.00    +0.000 A 
ATOM     12  C   UNL     1      35.362  -3.362  15.816  0.00  0.00    +0.000 C 
ATOM     13  C   UNL     1      36.439  -1.478  14.583  0.00  0.00    +0.000 A 
ATOM     14  C   UNL     1      36.744  -0.126  14.413  0.00  0.00    +0.000 A 
ENDBRANCH   5   8
BRANCH   1  15
ATOM     15  N   UNL     1      35.880   5.795  14.558  0.00  0.00    +0.000 NA
BRANCH  15  19
ATOM     16  C   UNL     1      34.258   6.941  10.860  0.00  0.00    +0.000 A 
ATOM     17  C   UNL     1      33.613   7.216  12.046  0.00  0.00    +0.000 A 
ATOM     18  C   UNL     1      34.164   6.828  13.242  0.00  0.00    +0.000 A 
ATOM     19  C   UNL     1      35.362   6.160  13.300  0.00  0.00    +0.000 A 
ATOM     20  C   UNL     1      36.027   5.872  12.126  0.00  0.00    +0.000 A 
ATOM     21  C   UNL     1      35.463   6.268  10.929  0.00  0.00    +0.000 A 
BRANCH  16  22
ATOM     22  O   UNL     1      33.710   7.331   9.637  0.00  0.00    +0.000 OA
BRANCH  22  24
ATOM     23  C   UNL     1      33.492   6.751   7.281  0.00  0.00    +0.000 C 
ATOM     24  C   UNL     1      34.399   6.962   8.463  0.00  0.00    +0.000 C 
ENDBRANCH  22  24
ENDBRANCH  16  22
ENDBRANCH  15  19
ENDBRANCH   1  15
BRANCH   2  25
ATOM     25  S   UNL     1      38.964   5.558  14.934  0.00  0.00    +0.000 S 
BRANCH  25  26
ATOM     26  C   UNL     1      39.793   5.850  16.449  0.00  0.00    +0.000 A 
ATOM     27  C   UNL     1      41.061   6.327  16.630  0.00  0.00    +0.000 A 
ATOM     28  C   UNL     1      41.643   6.531  17.865  0.00  0.00    +0.000 A 
ATOM     29  C   UNL     1      40.943   6.249  19.027  0.00  0.00    +0.000 A 
ATOM     30  C   UNL     1      41.526   6.451  20.375  0.00  0.00    +0.000 C 
ATOM     31  C   UNL     1      39.663   5.767  18.864  0.00  0.00    +0.000 A 
ATOM     32  C   UNL     1      39.092   5.567  17.631  0.00  0.00    +0.000 A 
ENDBRANCH  25  26
ENDBRANCH   2  25
TORSDOF 7
ENDMDL
MODEL 2
REMARK VINA RESULT:      -8.2      2.595      8.036
REMARK  Name = 
REMARK  7 active torsions:
REMARK  status: ('A' for Active; 'I' for Inactive)
REMARK    1  A    between atoms: C_2  and  O_3
REMARK    2  A    between atoms: O_3  and  C_4
REMARK    3  A    between atoms: C_7  and  N_8
REMARK    4  A    between atoms: N_8  and  C_9
REMARK    5  A    between atoms: C_10  and  S_11
REMARK    6  A    between atoms: S_11  and  C_12
REMARK    7  A    between atoms: N_21  and  C_22
REMARK                            x       y       z     vdW  Elec       q    Type
REMARK                         _______ _______ _______ _____ _____    ______ ____
ROOT
ATOM      1  C   UNL     1      36.888   4.591  15.029  0.00  0.00    +0.000 C 
ATOM      2  C   UNL     1      36.783   5.888  14.714  0.00  0.00    +0.000 C 
ATOM      3  C   UNL     1      37.725   6.607  15.556  0.00  0.00    +0.000 C 
ATOM      4  O   UNL     1      37.935   7.834  15.572  0.00  0.00    +0.000 OA
ATOM      5  N   UNL     1      38.411   5.664  16.405  0.00  0.00    +0.000 N 
ATOM      6  C   UNL     1      37.879   4.401  16.067  0.00  0.00    +0.000 C 
ATOM      7  O   UNL     1      38.264   3.345  16.625  0.00  0.00    +0.000 OA
ENDROOT
BRANCH   5   8
ATOM      8  C   UNL     1      39.419   5.955  17.389  0.00  0.00    +0.000 A 
ATOM      9  C   UNL     1      39.106   6.028  18.728  0.00  0.00    +0.000 A 
ATOM     10  C   UNL     1      40.076   6.311  19.690  0.00  0.00    +0.000 A 
ATOM     11  C   UNL     1      41.389   6.531  19.330  0.00  0.00    +0.000 A 
ATOM     12  C   UNL     1      42.429   6.833  20.345  0.00  0.00    +0.000 C 
ATOM     13  C   UNL     1      41.698   6.456  17.989  0.00  0.00    +0.000 A 
ATOM     14  C   UNL     1      40.727   6.173  17.026  0.00  0.00    +0.000 A 
ENDBRANCH   5   8
BRANCH   1  15
ATOM     15  N   UNL     1      36.127   3.526  14.424  0.00  0.00    +0.000 NA
BRANCH  15  19
ATOM     16  C   UNL     1      35.246  -0.020  16.489  0.00  0.00    +0.000 A 
ATOM     17  C   UNL     1      34.700   1.187  16.865  0.00  0.00    +0.000 A 
ATOM     18  C   UNL     1      35.006   2.333  16.174  0.00  0.00    +0.000 A 
ATOM     19  C   UNL     1      35.858   2.319  15.097  0.00  0.00    +0.000 A 
ATOM     20  C   UNL     1      36.419   1.122  14.701  0.00  0.00    +0.000 A 
ATOM     21  C   UNL     1      36.102  -0.024  15.405  0.00  0.00    +0.000 A 
BRANCH  16  22
ATOM     22  O   UNL     1      34.943  -1.194  17.182  0.00  0.00    +0.000 OA
BRANCH  22  24
ATOM     23  C   UNL     1      36.582  -1.291  18.981  0.00  0.00    +0.000 C 
ATOM     24  C   UNL     1      36.014  -1.922  17.738  0.00  0.00    +0.000 C 
ENDBRANCH  22  24
ENDBRANCH  16  22
ENDBRANCH  15  19
ENDBRANCH   1  15
BRANCH   2  25
ATOM     25  S   UNL     1      35.653   6.455  13.471  0.00  0.00    +0.000 S 
BRANCH  25  26
ATOM     26  C   UNL     1      34.995   8.054  13.752  0.00  0.00    +0.000 A 
ATOM     27  C   UNL     1      34.498   8.561  14.921  0.00  0.00    +0.000 A 
ATOM     28  C   UNL     1      33.996   9.839  15.059  0.00  0.00    +0.000 A 
ATOM     29  C   UNL     1      33.969  10.705  13.977  0.00  0.00    +0.000 A 
ATOM     30  C   UNL     1      33.440  12.085  14.078  0.00  0.00    +0.000 C 
ATOM     31  C   UNL     1      34.466  10.211  12.791  0.00  0.00    +0.000 A 
ATOM     32  C   UNL     1      34.963   8.937  12.663  0.00  0.00    +0.000 A 
ENDBRANCH  25  26
ENDBRANCH   2  25
TORSDOF 7
ENDMDL
MODEL 3
REMARK VINA RESULT:      -8.1      2.904      6.920
REMARK  Name = 
REMARK  7 active torsions:
REMARK  status: ('A' for Active; 'I' for Inactive)
REMARK    1  A    between atoms: C_2  and  O_3
REMARK    2  A    between atoms: O_3  and  C_4
REMARK    3  A    between atoms: C_7  and  N_8
REMARK    4  A    between atoms: N_8  and  C_9
REMARK    5  A    between atoms: C_10  and  S_11
REMARK    6  A    between atoms: S_11  and  C_12
REMARK    7  A    between atoms: N_21  and  C_22
REMARK                            x       y       z     vdW  Elec       q    Type
REMARK                         _______ _______ _______ _____ _____    ______ ____
ROOT
ATOM      1  C   UNL     1      37.280   6.234  14.827  0.00  0.00    +0.000 C 
ATOM      2  C   UNL     1      37.159   4.943  15.158  0.00  0.00    +0.000 C 
ATOM      3  C   UNL     1      38.061   4.702  16.271  0.00  0.00    +0.000 C 
ATOM      4  O   UNL     1      38.247   3.628  16.871  0.00  0.00    +0.000 OA
ATOM      5  N   UNL     1      38.742   5.931  16.598  0.00  0.00    +0.000 N 
ATOM      6  C   UNL     1      38.245   6.887  15.686  0.00  0.00    +0.000 C 
ATOM      7  O   UNL     1      38.633   8.081  15.694  0.00  0.00    +0.000 OA
ENDROOT
BRANCH   5   8
ATOM      8  C   UNL     1      39.723   6.133  17.631  0.00  0.00    +0.000 A 
ATOM      9  C   UNL     1      41.059   6.270  17.327  0.00  0.00    +0.000 A 
ATOM     10  C   UNL     1      42.017   6.464  18.322  0.00  0.00    +0.000 A 
ATOM     11  C   UNL     1      41.657   6.525  19.652  0.00  0.00    +0.000 A 
ATOM     12  C   UNL     1      42.668   6.731  20.718  0.00  0.00    +0.000 C 
ATOM     13  C   UNL     1      40.318   6.388  19.951  0.00  0.00    +0.000 A 
ATOM     14  C   UNL     1      39.359   6.193  18.955  0.00  0.00    +0.000 A 
ENDBRANCH   5   8
BRANCH   1  15
ATOM     15  N   UNL     1      36.555   6.890  13.767  0.00  0.00    +0.000 NA
BRANCH  15  19
ATOM     16  C   UNL     1      34.254  10.327  14.482  0.00  0.00    +0.000 A 
ATOM     17  C   UNL     1      33.862   9.089  14.941  0.00  0.00    +0.000 A 
ATOM     18  C   UNL     1      34.631   7.980  14.692  0.00  0.00    +0.000 A 
ATOM     19  C   UNL     1      35.805   8.063  13.984  0.00  0.00    +0.000 A 
ATOM     20  C   UNL     1      36.219   9.292  13.513  0.00  0.00    +0.000 A 
ATOM     21  C   UNL     1      35.437  10.399  13.771  0.00  0.00    +0.000 A 
BRANCH  16  22
ATOM     22  O   UNL     1      33.482  11.464  14.730  0.00  0.00    +0.000 OA
BRANCH  22  24
ATOM     23  C   UNL     1      32.873  13.787  14.322  0.00  0.00    +0.000 C 
ATOM     24  C   UNL     1      33.780  12.631  13.997  0.00  0.00    +0.000 C 
ENDBRANCH  22  24
ENDBRANCH  16  22
ENDBRANCH  15  19
ENDBRANCH   1  15
BRANCH   2  25
ATOM     25  S   UNL     1      36.050   3.861  14.294  0.00  0.00    +0.000 S 
BRANCH  25  26
ATOM     26  C   UNL     1      35.774   2.318  15.075  0.00  0.00    +0.000 A 
ATOM     27  C   UNL     1      36.222   1.088  14.680  0.00  0.00    +0.000 A 
ATOM     28  C   UNL     1      35.959  -0.086  15.356  0.00  0.00    +0.000 A 
ATOM     29  C   UNL     1      35.197  -0.076  16.513  0.00  0.00    +0.000 A 
ATOM     30  C   UNL     1      34.889  -1.311  17.272  0.00  0.00    +0.000 C 
ATOM     31  C   UNL     1      34.737   1.155  16.927  0.00  0.00    +0.000 A 
ATOM     32  C   UNL     1      35.003   2.318  16.247  0.00  0.00    +0.000 A 
ENDBRANCH  25  26
ENDBRANCH   2  25
TORSDOF 7
ENDMDL
MODEL 4
REMARK VINA RESULT:      -8.1      4.173      8.711
REMARK  Name = 
REMARK  7 active torsions:
REMARK  status: ('A' for Active; 'I' for Inactive)
REMARK    1  A    between atoms: C_2  and  O_3
REMARK    2  A    between atoms: O_3  and  C_4
REMARK    3  A    between atoms: C_7  and  N_8
REMARK    4  A    between atoms: N_8  and  C_9
REMARK    5  A    between atoms: C_10  and  S_11
REMARK    6  A    between atoms: S_11  and  C_12
REMARK    7  A    between atoms: N_21  and  C_22
REMARK                            x       y       z     vdW  Elec       q    Type
REMARK                         _______ _______ _______ _____ _____    ______ ____
ROOT
ATOM      1  C   UNL     1      38.429   2.511  14.362  0.00  0.00    +0.000 C 
ATOM      2  C   UNL     1      37.323   2.138  15.017  0.00  0.00    +0.000 C 
ATOM      3  C   UNL     1      37.150   3.066  16.122  0.00  0.00    +0.000 C 
ATOM      4  O   UNL     1      36.240   3.064  16.971  0.00  0.00    +0.000 OA
ATOM      5  N   UNL     1      38.223   4.029  16.099  0.00  0.00    +0.000 N 
ATOM      6  C   UNL     1      39.021   3.673  14.990  0.00  0.00    +0.000 C 
ATOM      7  O   UNL     1      40.053   4.315  14.678  0.00  0.00    +0.000 OA
ENDROOT
BRANCH   5   8
ATOM      8  C   UNL     1      38.434   5.117  17.017  0.00  0.00    +0.000 A 
ATOM      9  C   UNL     1      39.024   4.909  18.244  0.00  0.00    +0.000 A 
ATOM     10  C   UNL     1      39.231   5.957  19.140  0.00  0.00    +0.000 A 
ATOM     11  C   UNL     1      38.850   7.245  18.827  0.00  0.00    +0.000 A 
ATOM     12  C   UNL     1      39.066   8.367  19.774  0.00  0.00    +0.000 C 
ATOM     13  C   UNL     1      38.261   7.448  17.598  0.00  0.00    +0.000 A 
ATOM     14  C   UNL     1      38.053   6.399  16.700  0.00  0.00    +0.000 A 
ENDBRANCH   5   8
BRANCH   1  15
ATOM     15  N   UNL     1      38.962   1.855  13.194  0.00  0.00    +0.000 NA
BRANCH  15  19
ATOM     16  C   UNL     1      40.792  -1.922  13.285  0.00  0.00    +0.000 A 
ATOM     17  C   UNL     1      39.987  -1.536  12.236  0.00  0.00    +0.000 A 
ATOM     18  C   UNL     1      39.398  -0.296  12.232  0.00  0.00    +0.000 A 
ATOM     19  C   UNL     1      39.587   0.594  13.260  0.00  0.00    +0.000 A 
ATOM     20  C   UNL     1      40.389   0.231  14.322  0.00  0.00    +0.000 A 
ATOM     21  C   UNL     1      40.975  -1.019  14.314  0.00  0.00    +0.000 A 
BRANCH  16  22
ATOM     22  O   UNL     1      41.398  -3.179  13.302  0.00  0.00    +0.000 OA
BRANCH  22  24
ATOM     23  C   UNL     1      43.767  -2.887  12.812  0.00  0.00    +0.000 C 
ATOM     24  C   UNL     1      42.430  -3.422  12.373  0.00  0.00    +0.000 C 
ENDBRANCH  22  24
ENDBRANCH  16  22
ENDBRANCH  15  19
ENDBRANCH   1  15
BRANCH   2  25
ATOM     25  S   UNL     1      36.358   0.744  14.496  0.00  0.00    +0.000 S 
BRANCH  25  26
ATOM     26  C   UNL     1      36.938  -0.805  15.072  0.00  0.00    +0.000 A 
ATOM     27  C   UNL     1      36.923  -2.003  14.412  0.00  0.00    +0.000 A 
ATOM     28  C   UNL     1      37.403  -3.184  14.940  0.00  0.00    +0.000 A 
ATOM     29  C   UNL     1      37.943  -3.216  16.216  0.00  0.00    +0.000 A 
ATOM     30  C   UNL     1      38.470  -4.460  16.824  0.00  0.00    +0.000 C 
ATOM     31  C   UNL     1      37.966  -2.018  16.896  0.00  0.00    +0.000 A 
ATOM     32  C   UNL     1      37.486  -0.848  16.363  0.00  0.00    +0.000 A 
ENDBRANCH  25  26
ENDBRANCH   2  25
TORSDOF 7
ENDMDL
MODEL 5
REMARK VINA RESULT:      -8.0      3.924      8.363
REMARK  Name = 
REMARK  7 active torsions:
REMARK  status: ('A' for Active; 'I' for Inactive)
REMARK    1  A    between atoms: C_2  and  O_3
REMARK    2  A    between atoms: O_3  and  C_4
REMARK    3  A    between atoms: C_7  and  N_8
REMARK    4  A    between atoms: N_8  and  C_9
REMARK    5  A    between atoms: C_10  and  S_11
REMARK    6  A    between atoms: S_11  and  C_12
REMARK    7  A    between atoms: N_21  and  C_22
REMARK                            x       y       z     vdW  Elec       q    Type
REMARK                         _______ _______ _______ _____ _____    ______ ____
ROOT
ATOM      1  C   UNL     1      37.479   2.788  14.805  0.00  0.00    +0.000 C 
ATOM      2  C   UNL     1      38.592   3.200  14.187  0.00  0.00    +0.000 C 
ATOM      3  C   UNL     1      39.169   4.253  15.005  0.00  0.00    +0.000 C 
ATOM      4  O   UNL     1      40.210   4.898  14.779  0.00  0.00    +0.000 OA
ATOM      5  N   UNL     1      38.336   4.457  16.165  0.00  0.00    +0.000 N 
ATOM      6  C   UNL     1      37.277   3.533  16.031  0.00  0.00    +0.000 C 
ATOM      7  O   UNL     1      36.359   3.443  16.882  0.00  0.00    +0.000 OA
ENDROOT
BRANCH   5   8
ATOM      8  C   UNL     1      38.540   5.407  17.226  0.00  0.00    +0.000 A 
ATOM      9  C   UNL     1      38.015   6.677  17.155  0.00  0.00    +0.000 A 
ATOM     10  C   UNL     1      38.210   7.605  18.179  0.00  0.00    +0.000 A 
ATOM     11  C   UNL     1      38.941   7.279  19.303  0.00  0.00    +0.000 A 
ATOM     12  C   UNL     1      39.154   8.259  20.396  0.00  0.00    +0.000 C 
ATOM     13  C   UNL     1      39.464   6.006  19.368  0.00  0.00    +0.000 A 
ATOM     14  C   UNL     1      39.270   5.077  18.344  0.00  0.00    +0.000 A 
ENDBRANCH   5   8
BRANCH   1  15
ATOM     15  N   UNL     1      36.601   1.749  14.328  0.00  0.00    +0.000 NA
BRANCH  15  19
ATOM     16  C   UNL     1      36.879  -2.236  15.616  0.00  0.00    +0.000 A 
ATOM     17  C   UNL     1      37.008  -1.898  14.287  0.00  0.00    +0.000 A 
ATOM     18  C   UNL     1      36.911  -0.587  13.892  0.00  0.00    +0.000 A 
ATOM     19  C   UNL     1      36.683   0.423  14.795  0.00  0.00    +0.000 A 
ATOM     20  C   UNL     1      36.549   0.109  16.131  0.00  0.00    +0.000 A 
ATOM     21  C   UNL     1      36.649  -1.214  16.516  0.00  0.00    +0.000 A 
BRANCH  16  22
ATOM     22  O   UNL     1      36.977  -3.565  16.032  0.00  0.00    +0.000 OA
BRANCH  22  24
ATOM     23  C   UNL     1      39.368  -3.507  16.499  0.00  0.00    +0.000 C 
ATOM     24  C   UNL     1      37.987  -3.888  16.962  0.00  0.00    +0.000 C 
ENDBRANCH  22  24
ENDBRANCH  16  22
ENDBRANCH  15  19
ENDBRANCH   1  15
BRANCH   2  25
ATOM     25  S   UNL     1      39.124   2.482  12.655  0.00  0.00    +0.000 S 
BRANCH  25  26
ATOM     26  C   UNL     1      39.807   0.876  12.795  0.00  0.00    +0.000 A 
ATOM     27  C   UNL     1      39.883  -0.089  11.829  0.00  0.00    +0.000 A 
ATOM     28  C   UNL     1      40.441  -1.336  12.022  0.00  0.00    +0.000 A 
ATOM     29  C   UNL     1      40.972  -1.686  13.252  0.00  0.00    +0.000 A 
ATOM     30  C   UNL     1      41.581  -3.014  13.507  0.00  0.00    +0.000 C 
ATOM     31  C   UNL     1      40.905  -0.727  14.238  0.00  0.00    +0.000 A 
ATOM     32  C   UNL     1      40.347   0.512  14.038  0.00  0.00    +0.000 A 
ENDBRANCH  25  26
ENDBRANCH   2  25
TORSDOF 7
ENDMDL
MODEL 6
REMARK VINA RESULT:      -7.6      1.090      1.691
REMARK  Name = 
REMARK  7 active torsions:
REMARK  status: ('A' for Active; 'I' for Inactive)
REMARK    1  A    between atoms: C_2  and  O_3
REMARK    2  A    between atoms: O_3  and  C_4
REMARK    3  A    between atoms: C_7  and  N_8
REMARK    4  A    between atoms: N_8  and  C_9
REMARK    5  A    between atoms: C_10  and  S_11
REMARK    6  A    between atoms: S_11  and  C_12
REMARK    7  A    between atoms: N_21  and  C_22
REMARK                            x       y       z     vdW  Elec       q    Type
REMARK                         _______ _______ _______ _____ _____    ______ ____
ROOT
ATOM      1  C   UNL     1      36.542   5.533  14.697  0.00  0.00    +0.000 C 
ATOM      2  C   UNL     1      37.659   5.400  15.422  0.00  0.00    +0.000 C 
ATOM      3  C   UNL     1      37.661   4.048  15.956  0.00  0.00    +0.000 C 
ATOM      4  O   UNL     1      38.527   3.527  16.684  0.00  0.00    +0.000 OA
ATOM      5  N   UNL     1      36.472   3.365  15.510  0.00  0.00    +0.000 N 
ATOM      6  C   UNL     1      35.776   4.304  14.719  0.00  0.00    +0.000 C 
ATOM      7  O   UNL     1      34.682   4.031  14.168  0.00  0.00    +0.000 OA
ENDROOT
BRANCH   5   8
ATOM      8  C   UNL     1      36.080   2.014  15.814  0.00  0.00    +0.000 A 
ATOM      9  C   UNL     1      36.596   0.948  15.112  0.00  0.00    +0.000 A 
ATOM     10  C   UNL     1      36.221  -0.364  15.399  0.00  0.00    +0.000 A 
ATOM     11  C   UNL     1      35.314  -0.641  16.401  0.00  0.00    +0.000 A 
ATOM     12  C   UNL     1      34.908  -2.033  16.714  0.00  0.00    +0.000 C 
ATOM     13  C   UNL     1      34.801   0.430  17.102  0.00  0.00    +0.000 A 
ATOM     14  C   UNL     1      35.176   1.744  16.814  0.00  0.00    +0.000 A 
ENDBRANCH   5   8
BRANCH   1  15
ATOM     15  N   UNL     1      36.151   6.725  13.988  0.00  0.00    +0.000 NA
BRANCH  15  19
ATOM     16  C   UNL     1      35.297   6.636   9.879  0.00  0.00    +0.000 A 
ATOM     17  C   UNL     1      36.522   6.240  10.369  0.00  0.00    +0.000 A 
ATOM     18  C   UNL     1      36.777   6.282  11.717  0.00  0.00    +0.000 A 
ATOM     19  C   UNL     1      35.832   6.713  12.616  0.00  0.00    +0.000 A 
ATOM     20  C   UNL     1      34.598   7.116  12.149  0.00  0.00    +0.000 A 
ATOM     21  C   UNL     1      34.354   7.069  10.791  0.00  0.00    +0.000 A 
BRANCH  16  22
ATOM     22  O   UNL     1      35.024   6.598   8.510  0.00  0.00    +0.000 OA
BRANCH  22  24
ATOM     23  C   UNL     1      33.561   7.013   6.607  0.00  0.00    +0.000 C 
ATOM     24  C   UNL     1      33.702   6.865   8.098  0.00  0.00    +0.000 C 
ENDBRANCH  22  24
ENDBRANCH  16  22
ENDBRANCH  15  19
ENDBRANCH   1  15
BRANCH   2  25
ATOM     25  S   UNL     1      38.821   6.729  15.594  0.00  0.00    +0.000 S 
BRANCH  25  26
ATOM     26  C   UNL     1      39.869   6.611  16.992  0.00  0.00    +0.000 A 
ATOM     27  C   UNL     1      41.236   6.621  17.016  0.00  0.00    +0.000 A 
ATOM     28  C   UNL     1      41.991   6.524  18.167  0.00  0.00    +0.000 A 
ATOM     29  C   UNL     1      41.376   6.406  19.403  0.00  0.00    +0.000 A 
ATOM     30  C   UNL     1      42.145   6.299  20.666  0.00  0.00    +0.000 C 
ATOM     31  C   UNL     1      39.999   6.394  19.399  0.00  0.00    +0.000 A 
ATOM     32  C   UNL     1      39.256   6.491  18.248  0.00  0.00    +0.000 A 
ENDBRANCH  25  26
ENDBRANCH   2  25
TORSDOF 7
ENDMDL
MODEL 7
REMARK VINA RESULT:      -7.6      3.990      6.066
REMARK  Name = 
REMARK  7 active torsions:
REMARK  status: ('A' for Active; 'I' for Inactive)
REMARK    1  A    between atoms: C_2  and  O_3
REMARK    2  A    between atoms: O_3  and  C_4
REMARK    3  A    between atoms: C_7  and  N_8
REMARK    4  A    between atoms: N_8  and  C_9
REMARK    5  A    between atoms: C_10  and  S_11
REMARK    6  A    between atoms: S_11  and  C_12
REMARK    7  A    between atoms: N_21  and  C_22
REMARK                            x       y       z     vdW  Elec       q    Type
REMARK                         _______ _______ _______ _____ _____    ______ ____
ROOT
ATOM      1  C   UNL     1      37.186  -0.533  15.382  0.00  0.00    +0.000 C 
ATOM      2  C   UNL     1      37.844  -1.012  14.320  0.00  0.00    +0.000 C 
ATOM      3  C   UNL     1      37.372  -2.370  14.104  0.00  0.00    +0.000 C 
ATOM      4  O   UNL     1      37.737  -3.161  13.215  0.00  0.00    +0.000 OA
ATOM      5  N   UNL     1      36.382  -2.687  15.104  0.00  0.00    +0.000 N 
ATOM      6  C   UNL     1      36.271  -1.528  15.901  0.00  0.00    +0.000 C 
ATOM      7  O   UNL     1      35.484  -1.463  16.877  0.00  0.00    +0.000 OA
ENDROOT
BRANCH   5   8
ATOM      8  C   UNL     1      35.667  -3.926  15.255  0.00  0.00    +0.000 A 
ATOM      9  C   UNL     1      36.166  -4.946  16.034  0.00  0.00    +0.000 A 
ATOM     10  C   UNL     1      35.480  -6.151  16.185  0.00  0.00    +0.000 A 
ATOM     11  C   UNL     1      34.271  -6.364  15.555  0.00  0.00    +0.000 A 
ATOM     12  C   UNL     1      33.534  -7.642  15.709  0.00  0.00    +0.000 C 
ATOM     13  C   UNL     1      33.776  -5.340  14.777  0.00  0.00    +0.000 A 
ATOM     14  C   UNL     1      34.462  -4.134  14.625  0.00  0.00    +0.000 A 
ENDBRANCH   5   8
BRANCH   1  15
ATOM     15  N   UNL     1      37.354   0.788  15.936  0.00  0.00    +0.000 NA
BRANCH  15  19
ATOM     16  C   UNL     1      34.941   4.029  14.801  0.00  0.00    +0.000 A 
ATOM     17  C   UNL     1      36.232   3.896  14.340  0.00  0.00    +0.000 A 
ATOM     18  C   UNL     1      37.001   2.827  14.728  0.00  0.00    +0.000 A 
ATOM     19  C   UNL     1      36.519   1.864  15.580  0.00  0.00    +0.000 A 
ATOM     20  C   UNL     1      35.229   1.976  16.056  0.00  0.00    +0.000 A 
ATOM     21  C   UNL     1      34.465   3.055  15.658  0.00  0.00    +0.000 A 
BRANCH  16  22
ATOM     22  O   UNL     1      34.146   5.109  14.413  0.00  0.00    +0.000 OA
BRANCH  22  24
ATOM     23  C   UNL     1      33.899   7.489  13.956  0.00  0.00    +0.000 C 
ATOM     24  C   UNL     1      34.800   6.284  13.989  0.00  0.00    +0.000 C 
ENDBRANCH  22  24
ENDBRANCH  16  22
ENDBRANCH  15  19
ENDBRANCH   1  15
BRANCH   2  25
ATOM     25  S   UNL     1      39.041  -0.036  13.449  0.00  0.00    +0.000 S 
BRANCH  25  26
ATOM     26  C   UNL     1      40.709  -0.398  13.841  0.00  0.00    +0.000 A 
ATOM     27  C   UNL     1      41.790   0.436  13.757  0.00  0.00    +0.000 A 
ATOM     28  C   UNL     1      43.078   0.070  14.087  0.00  0.00    +0.000 A 
ATOM     29  C   UNL     1      43.352  -1.211  14.538  0.00  0.00    +0.000 A 
ATOM     30  C   UNL     1      44.720  -1.650  14.904  0.00  0.00    +0.000 C 
ATOM     31  C   UNL     1      42.276  -2.066  14.629  0.00  0.00    +0.000 A 
ATOM     32  C   UNL     1      40.996  -1.694  14.297  0.00  0.00    +0.000 A 
ENDBRANCH  25  26
ENDBRANCH   2  25
TORSDOF 7
ENDMDL
MODEL 8
REMARK VINA RESULT:      -7.6      3.525      6.251
REMARK  Name = 
REMARK  7 active torsions:
REMARK  status: ('A' for Active; 'I' for Inactive)
REMARK    1  A    between atoms: C_2  and  O_3
REMARK    2  A    between atoms: O_3  and  C_4
REMARK    3  A    between atoms: C_7  and  N_8
REMARK    4  A    between atoms: N_8  and  C_9
REMARK    5  A    between atoms: C_10  and  S_11
REMARK    6  A    between atoms: S_11  and  C_12
REMARK    7  A    between atoms: N_21  and  C_22
REMARK                            x       y       z     vdW  Elec       q    Type
REMARK                         _______ _______ _______ _____ _____    ______ ____
ROOT
ATOM      1  C   UNL     1      37.043  -0.756  15.700  0.00  0.00    +0.000 C 
ATOM      2  C   UNL     1      37.773  -1.197  14.669  0.00  0.00    +0.000 C 
ATOM      3  C   UNL     1      37.311  -2.541  14.365  0.00  0.00    +0.000 C 
ATOM      4  O   UNL     1      37.733  -3.299  13.472  0.00  0.00    +0.000 OA
ATOM      5  N   UNL     1      36.251  -2.891  15.279  0.00  0.00    +0.000 N 
ATOM      6  C   UNL     1      36.090  -1.764  16.114  0.00  0.00    +0.000 C 
ATOM      7  O   UNL     1      35.237  -1.733  17.034  0.00  0.00    +0.000 OA
ENDROOT
BRANCH   5   8
ATOM      8  C   UNL     1      35.522  -4.130  15.330  0.00  0.00    +0.000 A 
ATOM      9  C   UNL     1      35.960  -5.184  16.100  0.00  0.00    +0.000 A 
ATOM     10  C   UNL     1      35.260  -6.389  16.153  0.00  0.00    +0.000 A 
ATOM     11  C   UNL     1      34.097  -6.568  15.432  0.00  0.00    +0.000 A 
ATOM     12  C   UNL     1      33.345  -7.845  15.482  0.00  0.00    +0.000 C 
ATOM     13  C   UNL     1      33.662  -5.509  14.664  0.00  0.00    +0.000 A 
ATOM     14  C   UNL     1      34.363  -4.303  14.609  0.00  0.00    +0.000 A 
ENDBRANCH   5   8
BRANCH   1  15
ATOM     15  N   UNL     1      37.179   0.540  16.318  0.00  0.00    +0.000 NA
BRANCH  15  19
ATOM     16  C   UNL     1      35.577   4.057  14.680  0.00  0.00    +0.000 A 
ATOM     17  C   UNL     1      36.775   4.059  15.359  0.00  0.00    +0.000 A 
ATOM     18  C   UNL     1      37.276   2.896  15.888  0.00  0.00    +0.000 A 
ATOM     19  C   UNL     1      36.610   1.702  15.761  0.00  0.00    +0.000 A 
ATOM     20  C   UNL     1      35.407   1.673  15.085  0.00  0.00    +0.000 A 
ATOM     21  C   UNL     1      34.915   2.851  14.558  0.00  0.00    +0.000 A 
BRANCH  16  22
ATOM     22  O   UNL     1      35.057   5.232  14.136  0.00  0.00    +0.000 OA
BRANCH  22  24
ATOM     23  C   UNL     1      35.780   5.924  11.915  0.00  0.00    +0.000 C 
ATOM     24  C   UNL     1      35.933   6.061  13.406  0.00  0.00    +0.000 C 
ENDBRANCH  22  24
ENDBRANCH  16  22
ENDBRANCH  15  19
ENDBRANCH   1  15
BRANCH   2  25
ATOM     25  S   UNL     1      39.032  -0.195  13.923  0.00  0.00    +0.000 S 
BRANCH  25  26
ATOM     26  C   UNL     1      38.458   0.910  12.692  0.00  0.00    +0.000 A 
ATOM     27  C   UNL     1      38.735   2.243  12.568  0.00  0.00    +0.000 A 
ATOM     28  C   UNL     1      38.240   3.047  11.562  0.00  0.00    +0.000 A 
ATOM     29  C   UNL     1      37.403   2.522  10.590  0.00  0.00    +0.000 A 
ATOM     30  C   UNL     1      36.847   3.347   9.491  0.00  0.00    +0.000 C 
ATOM     31  C   UNL     1      37.112   1.180  10.698  0.00  0.00    +0.000 A 
ATOM     32  C   UNL     1      37.610   0.388  11.703  0.00  0.00    +0.000 A 
ENDBRANCH  25  26
ENDBRANCH   2  25
TORSDOF 7
ENDMDL
MODEL 9
REMARK VINA RESULT:      -7.5      3.924      6.220
REMARK  Name = 
REMARK  7 active torsions:
REMARK  status: ('A' for Active; 'I' for Inactive)
REMARK    1  A    between atoms: C_2  and  O_3
REMARK    2  A    between atoms: O_3  and  C_4
REMARK    3  A    between atoms: C_7  and  N_8
REMARK    4  A    between atoms: N_8  and  C_9
REMARK    5  A    between atoms: C_10  and  S_11
REMARK    6  A    between atoms: S_11  and  C_12
REMARK    7  A    between atoms: N_21  and  C_22
REMARK                            x       y       z     vdW  Elec       q    Type
REMARK                         _______ _______ _______ _____ _____    ______ ____
ROOT
ATOM      1  C   UNL     1      37.205  -1.024  15.946  0.00  0.00    +0.000 C 
ATOM      2  C   UNL     1      36.152  -0.710  16.709  0.00  0.00    +0.000 C 
ATOM      3  C   UNL     1      35.255  -1.852  16.688  0.00  0.00    +0.000 C 
ATOM      4  O   UNL     1      34.161  -1.962  17.273  0.00  0.00    +0.000 OA
ATOM      5  N   UNL     1      35.829  -2.885  15.861  0.00  0.00    +0.000 N 
ATOM      6  C   UNL     1      37.054  -2.356  15.399  0.00  0.00    +0.000 C 
ATOM      7  O   UNL     1      37.818  -3.006  14.645  0.00  0.00    +0.000 OA
ENDROOT
BRANCH   5   8
ATOM      8  C   UNL     1      35.266  -4.176  15.567  0.00  0.00    +0.000 A 
ATOM      9  C   UNL     1      35.684  -5.304  16.237  0.00  0.00    +0.000 A 
ATOM     10  C   UNL     1      35.144  -6.560  15.957  0.00  0.00    +0.000 A 
ATOM     11  C   UNL     1      34.169  -6.716  14.994  0.00  0.00    +0.000 A 
ATOM     12  C   UNL     1      33.589  -8.047  14.689  0.00  0.00    +0.000 C 
ATOM     13  C   UNL     1      33.754  -5.583  14.328  0.00  0.00    +0.000 A 
ATOM     14  C   UNL     1      34.294  -4.326  14.606  0.00  0.00    +0.000 A 
ENDBRANCH   5   8
BRANCH   1  15
ATOM     15  N   UNL     1      38.337  -0.165  15.697  0.00  0.00    +0.000 NA
BRANCH  15  19
ATOM     16  C   UNL     1      38.669   2.346  12.351  0.00  0.00    +0.000 A 
ATOM     17  C   UNL     1      39.590   2.384  13.374  0.00  0.00    +0.000 A 
ATOM     18  C   UNL     1      39.457   1.554  14.459  0.00  0.00    +0.000 A 
ATOM     19  C   UNL     1      38.414   0.666  14.563  0.00  0.00    +0.000 A 
ATOM     20  C   UNL     1      37.478   0.610  13.551  0.00  0.00    +0.000 A 
ATOM     21  C   UNL     1      37.623   1.450  12.465  0.00  0.00    +0.000 A 
BRANCH  16  22
ATOM     22  O   UNL     1      38.792   3.184  11.241  0.00  0.00    +0.000 OA
BRANCH  22  24
ATOM     23  C   UNL     1      39.772   1.813   9.481  0.00  0.00    +0.000 C 
ATOM     24  C   UNL     1      39.908   2.997  10.400  0.00  0.00    +0.000 C 
ENDBRANCH  22  24
ENDBRANCH  16  22
ENDBRANCH  15  19
ENDBRANCH   1  15
BRANCH   2  25
ATOM     25  S   UNL     1      36.033   0.859  17.529  0.00  0.00    +0.000 S 
BRANCH  25  26
ATOM     26  C   UNL     1      36.028   2.247  16.460  0.00  0.00    +0.000 A 
ATOM     27  C   UNL     1      36.930   3.273  16.417  0.00  0.00    +0.000 A 
ATOM     28  C   UNL     1      36.853   4.335  15.539  0.00  0.00    +0.000 A 
ATOM     29  C   UNL     1      35.818   4.416  14.622  0.00  0.00    +0.000 A 
ATOM     30  C   UNL     1      35.695   5.537  13.660  0.00  0.00    +0.000 C 
ATOM     31  C   UNL     1      34.899   3.390  14.650  0.00  0.00    +0.000 A 
ATOM     32  C   UNL     1      34.983   2.338  15.528  0.00  0.00    +0.000 A 
ENDBRANCH  25  26
ENDBRANCH   2  25
TORSDOF 7
ENDMDL
MODEL 10
REMARK VINA RESULT:      -7.4      2.931      7.478
REMARK  Name = 
REMARK  7 active torsions:
REMARK  status: ('A' for Active; 'I' for Inactive)
REMARK    1  A    between atoms: C_2  and  O_3
REMARK    2  A    between atoms: O_3  and  C_4
REMARK    3  A    between atoms: C_7  and  N_8
REMARK    4  A    between atoms: N_8  and  C_9
REMARK    5  A    between atoms: C_10  and  S_11
REMARK    6  A    between atoms: S_11  and  C_12
REMARK    7  A    between atoms: N_21  and  C_22
REMARK                            x       y       z     vdW  Elec       q    Type
REMARK                         _______ _______ _______ _____ _____    ______ ____
ROOT
ATOM      1  C   UNL     1      37.847   5.635  16.615  0.00  0.00    +0.000 C 
ATOM      2  C   UNL     1      37.492   5.881  15.348  0.00  0.00    +0.000 C 
ATOM      3  C   UNL     1      37.118   4.607  14.756  0.00  0.00    +0.000 C 
ATOM      4  O   UNL     1      36.728   4.404  13.592  0.00  0.00    +0.000 OA
ATOM      5  N   UNL     1      37.267   3.568  15.745  0.00  0.00    +0.000 N 
ATOM      6  C   UNL     1      37.725   4.223  16.909  0.00  0.00    +0.000 C 
ATOM      7  O   UNL     1      37.960   3.602  17.974  0.00  0.00    +0.000 OA
ENDROOT
BRANCH   5   8
ATOM      8  C   UNL     1      37.009   2.163  15.574  0.00  0.00    +0.000 A 
ATOM      9  C   UNL     1      37.927   1.340  14.962  0.00  0.00    +0.000 A 
ATOM     10  C   UNL     1      37.685  -0.023  14.791  0.00  0.00    +0.000 A 
ATOM     11  C   UNL     1      36.510  -0.596  15.231  0.00  0.00    +0.000 A 
ATOM     12  C   UNL     1      36.242  -2.045  15.054  0.00  0.00    +0.000 C 
ATOM     13  C   UNL     1      35.595   0.232  15.845  0.00  0.00    +0.000 A 
ATOM     14  C   UNL     1      35.837   1.597  16.016  0.00  0.00    +0.000 A 
ENDBRANCH   5   8
BRANCH   1  15
ATOM     15  N   UNL     1      38.287   6.630  17.561  0.00  0.00    +0.000 NA
BRANCH  15  19
ATOM     16  C   UNL     1      42.027   6.472  19.459  0.00  0.00    +0.000 A 
ATOM     17  C   UNL     1      40.854   6.507  20.180  0.00  0.00    +0.000 A 
ATOM     18  C   UNL     1      39.644   6.561  19.535  0.00  0.00    +0.000 A 
ATOM     19  C   UNL     1      39.558   6.582  18.165  0.00  0.00    +0.000 A 
ATOM     20  C   UNL     1      40.719   6.549  17.420  0.00  0.00    +0.000 A 
ATOM     21  C   UNL     1      41.930   6.494  18.081  0.00  0.00    +0.000 A 
BRANCH  16  22
ATOM     22  O   UNL     1      43.265   6.415  20.102  0.00  0.00    +0.000 OA
BRANCH  22  24
ATOM     23  C   UNL     1      44.475   5.241  21.861  0.00  0.00    +0.000 C 
ATOM     24  C   UNL     1      43.279   6.066  21.468  0.00  0.00    +0.000 C 
ENDBRANCH  22  24
ENDBRANCH  16  22
ENDBRANCH  15  19
ENDBRANCH   1  15
BRANCH   2  25
ATOM     25  S   UNL     1      37.527   7.521  14.674  0.00  0.00    +0.000 S 
BRANCH  25  26
ATOM     26  C   UNL     1      36.266   8.584  15.263  0.00  0.00    +0.000 A 
ATOM     27  C   UNL     1      34.957   8.627  14.872  0.00  0.00    +0.000 A 
ATOM     28  C   UNL     1      34.022   9.500  15.390  0.00  0.00    +0.000 A 
ATOM     29  C   UNL     1      34.379  10.412  16.369  0.00  0.00    +0.000 A 
ATOM     30  C   UNL     1      33.410  11.369  16.955  0.00  0.00    +0.000 C 
ATOM     31  C   UNL     1      35.695  10.384  16.776  0.00  0.00    +0.000 A 
ATOM     32  C   UNL     1      36.619   9.512  16.254  0.00  0.00    +0.000 A 
ENDBRANCH  25  26
ENDBRANCH   2  25
TORSDOF 7
ENDMDL
