MODEL 1
REMARK VINA RESULT:      -6.5      0.000      0.000
REMARK  Name = 
REMARK  4 active torsions:
REMARK  status: ('A' for Active; 'I' for Inactive)
REMARK    1  A    between atoms: C_2  and  C_3
REMARK    2  A    between atoms: C_3  and  C_16
REMARK    3  A    between atoms: C_4  and  C_5
REMARK    4  A    between atoms: C_16  and  N_18
REMARK                            x       y       z     vdW  Elec       q    Type
REMARK                         _______ _______ _______ _____ _____    ______ ____
ROOT
ATOM      1  C   UNL     1      15.254  11.650  35.398  0.00  0.00    +0.000 A 
ATOM      2  C   UNL     1      14.453  12.776  35.619  0.00  0.00    +0.000 A 
ATOM      3  N   UNL     1      14.140  13.348  34.426  0.00  0.00    +0.000 N 
ATOM      4  C   UNL     1      13.340  14.529  34.199  0.00  0.00    +0.000 C 
ATOM      5  C   UNL     1      14.710  12.629  33.444  0.00  0.00    +0.000 A 
ATOM      6  C   UNL     1      14.681  12.796  32.065  0.00  0.00    +0.000 A 
ATOM      7 CL   UNL     1      13.824  14.113  31.303  0.00  0.00    +0.000 Cl
ATOM      8  C   UNL     1      15.359  11.883  31.291  0.00  0.00    +0.000 A 
ATOM      9  C   UNL     1      16.045  10.840  31.868  0.00  0.00    +0.000 A 
ATOM     10  C   UNL     1      16.043  10.718  33.237  0.00  0.00    +0.000 A 
ATOM     11  C   UNL     1      15.389  11.594  34.048  0.00  0.00    +0.000 A 
ENDROOT
BRANCH   1  13
ATOM     12  C   UNL     1      16.944  10.997  36.931  0.00  0.00    +0.000 C 
ATOM     13  C   UNL     1      15.731  10.824  36.472  0.00  0.00    +0.000 C 
BRANCH  12  15
ATOM     14  C   UNL     1      17.878  13.159  37.340  0.00  0.00    +0.000 C 
ATOM     15  C   UNL     1      17.736  12.068  36.281  0.00  0.00    +0.000 C 
ENDBRANCH  12  15
BRANCH  12  16
ATOM     16  C   UNL     1      17.560  10.235  37.995  0.00  0.00    +0.000 C 
ATOM     17  O   UNL     1      16.905  10.000  39.033  0.00  0.00    +0.000 OA
BRANCH  16  18
ATOM     18  N   UNL     1      18.869   9.762  37.875  0.00  0.00    +0.000 NA
ATOM     19  C   UNL     1      19.902  10.140  38.517  0.00  0.00    +0.000 C 
ATOM     20  N   UNL     1      21.157   9.531  38.252  0.00  0.00    +0.000 NA
ATOM     21  N   UNL     1      19.821  11.164  39.493  0.00  0.00    +0.000 NA
ENDBRANCH  16  18
ENDBRANCH  12  16
ENDBRANCH   1  13
TORSDOF 4
ENDMDL
MODEL 2
REMARK VINA RESULT:      -6.5      0.895      2.247
REMARK  Name = 
REMARK  4 active torsions:
REMARK  status: ('A' for Active; 'I' for Inactive)
REMARK    1  A    between atoms: C_2  and  C_3
REMARK    2  A    between atoms: C_3  and  C_16
REMARK    3  A    between atoms: C_4  and  C_5
REMARK    4  A    between atoms: C_16  and  N_18
REMARK                            x       y       z     vdW  Elec       q    Type
REMARK                         _______ _______ _______ _____ _____    ______ ____
ROOT
ATOM      1  C   UNL     1      15.672  11.203  34.574  0.00  0.00    +0.000 A 
ATOM      2  C   UNL     1      16.117  10.880  33.287  0.00  0.00    +0.000 A 
ATOM      3  N   UNL     1      15.584  11.755  32.393  0.00  0.00    +0.000 N 
ATOM      4  C   UNL     1      15.779  11.778  30.962  0.00  0.00    +0.000 C 
ATOM      5  C   UNL     1      14.812  12.630  33.058  0.00  0.00    +0.000 A 
ATOM      6  C   UNL     1      14.066  13.710  32.602  0.00  0.00    +0.000 A 
ATOM      7 CL   UNL     1      13.989  14.142  30.911  0.00  0.00    +0.000 Cl
ATOM      8  C   UNL     1      13.370  14.450  33.529  0.00  0.00    +0.000 A 
ATOM      9  C   UNL     1      13.412  14.128  34.865  0.00  0.00    +0.000 A 
ATOM     10  C   UNL     1      14.164  13.050  35.267  0.00  0.00    +0.000 A 
ATOM     11  C   UNL     1      14.871  12.285  34.390  0.00  0.00    +0.000 A 
ENDROOT
BRANCH   1  13
ATOM     12  C   UNL     1      17.037  10.934  36.496  0.00  0.00    +0.000 C 
ATOM     13  C   UNL     1      16.081  10.465  35.736  0.00  0.00    +0.000 C 
BRANCH  12  15
ATOM     14  C   UNL     1      17.258  13.213  37.183  0.00  0.00    +0.000 C 
ATOM     15  C   UNL     1      17.624  12.228  36.074  0.00  0.00    +0.000 C 
ENDBRANCH  12  15
BRANCH  12  16
ATOM     16  C   UNL     1      17.559  10.296  37.684  0.00  0.00    +0.000 C 
ATOM     17  O   UNL     1      16.820  10.173  38.684  0.00  0.00    +0.000 OA
BRANCH  16  18
ATOM     18  N   UNL     1      18.872   9.819  37.726  0.00  0.00    +0.000 NA
ATOM     19  C   UNL     1      19.881  10.348  38.297  0.00  0.00    +0.000 C 
ATOM     20  N   UNL     1      21.145   9.704  38.228  0.00  0.00    +0.000 NA
ATOM     21  N   UNL     1      19.765  11.572  38.999  0.00  0.00    +0.000 NA
ENDBRANCH  16  18
ENDBRANCH  12  16
ENDBRANCH   1  13
TORSDOF 4
ENDMDL
MODEL 3
REMARK VINA RESULT:      -6.4     18.363     19.737
REMARK  Name = 
REMARK  4 active torsions:
REMARK  status: ('A' for Active; 'I' for Inactive)
REMARK    1  A    between atoms: C_2  and  C_3
REMARK    2  A    between atoms: C_3  and  C_16
REMARK    3  A    between atoms: C_4  and  C_5
REMARK    4  A    between atoms: C_16  and  N_18
REMARK                            x       y       z     vdW  Elec       q    Type
REMARK                         _______ _______ _______ _____ _____    ______ ____
ROOT
ATOM      1  C   UNL     1      26.520  23.285  26.903  0.00  0.00    +0.000 A 
ATOM      2  C   UNL     1      27.459  22.675  27.742  0.00  0.00    +0.000 A 
ATOM      3  N   UNL     1      27.356  23.201  28.992  0.00  0.00    +0.000 N 
ATOM      4  C   UNL     1      28.138  22.860  30.157  0.00  0.00    +0.000 C 
ATOM      5  C   UNL     1      26.384  24.129  28.987  0.00  0.00    +0.000 A 
ATOM      6  C   UNL     1      25.895  24.934  30.008  0.00  0.00    +0.000 A 
ATOM      7 CL   UNL     1      26.540  24.879  31.630  0.00  0.00    +0.000 Cl
ATOM      8  C   UNL     1      24.867  25.799  29.711  0.00  0.00    +0.000 A 
ATOM      9  C   UNL     1      24.344  25.864  28.441  0.00  0.00    +0.000 A 
ATOM     10  C   UNL     1      24.863  25.047  27.465  0.00  0.00    +0.000 A 
ATOM     11  C   UNL     1      25.879  24.173  27.707  0.00  0.00    +0.000 A 
ENDROOT
BRANCH   1  13
ATOM     12  C   UNL     1      27.017  23.603  24.605  0.00  0.00    +0.000 C 
ATOM     13  C   UNL     1      26.376  22.924  25.521  0.00  0.00    +0.000 C 
BRANCH  12  15
ATOM     14  C   UNL     1      27.084  25.988  24.762  0.00  0.00    +0.000 C 
ATOM     15  C   UNL     1      27.863  24.716  25.097  0.00  0.00    +0.000 C 
ENDBRANCH  12  15
BRANCH  12  16
ATOM     16  C   UNL     1      26.958  23.362  23.180  0.00  0.00    +0.000 C 
ATOM     17  O   UNL     1      25.867  23.042  22.661  0.00  0.00    +0.000 OA
BRANCH  16  18
ATOM     18  N   UNL     1      28.100  23.482  22.383  0.00  0.00    +0.000 NA
ATOM     19  C   UNL     1      28.409  24.433  21.594  0.00  0.00    +0.000 C 
ATOM     20  N   UNL     1      29.626  24.373  20.864  0.00  0.00    +0.000 NA
ATOM     21  N   UNL     1      27.557  25.552  21.429  0.00  0.00    +0.000 NA
ENDBRANCH  16  18
ENDBRANCH  12  16
ENDBRANCH   1  13
TORSDOF 4
ENDMDL
MODEL 4
REMARK VINA RESULT:      -6.3     18.811     20.172
REMARK  Name = 
REMARK  4 active torsions:
REMARK  status: ('A' for Active; 'I' for Inactive)
REMARK    1  A    between atoms: C_2  and  C_3
REMARK    2  A    between atoms: C_3  and  C_16
REMARK    3  A    between atoms: C_4  and  C_5
REMARK    4  A    between atoms: C_16  and  N_18
REMARK                            x       y       z     vdW  Elec       q    Type
REMARK                         _______ _______ _______ _____ _____    ______ ____
ROOT
ATOM      1  C   UNL     1      27.812  22.684  27.061  0.00  0.00    +0.000 A 
ATOM      2  C   UNL     1      26.884  23.117  28.014  0.00  0.00    +0.000 A 
ATOM      3  N   UNL     1      27.506  23.260  29.216  0.00  0.00    +0.000 N 
ATOM      4  C   UNL     1      26.917  23.681  30.466  0.00  0.00    +0.000 C 
ATOM      5  C   UNL     1      28.801  22.934  29.070  0.00  0.00    +0.000 A 
ATOM      6  C   UNL     1      29.842  22.925  29.989  0.00  0.00    +0.000 A 
ATOM      7 CL   UNL     1      29.612  23.366  31.663  0.00  0.00    +0.000 Cl
ATOM      8  C   UNL     1      31.090  22.551  29.546  0.00  0.00    +0.000 A 
ATOM      9  C   UNL     1      31.296  22.196  28.234  0.00  0.00    +0.000 A 
ATOM     10  C   UNL     1      30.233  22.221  27.363  0.00  0.00    +0.000 A 
ATOM     11  C   UNL     1      28.979  22.583  27.750  0.00  0.00    +0.000 A 
ENDROOT
BRANCH   1  13
ATOM     12  C   UNL     1      27.647  23.409  24.808  0.00  0.00    +0.000 C 
ATOM     13  C   UNL     1      27.455  22.460  25.688  0.00  0.00    +0.000 C 
BRANCH  12  15
ATOM     14  C   UNL     1      27.112  25.696  25.255  0.00  0.00    +0.000 C 
ATOM     15  C   UNL     1      28.238  24.665  25.327  0.00  0.00    +0.000 C 
ENDBRANCH  12  15
BRANCH  12  16
ATOM     16  C   UNL     1      27.325  23.330  23.400  0.00  0.00    +0.000 C 
ATOM     17  O   UNL     1      26.144  23.114  23.056  0.00  0.00    +0.000 OA
BRANCH  16  18
ATOM     18  N   UNL     1      28.315  23.494  22.426  0.00  0.00    +0.000 NA
ATOM     19  C   UNL     1      28.526  24.507  21.684  0.00  0.00    +0.000 C 
ATOM     20  N   UNL     1      29.593  24.483  20.747  0.00  0.00    +0.000 NA
ATOM     21  N   UNL     1      27.711  25.662  21.776  0.00  0.00    +0.000 NA
ENDBRANCH  16  18
ENDBRANCH  12  16
ENDBRANCH   1  13
TORSDOF 4
ENDMDL
MODEL 5
REMARK VINA RESULT:      -6.1     17.692     18.620
REMARK  Name = 
REMARK  4 active torsions:
REMARK  status: ('A' for Active; 'I' for Inactive)
REMARK    1  A    between atoms: C_2  and  C_3
REMARK    2  A    between atoms: C_3  and  C_16
REMARK    3  A    between atoms: C_4  and  C_5
REMARK    4  A    between atoms: C_16  and  N_18
REMARK                            x       y       z     vdW  Elec       q    Type
REMARK                         _______ _______ _______ _____ _____    ______ ____
ROOT
ATOM      1  C   UNL     1      28.004  22.836  26.686  0.00  0.00    +0.000 A 
ATOM      2  C   UNL     1      29.343  23.027  26.324  0.00  0.00    +0.000 A 
ATOM      3  N   UNL     1      29.416  23.302  24.995  0.00  0.00    +0.000 N 
ATOM      4  C   UNL     1      30.603  23.559  24.214  0.00  0.00    +0.000 C 
ATOM      5  C   UNL     1      28.172  23.296  24.487  0.00  0.00    +0.000 A 
ATOM      6  C   UNL     1      27.720  23.526  23.194  0.00  0.00    +0.000 A 
ATOM      7 CL   UNL     1      28.808  23.884  21.875  0.00  0.00    +0.000 Cl
ATOM      8  C   UNL     1      26.365  23.464  22.964  0.00  0.00    +0.000 A 
ATOM      9  C   UNL     1      25.488  23.181  23.984  0.00  0.00    +0.000 A 
ATOM     10  C   UNL     1      25.985  22.960  25.247  0.00  0.00    +0.000 A 
ATOM     11  C   UNL     1      27.316  23.010  25.527  0.00  0.00    +0.000 A 
ENDROOT
BRANCH   1  13
ATOM     12  C   UNL     1      27.127  23.504  28.787  0.00  0.00    +0.000 C 
ATOM     13  C   UNL     1      27.607  22.547  28.035  0.00  0.00    +0.000 C 
BRANCH  12  15
ATOM     14  C   UNL     1      25.536  25.152  28.102  0.00  0.00    +0.000 C 
ATOM     15  C   UNL     1      27.031  24.840  28.152  0.00  0.00    +0.000 C 
ENDBRANCH  12  15
BRANCH  12  16
ATOM     16  C   UNL     1      26.699  23.363  30.162  0.00  0.00    +0.000 C 
ATOM     17  O   UNL     1      25.864  22.481  30.452  0.00  0.00    +0.000 OA
BRANCH  16  18
ATOM     18  N   UNL     1      27.209  24.196  31.161  0.00  0.00    +0.000 NA
ATOM     19  C   UNL     1      26.595  25.098  31.819  0.00  0.00    +0.000 C 
ATOM     20  N   UNL     1      27.292  25.845  32.805  0.00  0.00    +0.000 NA
ATOM     21  N   UNL     1      25.226  25.372  31.581  0.00  0.00    +0.000 NA
ENDBRANCH  16  18
ENDBRANCH  12  16
ENDBRANCH   1  13
TORSDOF 4
ENDMDL
MODEL 6
REMARK VINA RESULT:      -6.1     18.244     19.592
REMARK  Name = 
REMARK  4 active torsions:
REMARK  status: ('A' for Active; 'I' for Inactive)
REMARK    1  A    between atoms: C_2  and  C_3
REMARK    2  A    between atoms: C_3  and  C_16
REMARK    3  A    between atoms: C_4  and  C_5
REMARK    4  A    between atoms: C_16  and  N_18
REMARK                            x       y       z     vdW  Elec       q    Type
REMARK                         _______ _______ _______ _____ _____    ______ ____
ROOT
ATOM      1  C   UNL     1      25.726  23.773  26.628  0.00  0.00    +0.000 A 
ATOM      2  C   UNL     1      24.834  24.821  26.882  0.00  0.00    +0.000 A 
ATOM      3  N   UNL     1      24.921  25.180  28.190  0.00  0.00    +0.000 N 
ATOM      4  C   UNL     1      24.173  26.212  28.870  0.00  0.00    +0.000 C 
ATOM      5  C   UNL     1      25.838  24.402  28.789  0.00  0.00    +0.000 A 
ATOM      6  C   UNL     1      26.292  24.382  30.101  0.00  0.00    +0.000 A 
ATOM      7 CL   UNL     1      25.669  25.468  31.320  0.00  0.00    +0.000 Cl
ATOM      8  C   UNL     1      27.265  23.468  30.433  0.00  0.00    +0.000 A 
ATOM      9  C   UNL     1      27.768  22.601  29.493  0.00  0.00    +0.000 A 
ATOM     10  C   UNL     1      27.286  22.660  28.207  0.00  0.00    +0.000 A 
ATOM     11  C   UNL     1      26.325  23.545  27.827  0.00  0.00    +0.000 A 
ENDROOT
BRANCH   1  13
ATOM     12  C   UNL     1      26.384  23.900  24.352  0.00  0.00    +0.000 C 
ATOM     13  C   UNL     1      25.875  23.189  25.325  0.00  0.00    +0.000 C 
BRANCH  12  15
ATOM     14  C   UNL     1      28.252  25.199  25.087  0.00  0.00    +0.000 C 
ATOM     15  C   UNL     1      26.776  25.286  24.699  0.00  0.00    +0.000 C 
ENDBRANCH  12  15
BRANCH  12  16
ATOM     16  C   UNL     1      26.581  23.449  22.992  0.00  0.00    +0.000 C 
ATOM     17  O   UNL     1      25.605  23.005  22.350  0.00  0.00    +0.000 OA
BRANCH  16  18
ATOM     18  N   UNL     1      27.842  23.506  22.391  0.00  0.00    +0.000 NA
ATOM     19  C   UNL     1      28.313  24.422  21.642  0.00  0.00    +0.000 C 
ATOM     20  N   UNL     1      29.630  24.298  21.125  0.00  0.00    +0.000 NA
ATOM     21  N   UNL     1      27.543  25.564  21.311  0.00  0.00    +0.000 NA
ENDBRANCH  16  18
ENDBRANCH  12  16
ENDBRANCH   1  13
TORSDOF 4
ENDMDL
MODEL 7
REMARK VINA RESULT:      -6.0      1.966      2.470
REMARK  Name = 
REMARK  4 active torsions:
REMARK  status: ('A' for Active; 'I' for Inactive)
REMARK    1  A    between atoms: C_2  and  C_3
REMARK    2  A    between atoms: C_3  and  C_16
REMARK    3  A    between atoms: C_4  and  C_5
REMARK    4  A    between atoms: C_16  and  N_18
REMARK                            x       y       z     vdW  Elec       q    Type
REMARK                         _______ _______ _______ _____ _____    ______ ____
ROOT
ATOM      1  C   UNL     1      16.283  10.925  36.639  0.00  0.00    +0.000 A 
ATOM      2  C   UNL     1      15.311  11.916  36.820  0.00  0.00    +0.000 A 
ATOM      3  N   UNL     1      14.902  12.373  35.607  0.00  0.00    +0.000 N 
ATOM      4  C   UNL     1      13.919  13.396  35.338  0.00  0.00    +0.000 C 
ATOM      5  C   UNL     1      15.576  11.712  34.650  0.00  0.00    +0.000 A 
ATOM      6  C   UNL     1      15.513  11.809  33.266  0.00  0.00    +0.000 A 
ATOM      7 CL   UNL     1      14.447  12.932  32.457  0.00  0.00    +0.000 Cl
ATOM      8  C   UNL     1      16.326  10.984  32.524  0.00  0.00    +0.000 A 
ATOM      9  C   UNL     1      17.175  10.094  33.138  0.00  0.00    +0.000 A 
ATOM     10  C   UNL     1      17.202  10.036  34.510  0.00  0.00    +0.000 A 
ATOM     11  C   UNL     1      16.418  10.830  35.290  0.00  0.00    +0.000 A 
ENDROOT
BRANCH   1  13
ATOM     12  C   UNL     1      18.129  10.517  38.074  0.00  0.00    +0.000 C 
ATOM     13  C   UNL     1      16.894  10.238  37.742  0.00  0.00    +0.000 C 
BRANCH  12  15
ATOM     14  C   UNL     1      19.349  12.565  38.262  0.00  0.00    +0.000 C 
ATOM     15  C   UNL     1      18.801  11.554  37.255  0.00  0.00    +0.000 C 
ENDBRANCH  12  15
BRANCH  12  16
ATOM     16  C   UNL     1      18.874   9.900  39.149  0.00  0.00    +0.000 C 
ATOM     17  O   UNL     1      19.920   9.272  38.882  0.00  0.00    +0.000 OA
BRANCH  16  18
ATOM     18  N   UNL     1      18.439   9.998  40.473  0.00  0.00    +0.000 NA
ATOM     19  C   UNL     1      17.799   9.132  41.155  0.00  0.00    +0.000 C 
ATOM     20  N   UNL     1      17.445   9.420  42.500  0.00  0.00    +0.000 NA
ATOM     21  N   UNL     1      17.432   7.885  40.593  0.00  0.00    +0.000 NA
ENDBRANCH  16  18
ENDBRANCH  12  16
ENDBRANCH   1  13
TORSDOF 4
ENDMDL
MODEL 8
REMARK VINA RESULT:      -6.0      2.378      3.908
REMARK  Name = 
REMARK  4 active torsions:
REMARK  status: ('A' for Active; 'I' for Inactive)
REMARK    1  A    between atoms: C_2  and  C_3
REMARK    2  A    between atoms: C_3  and  C_16
REMARK    3  A    between atoms: C_4  and  C_5
REMARK    4  A    between atoms: C_16  and  N_18
REMARK                            x       y       z     vdW  Elec       q    Type
REMARK                         _______ _______ _______ _____ _____    ______ ____
ROOT
ATOM      1  C   UNL     1      17.460   9.901  37.075  0.00  0.00    +0.000 A 
ATOM      2  C   UNL     1      17.993   9.675  35.801  0.00  0.00    +0.000 A 
ATOM      3  N   UNL     1      17.240  10.327  34.875  0.00  0.00    +0.000 N 
ATOM      4  C   UNL     1      17.435  10.355  33.444  0.00  0.00    +0.000 C 
ATOM      5  C   UNL     1      16.242  10.967  35.508  0.00  0.00    +0.000 A 
ATOM      6  C   UNL     1      15.223  11.770  35.013  0.00  0.00    +0.000 A 
ATOM      7 CL   UNL     1      15.042  12.102  33.307  0.00  0.00    +0.000 Cl
ATOM      8  C   UNL     1      14.334  12.312  35.912  0.00  0.00    +0.000 A 
ATOM      9  C   UNL     1      14.453  12.062  37.259  0.00  0.00    +0.000 A 
ATOM     10  C   UNL     1      15.479  11.261  37.700  0.00  0.00    +0.000 A 
ATOM     11  C   UNL     1      16.385  10.701  36.852  0.00  0.00    +0.000 A 
ENDROOT
BRANCH   1  13
ATOM     12  C   UNL     1      18.927  10.059  38.933  0.00  0.00    +0.000 C 
ATOM     13  C   UNL     1      18.053   9.354  38.263  0.00  0.00    +0.000 C 
BRANCH  12  15
ATOM     14  C   UNL     1      20.722  11.369  38.050  0.00  0.00    +0.000 C 
ATOM     15  C   UNL     1      19.232  11.403  38.387  0.00  0.00    +0.000 C 
ENDBRANCH  12  15
BRANCH  12  16
ATOM     16  C   UNL     1      19.611   9.634  40.135  0.00  0.00    +0.000 C 
ATOM     17  O   UNL     1      19.618  10.388  41.131  0.00  0.00    +0.000 OA
BRANCH  16  18
ATOM     18  N   UNL     1      20.259   8.397  40.193  0.00  0.00    +0.000 NA
ATOM     19  C   UNL     1      19.821   7.304  40.680  0.00  0.00    +0.000 C 
ATOM     20  N   UNL     1      20.636   6.142  40.644  0.00  0.00    +0.000 NA
ATOM     21  N   UNL     1      18.532   7.228  41.261  0.00  0.00    +0.000 NA
ENDBRANCH  16  18
ENDBRANCH  12  16
ENDBRANCH   1  13
TORSDOF 4
ENDMDL
MODEL 9
REMARK VINA RESULT:      -5.7     21.798     23.266
REMARK  Name = 
REMARK  4 active torsions:
REMARK  status: ('A' for Active; 'I' for Inactive)
REMARK    1  A    between atoms: C_2  and  C_3
REMARK    2  A    between atoms: C_3  and  C_16
REMARK    3  A    between atoms: C_4  and  C_5
REMARK    4  A    between atoms: C_16  and  N_18
REMARK                            x       y       z     vdW  Elec       q    Type
REMARK                         _______ _______ _______ _____ _____    ______ ____
ROOT
ATOM      1  C   UNL     1      29.086  24.297  22.798  0.00  0.00    +0.000 A 
ATOM      2  C   UNL     1      30.192  23.996  23.601  0.00  0.00    +0.000 A 
ATOM      3  N   UNL     1      29.770  23.381  24.737  0.00  0.00    +0.000 N 
ATOM      4  C   UNL     1      30.582  22.908  25.835  0.00  0.00    +0.000 C 
ATOM      5  C   UNL     1      28.431  23.274  24.696  0.00  0.00    +0.000 A 
ATOM      6  C   UNL     1      27.538  22.721  25.604  0.00  0.00    +0.000 A 
ATOM      7 CL   UNL     1      28.060  22.012  27.113  0.00  0.00    +0.000 Cl
ATOM      8  C   UNL     1      26.199  22.742  25.286  0.00  0.00    +0.000 A 
ATOM      9  C   UNL     1      25.763  23.297  24.106  0.00  0.00    +0.000 A 
ATOM     10  C   UNL     1      26.687  23.833  23.241  0.00  0.00    +0.000 A 
ATOM     11  C   UNL     1      28.022  23.837  23.507  0.00  0.00    +0.000 A 
ENDROOT
BRANCH   1  13
ATOM     12  C   UNL     1      28.907  26.201  21.394  0.00  0.00    +0.000 C 
ATOM     13  C   UNL     1      29.216  24.936  21.519  0.00  0.00    +0.000 C 
BRANCH  12  15
ATOM     14  C   UNL     1      29.488  27.952  22.914  0.00  0.00    +0.000 C 
ATOM     15  C   UNL     1      28.439  26.879  22.626  0.00  0.00    +0.000 C 
ENDBRANCH  12  15
BRANCH  12  16
ATOM     16  C   UNL     1      28.976  26.969  20.170  0.00  0.00    +0.000 C 
ATOM     17  O   UNL     1      28.063  27.781  19.908  0.00  0.00    +0.000 OA
BRANCH  16  18
ATOM     18  N   UNL     1      30.047  26.815  19.285  0.00  0.00    +0.000 NA
ATOM     19  C   UNL     1      30.825  27.716  18.831  0.00  0.00    +0.000 C 
ATOM     20  N   UNL     1      31.866  27.358  17.934  0.00  0.00    +0.000 NA
ATOM     21  N   UNL     1      30.668  29.073  19.204  0.00  0.00    +0.000 NA
ENDBRANCH  16  18
ENDBRANCH  12  16
ENDBRANCH   1  13
TORSDOF 4
ENDMDL
MODEL 10
REMARK VINA RESULT:      -5.7     18.924     20.121
REMARK  Name = 
REMARK  4 active torsions:
REMARK  status: ('A' for Active; 'I' for Inactive)
REMARK    1  A    between atoms: C_2  and  C_3
REMARK    2  A    between atoms: C_3  and  C_16
REMARK    3  A    between atoms: C_4  and  C_5
REMARK    4  A    between atoms: C_16  and  N_18
REMARK                            x       y       z     vdW  Elec       q    Type
REMARK                         _______ _______ _______ _____ _____    ______ ____
ROOT
ATOM      1  C   UNL     1      34.392   4.566  36.478  0.00  0.00    +0.000 A 
ATOM      2  C   UNL     1      34.442   3.620  37.509  0.00  0.00    +0.000 A 
ATOM      3  N   UNL     1      34.144   2.392  37.008  0.00  0.00    +0.000 N 
ATOM      4  C   UNL     1      34.078   1.141  37.727  0.00  0.00    +0.000 C 
ATOM      5  C   UNL     1      33.904   2.513  35.691  0.00  0.00    +0.000 A 
ATOM      6  C   UNL     1      33.570   1.558  34.739  0.00  0.00    +0.000 A 
ATOM      7 CL   UNL     1      33.371  -0.130  35.142  0.00  0.00    +0.000 Cl
ATOM      8  C   UNL     1      33.392   1.976  33.441  0.00  0.00    +0.000 A 
ATOM      9  C   UNL     1      33.540   3.300  33.100  0.00  0.00    +0.000 A 
ATOM     10  C   UNL     1      33.871   4.207  34.078  0.00  0.00    +0.000 A 
ATOM     11  C   UNL     1      34.058   3.845  35.377  0.00  0.00    +0.000 A 
ENDROOT
BRANCH   1  13
ATOM     12  C   UNL     1      35.852   6.433  36.367  0.00  0.00    +0.000 C 
ATOM     13  C   UNL     1      34.680   5.956  36.697  0.00  0.00    +0.000 C 
BRANCH  12  15
ATOM     14  C   UNL     1      37.744   5.079  36.916  0.00  0.00    +0.000 C 
ATOM     15  C   UNL     1      36.803   5.463  35.775  0.00  0.00    +0.000 C 
ENDBRANCH  12  15
BRANCH  12  16
ATOM     16  C   UNL     1      36.284   7.803  36.540  0.00  0.00    +0.000 C 
ATOM     17  O   UNL     1      37.160   8.062  37.393  0.00  0.00    +0.000 OA
BRANCH  16  18
ATOM     18  N   UNL     1      35.737   8.832  35.768  0.00  0.00    +0.000 NA
ATOM     19  C   UNL     1      34.786   9.621  36.075  0.00  0.00    +0.000 C 
ATOM     20  N   UNL     1      34.369  10.613  35.148  0.00  0.00    +0.000 NA
ATOM     21  N   UNL     1      34.131   9.525  37.327  0.00  0.00    +0.000 NA
ENDBRANCH  16  18
ENDBRANCH  12  16
ENDBRANCH   1  13
TORSDOF 4
ENDMDL
