MODEL 1
REMARK VINA RESULT:      -6.3      0.000      0.000
REMARK  Name = 
REMARK  4 active torsions:
REMARK  status: ('A' for Active; 'I' for Inactive)
REMARK    1  A    between atoms: C_4  and  O_5
REMARK    2  A    between atoms: O_5  and  C_6
REMARK    3  A    between atoms: C_6  and  C_8
REMARK    4  A    between atoms: C_8  and  C_10
REMARK                            x       y       z     vdW  Elec       q    Type
REMARK                         _______ _______ _______ _____ _____    ______ ____
ROOT
ATOM      1  O   UNL     1      37.823   0.639  15.337  0.00  0.00    +0.000 OA
ENDROOT
BRANCH   1   5
ATOM      2  C   UNL     1      37.969  -2.959  14.359  0.00  0.00    +0.000 C 
ATOM      3  C   UNL     1      38.512  -3.036  15.932  0.00  0.00    +0.000 C 
ATOM      4  C   UNL     1      38.496  -1.397  16.317  0.00  0.00    +0.000 C 
ATOM      5  C   UNL     1      37.958  -0.787  14.889  0.00  0.00    +0.000 C 
ATOM      6  C   UNL     1      39.632  -0.526  14.445  0.00  0.00    +0.000 C 
ATOM      7  C   UNL     1      40.225  -1.860  14.421  0.00  0.00    +0.000 C 
ATOM      8  C   UNL     1      40.156  -2.392  12.973  0.00  0.00    +0.000 C 
ATOM      9  C   UNL     1      41.729  -1.489  14.572  0.00  0.00    +0.000 C 
ATOM     10  C   UNL     1      40.098  -2.872  15.432  0.00  0.00    +0.000 C 
ENDBRANCH   1   5
BRANCH   1  11
ATOM     11  C   UNL     1      36.679   1.179  14.916  0.00  0.00    +0.000 C 
ATOM     12  O   UNL     1      36.241   0.955  13.827  0.00  0.00    +0.000 OA
BRANCH  11  13
ATOM     13  C   UNL     1      36.015   2.172  16.004  0.00  0.00    +0.000 C 
ATOM     14  O   UNL     1      37.339   2.458  16.799  0.00  0.00    +0.000 OA
BRANCH  13  15
ATOM     15  C   UNL     1      35.704   0.925  17.046  0.00  0.00    +0.000 A 
ATOM     16  C   UNL     1      34.889  -0.076  16.679  0.00  0.00    +0.000 A 
ATOM     17  C   UNL     1      34.690  -1.059  17.619  0.00  0.00    +0.000 A 
ATOM     18  C   UNL     1      35.268  -1.072  18.861  0.00  0.00    +0.000 A 
ATOM     19  C   UNL     1      36.100   0.006  19.128  0.00  0.00    +0.000 A 
ATOM     20  C   UNL     1      36.336   1.027  18.224  0.00  0.00    +0.000 A 
ENDBRANCH  13  15
ENDBRANCH  11  13
ENDBRANCH   1  11
TORSDOF 4
ENDMDL
MODEL 2
REMARK VINA RESULT:      -6.1      1.642      3.036
REMARK  Name = 
REMARK  4 active torsions:
REMARK  status: ('A' for Active; 'I' for Inactive)
REMARK    1  A    between atoms: C_4  and  O_5
REMARK    2  A    between atoms: O_5  and  C_6
REMARK    3  A    between atoms: C_6  and  C_8
REMARK    4  A    between atoms: C_8  and  C_10
REMARK                            x       y       z     vdW  Elec       q    Type
REMARK                         _______ _______ _______ _____ _____    ______ ____
ROOT
ATOM      1  O   UNL     1      37.316  -0.239  17.155  0.00  0.00    +0.000 OA
ENDROOT
BRANCH   1   5
ATOM      2  C   UNL     1      37.522  -3.623  15.597  0.00  0.00    +0.000 C 
ATOM      3  C   UNL     1      38.630  -3.775  16.833  0.00  0.00    +0.000 C 
ATOM      4  C   UNL     1      38.559  -2.217  17.468  0.00  0.00    +0.000 C 
ATOM      5  C   UNL     1      37.445  -1.560  16.454  0.00  0.00    +0.000 C 
ATOM      6  C   UNL     1      38.777  -0.958  15.489  0.00  0.00    +0.000 C 
ATOM      7  C   UNL     1      39.476  -2.154  15.028  0.00  0.00    +0.000 C 
ATOM      8  C   UNL     1      38.925  -2.527  13.635  0.00  0.00    +0.000 C 
ATOM      9  C   UNL     1      40.864  -1.541  14.688  0.00  0.00    +0.000 C 
ATOM     10  C   UNL     1      39.871  -3.278  15.831  0.00  0.00    +0.000 C 
ENDBRANCH   1   5
BRANCH   1  11
ATOM     11  C   UNL     1      36.050   0.177  17.187  0.00  0.00    +0.000 C 
ATOM     12  O   UNL     1      35.135  -0.592  17.211  0.00  0.00    +0.000 OA
BRANCH  11  13
ATOM     13  C   UNL     1      35.916   1.787  17.143  0.00  0.00    +0.000 C 
ATOM     14  O   UNL     1      34.455   1.818  16.569  0.00  0.00    +0.000 OA
BRANCH  13  15
ATOM     15  C   UNL     1      36.486   1.855  15.591  0.00  0.00    +0.000 A 
ATOM     16  C   UNL     1      35.834   1.223  14.602  0.00  0.00    +0.000 A 
ATOM     17  C   UNL     1      36.392   1.336  13.351  0.00  0.00    +0.000 A 
ATOM     18  C   UNL     1      37.533   2.042  13.073  0.00  0.00    +0.000 A 
ATOM     19  C   UNL     1      38.116   2.664  14.168  0.00  0.00    +0.000 A 
ATOM     20  C   UNL     1      37.603   2.583  15.450  0.00  0.00    +0.000 A 
ENDBRANCH  13  15
ENDBRANCH  11  13
ENDBRANCH   1  11
TORSDOF 4
ENDMDL
MODEL 3
REMARK VINA RESULT:      -5.9      1.412      5.316
REMARK  Name = 
REMARK  4 active torsions:
REMARK  status: ('A' for Active; 'I' for Inactive)
REMARK    1  A    between atoms: C_4  and  O_5
REMARK    2  A    between atoms: O_5  and  C_6
REMARK    3  A    between atoms: C_6  and  C_8
REMARK    4  A    between atoms: C_8  and  C_10
REMARK                            x       y       z     vdW  Elec       q    Type
REMARK                         _______ _______ _______ _____ _____    ______ ____
ROOT
ATOM      1  O   UNL     1      37.182   0.161  14.650  0.00  0.00    +0.000 OA
ENDROOT
BRANCH   1   5
ATOM      2  C   UNL     1      37.954  -1.829  17.710  0.00  0.00    +0.000 C 
ATOM      3  C   UNL     1      37.369  -3.017  16.699  0.00  0.00    +0.000 C 
ATOM      4  C   UNL     1      36.971  -2.077  15.359  0.00  0.00    +0.000 C 
ATOM      5  C   UNL     1      37.415  -0.599  15.923  0.00  0.00    +0.000 C 
ATOM      6  C   UNL     1      35.752  -0.358  16.413  0.00  0.00    +0.000 C 
ATOM      7  C   UNL     1      35.499  -1.402  17.403  0.00  0.00    +0.000 C 
ATOM      8  C   UNL     1      35.765  -0.811  18.804  0.00  0.00    +0.000 C 
ATOM      9  C   UNL     1      33.945  -1.454  17.349  0.00  0.00    +0.000 C 
ATOM     10  C   UNL     1      35.816  -2.797  17.277  0.00  0.00    +0.000 C 
ENDBRANCH   1   5
BRANCH   1  11
ATOM     11  C   UNL     1      38.191   0.989  14.380  0.00  0.00    +0.000 C 
ATOM     12  O   UNL     1      38.579   1.790  15.178  0.00  0.00    +0.000 OA
BRANCH  11  13
ATOM     13  C   UNL     1      38.767   0.810  12.881  0.00  0.00    +0.000 C 
ATOM     14  O   UNL     1      37.630  -0.148  12.378  0.00  0.00    +0.000 OA
BRANCH  13  15
ATOM     15  C   UNL     1      39.649  -0.523  13.310  0.00  0.00    +0.000 A 
ATOM     16  C   UNL     1      40.602  -0.430  14.250  0.00  0.00    +0.000 A 
ATOM     17  C   UNL     1      41.282  -1.592  14.529  0.00  0.00    +0.000 A 
ATOM     18  C   UNL     1      41.035  -2.797  13.925  0.00  0.00    +0.000 A 
ATOM     19  C   UNL     1      40.020  -2.779  12.979  0.00  0.00    +0.000 A 
ATOM     20  C   UNL     1      39.305  -1.640  12.653  0.00  0.00    +0.000 A 
ENDBRANCH  13  15
ENDBRANCH  11  13
ENDBRANCH   1  11
TORSDOF 4
ENDMDL
MODEL 4
REMARK VINA RESULT:      -5.8      1.142      2.167
REMARK  Name = 
REMARK  4 active torsions:
REMARK  status: ('A' for Active; 'I' for Inactive)
REMARK    1  A    between atoms: C_4  and  O_5
REMARK    2  A    between atoms: O_5  and  C_6
REMARK    3  A    between atoms: C_6  and  C_8
REMARK    4  A    between atoms: C_8  and  C_10
REMARK                            x       y       z     vdW  Elec       q    Type
REMARK                         _______ _______ _______ _____ _____    ______ ____
ROOT
ATOM      1  O   UNL     1      37.799   0.578  15.513  0.00  0.00    +0.000 OA
ENDROOT
BRANCH   1   5
ATOM      2  C   UNL     1      40.038  -0.088  12.603  0.00  0.00    +0.000 C 
ATOM      3  C   UNL     1      38.845  -1.223  12.351  0.00  0.00    +0.000 C 
ATOM      4  C   UNL     1      37.893  -0.940  13.711  0.00  0.00    +0.000 C 
ATOM      5  C   UNL     1      38.763   0.271  14.404  0.00  0.00    +0.000 C 
ATOM      6  C   UNL     1      39.555  -0.947  15.382  0.00  0.00    +0.000 C 
ATOM      7  C   UNL     1      40.248  -1.803  14.424  0.00  0.00    +0.000 C 
ATOM      8  C   UNL     1      41.698  -1.292  14.281  0.00  0.00    +0.000 C 
ATOM      9  C   UNL     1      40.427  -3.085  15.287  0.00  0.00    +0.000 C 
ATOM     10  C   UNL     1      39.697  -2.366  13.223  0.00  0.00    +0.000 C 
ENDBRANCH   1   5
BRANCH   1  11
ATOM     11  C   UNL     1      37.115   1.696  15.272  0.00  0.00    +0.000 C 
ATOM     12  O   UNL     1      37.659   2.752  15.140  0.00  0.00    +0.000 OA
BRANCH  11  13
ATOM     13  C   UNL     1      35.517   1.458  15.233  0.00  0.00    +0.000 C 
ATOM     14  O   UNL     1      35.139   2.718  16.089  0.00  0.00    +0.000 OA
BRANCH  13  15
ATOM     15  C   UNL     1      35.551   0.568  16.627  0.00  0.00    +0.000 A 
ATOM     16  C   UNL     1      35.925   1.136  17.784  0.00  0.00    +0.000 A 
ATOM     17  C   UNL     1      35.926   0.310  18.883  0.00  0.00    +0.000 A 
ATOM     18  C   UNL     1      35.567  -1.012  18.857  0.00  0.00    +0.000 A 
ATOM     19  C   UNL     1      35.187  -1.490  17.611  0.00  0.00    +0.000 A 
ATOM     20  C   UNL     1      35.171  -0.708  16.470  0.00  0.00    +0.000 A 
ENDBRANCH  13  15
ENDBRANCH  11  13
ENDBRANCH   1  11
TORSDOF 4
ENDMDL
MODEL 5
REMARK VINA RESULT:      -5.8      1.612      3.118
REMARK  Name = 
REMARK  4 active torsions:
REMARK  status: ('A' for Active; 'I' for Inactive)
REMARK    1  A    between atoms: C_4  and  O_5
REMARK    2  A    between atoms: O_5  and  C_6
REMARK    3  A    between atoms: C_6  and  C_8
REMARK    4  A    between atoms: C_8  and  C_10
REMARK                            x       y       z     vdW  Elec       q    Type
REMARK                         _______ _______ _______ _____ _____    ______ ____
ROOT
ATOM      1  O   UNL     1      37.711   0.243  16.099  0.00  0.00    +0.000 OA
ENDROOT
BRANCH   1   5
ATOM      2  C   UNL     1      38.606  -2.568  13.814  0.00  0.00    +0.000 C 
ATOM      3  C   UNL     1      39.515  -2.950  15.158  0.00  0.00    +0.000 C 
ATOM      4  C   UNL     1      39.140  -1.633  16.137  0.00  0.00    +0.000 C 
ATOM      5  C   UNL     1      38.124  -0.825  15.128  0.00  0.00    +0.000 C 
ATOM      6  C   UNL     1      39.500   0.126  14.611  0.00  0.00    +0.000 C 
ATOM      7  C   UNL     1      40.415  -0.837  14.006  0.00  0.00    +0.000 C 
ATOM      8  C   UNL     1      40.146  -0.869  12.486  0.00  0.00    +0.000 C 
ATOM      9  C   UNL     1      41.746  -0.038  14.096  0.00  0.00    +0.000 C 
ATOM     10  C   UNL     1      40.823  -2.097  14.562  0.00  0.00    +0.000 C 
ENDBRANCH   1   5
BRANCH   1  11
ATOM     11  C   UNL     1      36.389   0.272  16.264  0.00  0.00    +0.000 C 
ATOM     12  O   UNL     1      35.657  -0.410  15.610  0.00  0.00    +0.000 OA
BRANCH  11  13
ATOM     13  C   UNL     1      35.919   1.339  17.383  0.00  0.00    +0.000 C 
ATOM     14  O   UNL     1      34.383   1.240  17.074  0.00  0.00    +0.000 OA
BRANCH  13  15
ATOM     15  C   UNL     1      36.014   2.598  16.314  0.00  0.00    +0.000 A 
ATOM     16  C   UNL     1      37.123   3.352  16.253  0.00  0.00    +0.000 A 
ATOM     17  C   UNL     1      37.100   4.377  15.337  0.00  0.00    +0.000 A 
ATOM     18  C   UNL     1      36.043   4.650  14.508  0.00  0.00    +0.000 A 
ATOM     19  C   UNL     1      34.956   3.800  14.650  0.00  0.00    +0.000 A 
ATOM     20  C   UNL     1      34.920   2.755  15.556  0.00  0.00    +0.000 A 
ENDBRANCH  13  15
ENDBRANCH  11  13
ENDBRANCH   1  11
TORSDOF 4
ENDMDL
MODEL 6
REMARK VINA RESULT:      -5.8      2.225      3.367
REMARK  Name = 
REMARK  4 active torsions:
REMARK  status: ('A' for Active; 'I' for Inactive)
REMARK    1  A    between atoms: C_4  and  O_5
REMARK    2  A    between atoms: O_5  and  C_6
REMARK    3  A    between atoms: C_6  and  C_8
REMARK    4  A    between atoms: C_8  and  C_10
REMARK                            x       y       z     vdW  Elec       q    Type
REMARK                         _______ _______ _______ _____ _____    ______ ____
ROOT
ATOM      1  O   UNL     1      38.475  -0.179  14.885  0.00  0.00    +0.000 OA
ENDROOT
BRANCH   1   5
ATOM      2  C   UNL     1      36.680  -3.446  15.057  0.00  0.00    +0.000 C 
ATOM      3  C   UNL     1      35.652  -2.473  15.936  0.00  0.00    +0.000 C 
ATOM      4  C   UNL     1      36.522  -1.032  15.894  0.00  0.00    +0.000 C 
ATOM      5  C   UNL     1      37.821  -1.524  15.015  0.00  0.00    +0.000 C 
ATOM      6  C   UNL     1      38.650  -1.820  16.529  0.00  0.00    +0.000 C 
ATOM      7  C   UNL     1      37.862  -2.855  17.191  0.00  0.00    +0.000 C 
ATOM      8  C   UNL     1      38.476  -4.227  16.842  0.00  0.00    +0.000 C 
ATOM      9  C   UNL     1      38.322  -2.644  18.662  0.00  0.00    +0.000 C 
ATOM     10  C   UNL     1      36.435  -2.869  17.359  0.00  0.00    +0.000 C 
ENDBRANCH   1   5
BRANCH   1  11
ATOM     11  C   UNL     1      38.262   0.355  13.682  0.00  0.00    +0.000 C 
ATOM     12  O   UNL     1      37.952  -0.313  12.742  0.00  0.00    +0.000 OA
BRANCH  11  13
ATOM     13  C   UNL     1      38.515   1.951  13.651  0.00  0.00    +0.000 C 
ATOM     14  O   UNL     1      39.331   2.018  14.990  0.00  0.00    +0.000 OA
BRANCH  13  15
ATOM     15  C   UNL     1      37.139   2.251  14.519  0.00  0.00    +0.000 A 
ATOM     16  C   UNL     1      35.933   2.062  13.962  0.00  0.00    +0.000 A 
ATOM     17  C   UNL     1      34.853   2.346  14.764  0.00  0.00    +0.000 A 
ATOM     18  C   UNL     1      34.945   2.786  16.058  0.00  0.00    +0.000 A 
ATOM     19  C   UNL     1      36.240   2.935  16.534  0.00  0.00    +0.000 A 
ATOM     20  C   UNL     1      37.364   2.669  15.773  0.00  0.00    +0.000 A 
ENDBRANCH  13  15
ENDBRANCH  11  13
ENDBRANCH   1  11
TORSDOF 4
ENDMDL
MODEL 7
REMARK VINA RESULT:      -5.8      4.103      6.952
REMARK  Name = 
REMARK  4 active torsions:
REMARK  status: ('A' for Active; 'I' for Inactive)
REMARK    1  A    between atoms: C_4  and  O_5
REMARK    2  A    between atoms: O_5  and  C_6
REMARK    3  A    between atoms: C_6  and  C_8
REMARK    4  A    between atoms: C_8  and  C_10
REMARK                            x       y       z     vdW  Elec       q    Type
REMARK                         _______ _______ _______ _____ _____    ______ ____
ROOT
ATOM      1  O   UNL     1      38.177   3.679  16.867  0.00  0.00    +0.000 OA
ENDROOT
BRANCH   1   5
ATOM      2  C   UNL     1      38.351   7.401  16.674  0.00  0.00    +0.000 C 
ATOM      3  C   UNL     1      39.865   6.984  16.117  0.00  0.00    +0.000 C 
ATOM      4  C   UNL     1      39.775   5.310  16.280  0.00  0.00    +0.000 C 
ATOM      5  C   UNL     1      38.253   5.178  16.886  0.00  0.00    +0.000 C 
ATOM      6  C   UNL     1      38.963   5.158  18.487  0.00  0.00    +0.000 C 
ATOM      7  C   UNL     1      39.624   6.452  18.619  0.00  0.00    +0.000 C 
ATOM      8  C   UNL     1      38.644   7.426  19.308  0.00  0.00    +0.000 C 
ATOM      9  C   UNL     1      40.632   6.126  19.759  0.00  0.00    +0.000 C 
ATOM     10  C   UNL     1      40.499   7.070  17.661  0.00  0.00    +0.000 C 
ENDBRANCH   1   5
BRANCH   1  11
ATOM     11  C   UNL     1      37.059   3.252  16.281  0.00  0.00    +0.000 C 
ATOM     12  O   UNL     1      36.108   2.903  16.916  0.00  0.00    +0.000 OA
BRANCH  11  13
ATOM     13  C   UNL     1      37.167   3.221  14.669  0.00  0.00    +0.000 C 
ATOM     14  O   UNL     1      35.949   2.259  14.438  0.00  0.00    +0.000 OA
BRANCH  13  15
ATOM     15  C   UNL     1      38.159   1.897  14.697  0.00  0.00    +0.000 A 
ATOM     16  C   UNL     1      39.462   2.021  14.401  0.00  0.00    +0.000 A 
ATOM     17  C   UNL     1      40.198   0.861  14.447  0.00  0.00    +0.000 A 
ATOM     18  C   UNL     1      39.688  -0.367  14.776  0.00  0.00    +0.000 A 
ATOM     19  C   UNL     1      38.333  -0.375  15.074  0.00  0.00    +0.000 A 
ATOM     20  C   UNL     1      37.540   0.758  15.042  0.00  0.00    +0.000 A 
ENDBRANCH  13  15
ENDBRANCH  11  13
ENDBRANCH   1  11
TORSDOF 4
ENDMDL
MODEL 8
REMARK VINA RESULT:      -5.8      1.956      3.112
REMARK  Name = 
REMARK  4 active torsions:
REMARK  status: ('A' for Active; 'I' for Inactive)
REMARK    1  A    between atoms: C_4  and  O_5
REMARK    2  A    between atoms: O_5  and  C_6
REMARK    3  A    between atoms: C_6  and  C_8
REMARK    4  A    between atoms: C_8  and  C_10
REMARK                            x       y       z     vdW  Elec       q    Type
REMARK                         _______ _______ _______ _____ _____    ______ ____
ROOT
ATOM      1  O   UNL     1      38.360  -0.623  15.810  0.00  0.00    +0.000 OA
ENDROOT
BRANCH   1   5
ATOM      2  C   UNL     1      38.981  -1.194  12.175  0.00  0.00    +0.000 C 
ATOM      3  C   UNL     1      39.214  -2.729  12.781  0.00  0.00    +0.000 C 
ATOM      4  C   UNL     1      38.993  -2.421  14.422  0.00  0.00    +0.000 C 
ATOM      5  C   UNL     1      38.694  -0.806  14.358  0.00  0.00    +0.000 C 
ATOM      6  C   UNL     1      40.396  -0.546  14.679  0.00  0.00    +0.000 C 
ATOM      7  C   UNL     1      41.087  -1.142  13.541  0.00  0.00    +0.000 C 
ATOM      8  C   UNL     1      41.342  -0.034  12.497  0.00  0.00    +0.000 C 
ATOM      9  C   UNL     1      42.498  -1.351  14.161  0.00  0.00    +0.000 C 
ATOM     10  C   UNL     1      40.849  -2.443  12.979  0.00  0.00    +0.000 C 
ENDBRANCH   1   5
BRANCH   1  11
ATOM     11  C   UNL     1      37.088  -0.263  15.979  0.00  0.00    +0.000 C 
ATOM     12  O   UNL     1      36.518   0.427  15.187  0.00  0.00    +0.000 OA
BRANCH  11  13
ATOM     13  C   UNL     1      36.457  -0.816  17.360  0.00  0.00    +0.000 C 
ATOM     14  O   UNL     1      37.812  -1.320  17.973  0.00  0.00    +0.000 OA
BRANCH  13  15
ATOM     15  C   UNL     1      36.227  -2.326  16.725  0.00  0.00    +0.000 A 
ATOM     16  C   UNL     1      36.977  -3.358  17.143  0.00  0.00    +0.000 A 
ATOM     17  C   UNL     1      36.712  -4.569  16.549  0.00  0.00    +0.000 A 
ATOM     18  C   UNL     1      35.749  -4.768  15.594  0.00  0.00    +0.000 A 
ATOM     19  C   UNL     1      35.028  -3.635  15.247  0.00  0.00    +0.000 A 
ATOM     20  C   UNL     1      35.252  -2.390  15.807  0.00  0.00    +0.000 A 
ENDBRANCH  13  15
ENDBRANCH  11  13
ENDBRANCH   1  11
TORSDOF 4
ENDMDL
MODEL 9
REMARK VINA RESULT:      -5.8      2.180      3.750
REMARK  Name = 
REMARK  4 active torsions:
REMARK  status: ('A' for Active; 'I' for Inactive)
REMARK    1  A    between atoms: C_4  and  O_5
REMARK    2  A    between atoms: O_5  and  C_6
REMARK    3  A    between atoms: C_6  and  C_8
REMARK    4  A    between atoms: C_8  and  C_10
REMARK                            x       y       z     vdW  Elec       q    Type
REMARK                         _______ _______ _______ _____ _____    ______ ____
ROOT
ATOM      1  O   UNL     1      38.483  -2.467  15.493  0.00  0.00    +0.000 OA
ENDROOT
BRANCH   1   5
ATOM      2  C   UNL     1      42.063  -1.989  14.554  0.00  0.00    +0.000 C 
ATOM      3  C   UNL     1      41.449  -0.471  14.246  0.00  0.00    +0.000 C 
ATOM      4  C   UNL     1      39.829  -0.740  14.616  0.00  0.00    +0.000 C 
ATOM      5  C   UNL     1      39.906  -2.328  15.036  0.00  0.00    +0.000 C 
ATOM      6  C   UNL     1      39.454  -2.718  13.390  0.00  0.00    +0.000 C 
ATOM      7  C   UNL     1      40.539  -2.191  12.569  0.00  0.00    +0.000 C 
ATOM      8  C   UNL     1      41.555  -3.328  12.324  0.00  0.00    +0.000 C 
ATOM      9  C   UNL     1      39.813  -2.086  11.197  0.00  0.00    +0.000 C 
ATOM     10  C   UNL     1      41.125  -0.882  12.660  0.00  0.00    +0.000 C 
ENDBRANCH   1   5
BRANCH   1  11
ATOM     11  C   UNL     1      38.392  -3.211  16.594  0.00  0.00    +0.000 C 
ATOM     12  O   UNL     1      39.349  -3.467  17.263  0.00  0.00    +0.000 OA
BRANCH  11  13
ATOM     13  C   UNL     1      36.891  -3.743  16.871  0.00  0.00    +0.000 C 
ATOM     14  O   UNL     1      36.309  -3.335  15.471  0.00  0.00    +0.000 OA
BRANCH  13  15
ATOM     15  C   UNL     1      36.410  -2.272  17.457  0.00  0.00    +0.000 A 
ATOM     16  C   UNL     1      36.909  -1.809  18.613  0.00  0.00    +0.000 A 
ATOM     17  C   UNL     1      36.440  -0.581  19.017  0.00  0.00    +0.000 A 
ATOM     18  C   UNL     1      35.531   0.168  18.318  0.00  0.00    +0.000 A 
ATOM     19  C   UNL     1      35.092  -0.403  17.132  0.00  0.00    +0.000 A 
ATOM     20  C   UNL     1      35.524  -1.637  16.677  0.00  0.00    +0.000 A 
ENDBRANCH  13  15
ENDBRANCH  11  13
ENDBRANCH   1  11
TORSDOF 4
ENDMDL
MODEL 10
REMARK VINA RESULT:      -5.7      1.935      3.716
REMARK  Name = 
REMARK  4 active torsions:
REMARK  status: ('A' for Active; 'I' for Inactive)
REMARK    1  A    between atoms: C_4  and  O_5
REMARK    2  A    between atoms: O_5  and  C_6
REMARK    3  A    between atoms: C_6  and  C_8
REMARK    4  A    between atoms: C_8  and  C_10
REMARK                            x       y       z     vdW  Elec       q    Type
REMARK                         _______ _______ _______ _____ _____    ______ ____
ROOT
ATOM      1  O   UNL     1      36.139  -0.075  15.900  0.00  0.00    +0.000 OA
ENDROOT
BRANCH   1   5
ATOM      2  C   UNL     1      39.044   1.769  14.456  0.00  0.00    +0.000 C 
ATOM      3  C   UNL     1      38.002   1.750  13.155  0.00  0.00    +0.000 C 
ATOM      4  C   UNL     1      36.738   0.858  13.819  0.00  0.00    +0.000 C 
ATOM      5  C   UNL     1      37.356   0.583  15.317  0.00  0.00    +0.000 C 
ATOM      6  C   UNL     1      37.945  -0.954  14.720  0.00  0.00    +0.000 C 
ATOM      7  C   UNL     1      38.889  -0.607  13.662  0.00  0.00    +0.000 C 
ATOM      8  C   UNL     1      40.304  -0.555  14.276  0.00  0.00    +0.000 C 
ATOM      9  C   UNL     1      38.914  -1.948  12.873  0.00  0.00    +0.000 C 
ATOM     10  C   UNL     1      38.671   0.327  12.592  0.00  0.00    +0.000 C 
ENDBRANCH   1   5
BRANCH   1  11
ATOM     11  C   UNL     1      36.011   0.195  17.199  0.00  0.00    +0.000 C 
ATOM     12  O   UNL     1      36.485   1.177  17.689  0.00  0.00    +0.000 OA
BRANCH  11  13
ATOM     13  C   UNL     1      35.208  -0.955  18.003  0.00  0.00    +0.000 C 
ATOM     14  O   UNL     1      35.804  -0.618  19.416  0.00  0.00    +0.000 OA
BRANCH  13  15
ATOM     15  C   UNL     1      36.431  -2.048  17.789  0.00  0.00    +0.000 A 
ATOM     16  C   UNL     1      37.618  -1.861  18.387  0.00  0.00    +0.000 A 
ATOM     17  C   UNL     1      38.570  -2.823  18.141  0.00  0.00    +0.000 A 
ATOM     18  C   UNL     1      38.369  -3.925  17.353  0.00  0.00    +0.000 A 
ATOM     19  C   UNL     1      37.103  -4.022  16.795  0.00  0.00    +0.000 A 
ATOM     20  C   UNL     1      36.106  -3.085  17.003  0.00  0.00    +0.000 A 
ENDBRANCH  13  15
ENDBRANCH  11  13
ENDBRANCH   1  11
TORSDOF 4
ENDMDL
