MODEL 1
REMARK VINA RESULT:      -8.5      0.000      0.000
REMARK  Name = 
REMARK  2 active torsions:
REMARK  status: ('A' for Active; 'I' for Inactive)
REMARK    1  A    between atoms: O_2  and  C_3
REMARK    2  A    between atoms: C_5  and  C_6
REMARK                            x       y       z     vdW  Elec       q    Type
REMARK                         _______ _______ _______ _____ _____    ______ ____
ROOT
ATOM      1  C   UNL     1      17.302   9.966  34.191  0.00  0.00    +0.000 C 
ATOM      2  C   UNL     1      16.472  10.815  33.661  0.00  0.00    +0.000 C 
ATOM      3  C   UNL     1      15.752  11.879  34.387  0.00  0.00    +0.000 C 
ATOM      4  C   UNL     1      14.967  12.579  33.326  0.00  0.00    +0.000 A 
ATOM      5  C   UNL     1      14.115  13.665  33.414  0.00  0.00    +0.000 A 
ATOM      6  C   UNL     1      13.496  14.119  32.272  0.00  0.00    +0.000 A 
ATOM      7  C   UNL     1      13.684  13.538  31.030  0.00  0.00    +0.000 A 
ATOM      8  C   UNL     1      14.535  12.464  30.973  0.00  0.00    +0.000 A 
ATOM      9  C   UNL     1      15.164  11.993  32.102  0.00  0.00    +0.000 A 
ATOM     10  C   UNL     1      16.104  10.867  32.232  0.00  0.00    +0.000 C 
ATOM     11  O   UNL     1      16.504  10.120  31.333  0.00  0.00    +0.000 OA
ENDROOT
BRANCH   1  14
ATOM     12  C   UNL     1      19.373   9.780  37.249  0.00  0.00    +0.000 A 
ATOM     13  C   UNL     1      18.943   9.787  35.959  0.00  0.00    +0.000 A 
ATOM     14  C   UNL     1      17.617   9.975  35.605  0.00  0.00    +0.000 A 
ATOM     15  C   UNL     1      16.730  10.159  36.618  0.00  0.00    +0.000 A 
ATOM     16  C   UNL     1      17.087  10.165  37.954  0.00  0.00    +0.000 A 
ATOM     17 CL   UNL     1      15.889  10.405  39.226  0.00  0.00    +0.000 Cl
ATOM     18  C   UNL     1      18.418   9.973  38.249  0.00  0.00    +0.000 A 
ATOM     19  O   UNL     1      18.778   9.979  39.582  0.00  0.00    +0.000 OA
BRANCH  12  21
ATOM     20  C   UNL     1      21.714   9.977  36.689  0.00  0.00    +0.000 C 
ATOM     21  O   UNL     1      20.701   9.594  37.594  0.00  0.00    +0.000 OA
ENDBRANCH  12  21
ENDBRANCH   1  14
TORSDOF 2
ENDMDL
MODEL 2
REMARK VINA RESULT:      -8.4      1.460      2.502
REMARK  Name = 
REMARK  2 active torsions:
REMARK  status: ('A' for Active; 'I' for Inactive)
REMARK    1  A    between atoms: O_2  and  C_3
REMARK    2  A    between atoms: C_5  and  C_6
REMARK                            x       y       z     vdW  Elec       q    Type
REMARK                         _______ _______ _______ _____ _____    ______ ____
ROOT
ATOM      1  C   UNL     1      17.322   9.995  34.156  0.00  0.00    +0.000 C 
ATOM      2  C   UNL     1      16.487  10.826  33.605  0.00  0.00    +0.000 C 
ATOM      3  C   UNL     1      15.750  11.895  34.308  0.00  0.00    +0.000 C 
ATOM      4  C   UNL     1      14.966  12.568  33.229  0.00  0.00    +0.000 A 
ATOM      5  C   UNL     1      14.101  13.646  33.291  0.00  0.00    +0.000 A 
ATOM      6  C   UNL     1      13.486  14.074  32.138  0.00  0.00    +0.000 A 
ATOM      7  C   UNL     1      13.690  13.474  30.907  0.00  0.00    +0.000 A 
ATOM      8  C   UNL     1      14.553  12.409  30.875  0.00  0.00    +0.000 A 
ATOM      9  C   UNL     1      15.178  11.964  32.017  0.00  0.00    +0.000 A 
ATOM     10  C   UNL     1      16.130  10.850  32.172  0.00  0.00    +0.000 C 
ATOM     11  O   UNL     1      16.545  10.093  31.289  0.00  0.00    +0.000 OA
ENDROOT
BRANCH   1  14
ATOM     12  C   UNL     1      16.735  10.387  37.786  0.00  0.00    +0.000 A 
ATOM     13  C   UNL     1      16.585  10.328  36.435  0.00  0.00    +0.000 A 
ATOM     14  C   UNL     1      17.626  10.031  35.572  0.00  0.00    +0.000 A 
ATOM     15  C   UNL     1      18.841   9.792  36.131  0.00  0.00    +0.000 A 
ATOM     16  C   UNL     1      19.076   9.833  37.494  0.00  0.00    +0.000 A 
ATOM     17 CL   UNL     1      20.678   9.518  38.162  0.00  0.00    +0.000 Cl
ATOM     18  C   UNL     1      18.006  10.134  38.306  0.00  0.00    +0.000 A 
ATOM     19  O   UNL     1      18.237  10.176  39.666  0.00  0.00    +0.000 OA
BRANCH  12  21
ATOM     20  C   UNL     1      14.494  11.224  38.120  0.00  0.00    +0.000 C 
ATOM     21  O   UNL     1      15.688  10.682  38.642  0.00  0.00    +0.000 OA
ENDBRANCH  12  21
ENDBRANCH   1  14
TORSDOF 2
ENDMDL
MODEL 3
REMARK VINA RESULT:      -8.2      1.940      2.774
REMARK  Name = 
REMARK  2 active torsions:
REMARK  status: ('A' for Active; 'I' for Inactive)
REMARK    1  A    between atoms: O_2  and  C_3
REMARK    2  A    between atoms: C_5  and  C_6
REMARK                            x       y       z     vdW  Elec       q    Type
REMARK                         _______ _______ _______ _____ _____    ______ ____
ROOT
ATOM      1  C   UNL     1      14.736  12.668  36.544  0.00  0.00    +0.000 C 
ATOM      2  C   UNL     1      14.741  12.617  35.244  0.00  0.00    +0.000 C 
ATOM      3  C   UNL     1      15.491  11.644  34.426  0.00  0.00    +0.000 C 
ATOM      4  C   UNL     1      15.132  11.996  33.020  0.00  0.00    +0.000 A 
ATOM      5  C   UNL     1      15.525  11.420  31.825  0.00  0.00    +0.000 A 
ATOM      6  C   UNL     1      15.053  11.947  30.645  0.00  0.00    +0.000 A 
ATOM      7  C   UNL     1      14.199  13.034  30.592  0.00  0.00    +0.000 A 
ATOM      8  C   UNL     1      13.825  13.584  31.792  0.00  0.00    +0.000 A 
ATOM      9  C   UNL     1      14.285  13.074  32.983  0.00  0.00    +0.000 A 
ATOM     10  C   UNL     1      13.991  13.526  34.354  0.00  0.00    +0.000 C 
ATOM     11  O   UNL     1      13.267  14.468  34.692  0.00  0.00    +0.000 OA
ENDROOT
BRANCH   1  14
ATOM     12  C   UNL     1      17.633  10.658  37.662  0.00  0.00    +0.000 A 
ATOM     13  C   UNL     1      16.809  11.502  36.983  0.00  0.00    +0.000 A 
ATOM     14  C   UNL     1      15.497  11.740  37.355  0.00  0.00    +0.000 A 
ATOM     15  C   UNL     1      15.041  11.086  38.456  0.00  0.00    +0.000 A 
ATOM     16  C   UNL     1      15.814  10.213  39.201  0.00  0.00    +0.000 A 
ATOM     17 CL   UNL     1      15.166   9.390  40.619  0.00  0.00    +0.000 Cl
ATOM     18  C   UNL     1      17.112  10.013  38.786  0.00  0.00    +0.000 A 
ATOM     19  O   UNL     1      17.886   9.143  39.526  0.00  0.00    +0.000 OA
BRANCH  12  21
ATOM     20  C   UNL     1      19.211   9.632  36.150  0.00  0.00    +0.000 C 
ATOM     21  O   UNL     1      18.944  10.428  37.284  0.00  0.00    +0.000 OA
ENDBRANCH  12  21
ENDBRANCH   1  14
TORSDOF 2
ENDMDL
MODEL 4
REMARK VINA RESULT:      -8.0      2.823      7.017
REMARK  Name = 
REMARK  2 active torsions:
REMARK  status: ('A' for Active; 'I' for Inactive)
REMARK    1  A    between atoms: O_2  and  C_3
REMARK    2  A    between atoms: C_5  and  C_6
REMARK                            x       y       z     vdW  Elec       q    Type
REMARK                         _______ _______ _______ _____ _____    ______ ____
ROOT
ATOM      1  C   UNL     1      16.071  11.018  35.901  0.00  0.00    +0.000 C 
ATOM      2  C   UNL     1      17.077  11.423  36.619  0.00  0.00    +0.000 C 
ATOM      3  C   UNL     1      17.641  12.788  36.614  0.00  0.00    +0.000 C 
ATOM      4  C   UNL     1      18.742  12.732  37.621  0.00  0.00    +0.000 A 
ATOM      5  C   UNL     1      19.613  13.717  38.050  0.00  0.00    +0.000 A 
ATOM      6  C   UNL     1      20.561  13.402  38.996  0.00  0.00    +0.000 A 
ATOM      7  C   UNL     1      20.687  12.138  39.546  0.00  0.00    +0.000 A 
ATOM      8  C   UNL     1      19.809  11.182  39.104  0.00  0.00    +0.000 A 
ATOM      9  C   UNL     1      18.855  11.475  38.157  0.00  0.00    +0.000 A 
ATOM     10  C   UNL     1      17.835  10.588  37.572  0.00  0.00    +0.000 C 
ATOM     11  O   UNL     1      17.649   9.393  37.825  0.00  0.00    +0.000 OA
ENDROOT
BRANCH   1  14
ATOM     12  C   UNL     1      14.990  12.452  32.669  0.00  0.00    +0.000 A 
ATOM     13  C   UNL     1      15.588  11.701  33.632  0.00  0.00    +0.000 A 
ATOM     14  C   UNL     1      15.372  11.897  34.986  0.00  0.00    +0.000 A 
ATOM     15  C   UNL     1      14.516  12.892  35.336  0.00  0.00    +0.000 A 
ATOM     16  C   UNL     1      13.868  13.700  34.418  0.00  0.00    +0.000 A 
ATOM     17 CL   UNL     1      12.770  14.981  34.932  0.00  0.00    +0.000 Cl
ATOM     18  C   UNL     1      14.119  13.462  33.085  0.00  0.00    +0.000 A 
ATOM     19  O   UNL     1      13.475  14.266  32.167  0.00  0.00    +0.000 OA
BRANCH  12  21
ATOM     20  C   UNL     1      16.311  12.869  30.690  0.00  0.00    +0.000 C 
ATOM     21  O   UNL     1      15.209  12.248  31.318  0.00  0.00    +0.000 OA
ENDBRANCH  12  21
ENDBRANCH   1  14
TORSDOF 2
ENDMDL
MODEL 5
REMARK VINA RESULT:      -7.9      2.304      3.392
REMARK  Name = 
REMARK  2 active torsions:
REMARK  status: ('A' for Active; 'I' for Inactive)
REMARK    1  A    between atoms: O_2  and  C_3
REMARK    2  A    between atoms: C_5  and  C_6
REMARK                            x       y       z     vdW  Elec       q    Type
REMARK                         _______ _______ _______ _____ _____    ______ ____
ROOT
ATOM      1  C   UNL     1      16.138  12.114  36.880  0.00  0.00    +0.000 C 
ATOM      2  C   UNL     1      15.968  11.934  35.603  0.00  0.00    +0.000 C 
ATOM      3  C   UNL     1      16.805  11.080  34.738  0.00  0.00    +0.000 C 
ATOM      4  C   UNL     1      16.174  11.198  33.389  0.00  0.00    +0.000 A 
ATOM      5  C   UNL     1      16.518  10.609  32.186  0.00  0.00    +0.000 A 
ATOM      6  C   UNL     1      15.770  10.893  31.067  0.00  0.00    +0.000 A 
ATOM      7  C   UNL     1      14.680  11.746  31.085  0.00  0.00    +0.000 A 
ATOM      8  C   UNL     1      14.361  12.315  32.291  0.00  0.00    +0.000 A 
ATOM      9  C   UNL     1      15.097  12.046  33.422  0.00  0.00    +0.000 A 
ATOM     10  C   UNL     1      14.902  12.554  34.791  0.00  0.00    +0.000 C 
ATOM     11  O   UNL     1      14.029  13.336  35.181  0.00  0.00    +0.000 OA
ENDROOT
BRANCH   1  14
ATOM     12  C   UNL     1      17.781   9.676  39.124  0.00  0.00    +0.000 A 
ATOM     13  C   UNL     1      16.872  10.373  38.391  0.00  0.00    +0.000 A 
ATOM     14  C   UNL     1      17.208  11.470  37.615  0.00  0.00    +0.000 A 
ATOM     15  C   UNL     1      18.515  11.840  37.605  0.00  0.00    +0.000 A 
ATOM     16  C   UNL     1      19.500  11.184  38.322  0.00  0.00    +0.000 A 
ATOM     17 CL   UNL     1      21.182  11.714  38.273  0.00  0.00    +0.000 Cl
ATOM     18  C   UNL     1      19.111  10.101  39.077  0.00  0.00    +0.000 A 
ATOM     19  O   UNL     1      20.091   9.444  39.794  0.00  0.00    +0.000 OA
BRANCH  12  21
ATOM     20  C   UNL     1      16.562   8.746  40.990  0.00  0.00    +0.000 C 
ATOM     21  O   UNL     1      17.437   8.580  39.895  0.00  0.00    +0.000 OA
ENDBRANCH  12  21
ENDBRANCH   1  14
TORSDOF 2
ENDMDL
MODEL 6
REMARK VINA RESULT:      -7.8      2.121      2.941
REMARK  Name = 
REMARK  2 active torsions:
REMARK  status: ('A' for Active; 'I' for Inactive)
REMARK    1  A    between atoms: O_2  and  C_3
REMARK    2  A    between atoms: C_5  and  C_6
REMARK                            x       y       z     vdW  Elec       q    Type
REMARK                         _______ _______ _______ _____ _____    ______ ____
ROOT
ATOM      1  C   UNL     1      16.663  11.646  37.092  0.00  0.00    +0.000 C 
ATOM      2  C   UNL     1      16.408  11.544  35.821  0.00  0.00    +0.000 C 
ATOM      3  C   UNL     1      17.167  10.724  34.856  0.00  0.00    +0.000 C 
ATOM      4  C   UNL     1      16.455  10.932  33.560  0.00  0.00    +0.000 A 
ATOM      5  C   UNL     1      16.708  10.407  32.306  0.00  0.00    +0.000 A 
ATOM      6  C   UNL     1      15.898  10.770  31.255  0.00  0.00    +0.000 A 
ATOM      7  C   UNL     1      14.833  11.644  31.391  0.00  0.00    +0.000 A 
ATOM      8  C   UNL     1      14.604  12.148  32.646  0.00  0.00    +0.000 A 
ATOM      9  C   UNL     1      15.403  11.799  33.710  0.00  0.00    +0.000 A 
ATOM     10  C   UNL     1      15.308  12.232  35.115  0.00  0.00    +0.000 C 
ATOM     11  O   UNL     1      14.481  13.008  35.604  0.00  0.00    +0.000 OA
ENDROOT
BRANCH   1  14
ATOM     12  C   UNL     1      20.095  11.033  38.327  0.00  0.00    +0.000 A 
ATOM     13  C   UNL     1      18.986  11.583  37.762  0.00  0.00    +0.000 A 
ATOM     14  C   UNL     1      17.761  10.939  37.718  0.00  0.00    +0.000 A 
ATOM     15  C   UNL     1      17.696   9.701  38.275  0.00  0.00    +0.000 A 
ATOM     16  C   UNL     1      18.777   9.073  38.868  0.00  0.00    +0.000 A 
ATOM     17 CL   UNL     1      18.633   7.462  39.571  0.00  0.00    +0.000 Cl
ATOM     18  C   UNL     1      19.971   9.759  38.884  0.00  0.00    +0.000 A 
ATOM     19  O   UNL     1      21.051   9.135  39.474  0.00  0.00    +0.000 OA
BRANCH  12  21
ATOM     20  C   UNL     1      21.349  13.084  38.557  0.00  0.00    +0.000 C 
ATOM     21  O   UNL     1      21.314  11.686  38.368  0.00  0.00    +0.000 OA
ENDBRANCH  12  21
ENDBRANCH   1  14
TORSDOF 2
ENDMDL
MODEL 7
REMARK VINA RESULT:      -7.5      3.272      6.914
REMARK  Name = 
REMARK  2 active torsions:
REMARK  status: ('A' for Active; 'I' for Inactive)
REMARK    1  A    between atoms: O_2  and  C_3
REMARK    2  A    between atoms: C_5  and  C_6
REMARK                            x       y       z     vdW  Elec       q    Type
REMARK                         _______ _______ _______ _____ _____    ______ ____
ROOT
ATOM      1  C   UNL     1      18.194  10.580  37.398  0.00  0.00    +0.000 C 
ATOM      2  C   UNL     1      19.115  11.434  37.738  0.00  0.00    +0.000 C 
ATOM      3  C   UNL     1      18.897  12.869  38.008  0.00  0.00    +0.000 C 
ATOM      4  C   UNL     1      20.250  13.379  38.382  0.00  0.00    +0.000 A 
ATOM      5  C   UNL     1      20.657  14.649  38.749  0.00  0.00    +0.000 A 
ATOM      6  C   UNL     1      21.985  14.865  39.039  0.00  0.00    +0.000 A 
ATOM      7  C   UNL     1      22.942  13.867  38.980  0.00  0.00    +0.000 A 
ATOM      8  C   UNL     1      22.510  12.618  38.615  0.00  0.00    +0.000 A 
ATOM      9  C   UNL     1      21.187  12.380  38.320  0.00  0.00    +0.000 A 
ATOM     10  C   UNL     1      20.545  11.116  37.918  0.00  0.00    +0.000 C 
ATOM     11  O   UNL     1      21.089  10.018  37.764  0.00  0.00    +0.000 OA
ENDROOT
BRANCH   1  14
ATOM     12  C   UNL     1      15.178  11.977  35.776  0.00  0.00    +0.000 A 
ATOM     13  C   UNL     1      16.448  11.575  36.052  0.00  0.00    +0.000 A 
ATOM     14  C   UNL     1      16.806  10.964  37.242  0.00  0.00    +0.000 A 
ATOM     15  C   UNL     1      15.819  10.770  38.156  0.00  0.00    +0.000 A 
ATOM     16  C   UNL     1      14.504  11.151  37.952  0.00  0.00    +0.000 A 
ATOM     17 CL   UNL     1      13.266  10.878  39.178  0.00  0.00    +0.000 Cl
ATOM     18  C   UNL     1      14.204  11.754  36.751  0.00  0.00    +0.000 A 
ATOM     19  O   UNL     1      12.894  12.135  36.545  0.00  0.00    +0.000 OA
BRANCH  12  21
ATOM     20  C   UNL     1      15.124  11.940  33.362  0.00  0.00    +0.000 C 
ATOM     21  O   UNL     1      14.830  12.585  34.583  0.00  0.00    +0.000 OA
ENDBRANCH  12  21
ENDBRANCH   1  14
TORSDOF 2
ENDMDL
MODEL 8
REMARK VINA RESULT:      -7.3     19.386     21.241
REMARK  Name = 
REMARK  2 active torsions:
REMARK  status: ('A' for Active; 'I' for Inactive)
REMARK    1  A    between atoms: O_2  and  C_3
REMARK    2  A    between atoms: C_5  and  C_6
REMARK                            x       y       z     vdW  Elec       q    Type
REMARK                         _______ _______ _______ _____ _____    ______ ____
ROOT
ATOM      1  C   UNL     1      25.305   4.081  18.874  0.00  0.00    +0.000 C 
ATOM      2  C   UNL     1      25.941   4.833  18.024  0.00  0.00    +0.000 C 
ATOM      3  C   UNL     1      25.617   4.972  16.591  0.00  0.00    +0.000 C 
ATOM      4  C   UNL     1      26.615   5.962  16.085  0.00  0.00    +0.000 A 
ATOM      5  C   UNL     1      26.789   6.489  14.819  0.00  0.00    +0.000 A 
ATOM      6  C   UNL     1      27.806   7.391  14.607  0.00  0.00    +0.000 A 
ATOM      7  C   UNL     1      28.672   7.800  15.606  0.00  0.00    +0.000 A 
ATOM      8  C   UNL     1      28.475   7.262  16.852  0.00  0.00    +0.000 A 
ATOM      9  C   UNL     1      27.465   6.358  17.085  0.00  0.00    +0.000 A 
ATOM     10  C   UNL     1      27.103   5.685  18.345  0.00  0.00    +0.000 C 
ATOM     11  O   UNL     1      27.655   5.808  19.443  0.00  0.00    +0.000 OA
ENDROOT
BRANCH   1  14
ATOM     12  C   UNL     1      23.449   1.100  17.713  0.00  0.00    +0.000 A 
ATOM     13  C   UNL     1      24.426   1.967  18.093  0.00  0.00    +0.000 A 
ATOM     14  C   UNL     1      24.169   3.270  18.487  0.00  0.00    +0.000 A 
ATOM     15  C   UNL     1      22.870   3.670  18.483  0.00  0.00    +0.000 A 
ATOM     16  C   UNL     1      21.820   2.850  18.110  0.00  0.00    +0.000 A 
ATOM     17 CL   UNL     1      20.153   3.426  18.121  0.00  0.00    +0.000 Cl
ATOM     18  C   UNL     1      22.132   1.565  17.727  0.00  0.00    +0.000 A 
ATOM     19  O   UNL     1      21.087   0.744  17.354  0.00  0.00    +0.000 OA
BRANCH  12  21
ATOM     20  C   UNL     1      25.052  -0.646  17.251  0.00  0.00    +0.000 C 
ATOM     21  O   UNL     1      23.715  -0.201  17.323  0.00  0.00    +0.000 OA
ENDBRANCH  12  21
ENDBRANCH   1  14
TORSDOF 2
ENDMDL
MODEL 9
REMARK VINA RESULT:      -7.2     18.888     21.113
REMARK  Name = 
REMARK  2 active torsions:
REMARK  status: ('A' for Active; 'I' for Inactive)
REMARK    1  A    between atoms: O_2  and  C_3
REMARK    2  A    between atoms: C_5  and  C_6
REMARK                            x       y       z     vdW  Elec       q    Type
REMARK                         _______ _______ _______ _____ _____    ______ ____
ROOT
ATOM      1  C   UNL     1      25.151   3.926  18.780  0.00  0.00    +0.000 C 
ATOM      2  C   UNL     1      25.761   4.693  17.925  0.00  0.00    +0.000 C 
ATOM      3  C   UNL     1      25.416   4.830  16.496  0.00  0.00    +0.000 C 
ATOM      4  C   UNL     1      26.387   5.840  15.981  0.00  0.00    +0.000 A 
ATOM      5  C   UNL     1      26.534   6.375  14.714  0.00  0.00    +0.000 A 
ATOM      6  C   UNL     1      27.531   7.298  14.492  0.00  0.00    +0.000 A 
ATOM      7  C   UNL     1      28.401   7.721  15.481  0.00  0.00    +0.000 A 
ATOM      8  C   UNL     1      28.231   7.176  16.728  0.00  0.00    +0.000 A 
ATOM      9  C   UNL     1      27.242   6.251  16.971  0.00  0.00    +0.000 A 
ATOM     10  C   UNL     1      26.910   5.567  18.233  0.00  0.00    +0.000 C 
ATOM     11  O   UNL     1      27.473   5.698  19.325  0.00  0.00    +0.000 OA
ENDROOT
BRANCH   1  14
ATOM     12  C   UNL     1      21.631   2.999  18.129  0.00  0.00    +0.000 A 
ATOM     13  C   UNL     1      22.768   3.668  18.460  0.00  0.00    +0.000 A 
ATOM     14  C   UNL     1      24.026   3.094  18.405  0.00  0.00    +0.000 A 
ATOM     15  C   UNL     1      24.095   1.799  17.997  0.00  0.00    +0.000 A 
ATOM     16  C   UNL     1      22.987   1.050  17.643  0.00  0.00    +0.000 A 
ATOM     17 CL   UNL     1      23.139  -0.629  17.124  0.00  0.00    +0.000 Cl
ATOM     18  C   UNL     1      21.760   1.671  17.716  0.00  0.00    +0.000 A 
ATOM     19  O   UNL     1      20.653   0.926  17.365  0.00  0.00    +0.000 OA
BRANCH  12  21
ATOM     20  C   UNL     1      20.052   4.433  19.263  0.00  0.00    +0.000 C 
ATOM     21  O   UNL     1      20.377   3.582  18.184  0.00  0.00    +0.000 OA
ENDBRANCH  12  21
ENDBRANCH   1  14
TORSDOF 2
ENDMDL
MODEL 10
REMARK VINA RESULT:      -7.1     18.401     20.649
REMARK  Name = 
REMARK  2 active torsions:
REMARK  status: ('A' for Active; 'I' for Inactive)
REMARK    1  A    between atoms: O_2  and  C_3
REMARK    2  A    between atoms: C_5  and  C_6
REMARK                            x       y       z     vdW  Elec       q    Type
REMARK                         _______ _______ _______ _____ _____    ______ ____
ROOT
ATOM      1  C   UNL     1      33.963   0.381  33.235  0.00  0.00    +0.000 C 
ATOM      2  C   UNL     1      33.885   1.524  33.851  0.00  0.00    +0.000 C 
ATOM      3  C   UNL     1      33.927   1.716  35.314  0.00  0.00    +0.000 C 
ATOM      4  C   UNL     1      33.832   3.195  35.492  0.00  0.00    +0.000 A 
ATOM      5  C   UNL     1      33.835   3.960  36.644  0.00  0.00    +0.000 A 
ATOM      6  C   UNL     1      33.723   5.327  36.537  0.00  0.00    +0.000 A 
ATOM      7  C   UNL     1      33.606   5.981  35.323  0.00  0.00    +0.000 A 
ATOM      8  C   UNL     1      33.607   5.199  34.197  0.00  0.00    +0.000 A 
ATOM      9  C   UNL     1      33.717   3.830  34.282  0.00  0.00    +0.000 A 
ATOM     10  C   UNL     1      33.741   2.838  33.193  0.00  0.00    +0.000 C 
ATOM     11  O   UNL     1      33.660   3.058  31.980  0.00  0.00    +0.000 OA
ENDROOT
BRANCH   1  14
ATOM     12  C   UNL     1      33.608  -3.233  33.931  0.00  0.00    +0.000 A 
ATOM     13  C   UNL     1      33.541  -1.996  33.369  0.00  0.00    +0.000 A 
ATOM     14  C   UNL     1      34.105  -0.872  33.948  0.00  0.00    +0.000 A 
ATOM     15  C   UNL     1      34.748  -1.045  35.132  0.00  0.00    +0.000 A 
ATOM     16  C   UNL     1      34.860  -2.269  35.769  0.00  0.00    +0.000 A 
ATOM     17 CL   UNL     1      35.705  -2.432  37.308  0.00  0.00    +0.000 Cl
ATOM     18  C   UNL     1      34.281  -3.354  35.149  0.00  0.00    +0.000 A 
ATOM     19  O   UNL     1      34.391  -4.576  35.781  0.00  0.00    +0.000 OA
BRANCH  12  21
ATOM     20  C   UNL     1      33.553  -4.824  32.114  0.00  0.00    +0.000 C 
ATOM     21  O   UNL     1      33.044  -4.353  33.344  0.00  0.00    +0.000 OA
ENDBRANCH  12  21
ENDBRANCH   1  14
TORSDOF 2
ENDMDL
