MODEL 1
REMARK VINA RESULT:      -6.9      0.000      0.000
REMARK  Name = 
REMARK  2 active torsions:
REMARK  status: ('A' for Active; 'I' for Inactive)
REMARK    1  A    between atoms: C_6  and  O_7
REMARK    2  A    between atoms: O_7  and  C_8
REMARK                            x       y       z     vdW  Elec       q    Type
REMARK                         _______ _______ _______ _____ _____    ______ ____
ROOT
ATOM      1  C   UNL     1      27.617  23.397  24.180  0.00  0.00    +0.000 A 
ATOM      2  N   UNL     1      27.479  23.860  22.903  0.00  0.00    +0.000 NA
ATOM      3  C   UNL     1      28.481  24.131  22.080  0.00  0.00    +0.000 A 
ATOM      4  N   UNL     1      29.728  23.930  22.549  0.00  0.00    +0.000 NA
ATOM      5  C   UNL     1      29.915  23.466  23.817  0.00  0.00    +0.000 A 
ATOM      6  S   UNL     1      31.317  23.082  24.711  0.00  0.00    +0.000 S 
ATOM      7  C   UNL     1      30.592  22.565  26.155  0.00  0.00    +0.000 A 
ATOM      8  C   UNL     1      29.250  22.711  25.896  0.00  0.00    +0.000 A 
ATOM      9  C   UNL     1      28.891  23.179  24.686  0.00  0.00    +0.000 A 
ATOM     10  C   UNL     1      28.430  22.245  27.089  0.00  0.00    +0.000 C 
ATOM     11  C   UNL     1      28.921  23.113  28.251  0.00  0.00    +0.000 C 
ATOM     12  C   UNL     1      30.346  22.769  28.615  0.00  0.00    +0.000 C 
ATOM     13  C   UNL     1      31.061  22.044  27.496  0.00  0.00    +0.000 C 
ENDROOT
BRANCH   1  14
ATOM     14  O   UNL     1      26.417  23.179  24.873  0.00  0.00    +0.000 OA
BRANCH  14  20
ATOM     15  N   UNL     1      23.695  27.189  24.877  0.00  0.00    +0.000 NA
ATOM     16  C   UNL     1      24.325  26.132  25.592  0.00  0.00    +0.000 A 
ATOM     17  C   UNL     1      24.223  26.040  26.969  0.00  0.00    +0.000 A 
ATOM     18  C   UNL     1      24.865  24.982  27.601  0.00  0.00    +0.000 A 
ATOM     19  C   UNL     1      25.591  24.033  26.919  0.00  0.00    +0.000 A 
ATOM     20  C   UNL     1      25.691  24.132  25.523  0.00  0.00    +0.000 A 
ATOM     21  C   UNL     1      25.062  25.163  24.933  0.00  0.00    +0.000 A 
ENDBRANCH  14  20
ENDBRANCH   1  14
TORSDOF 2
ENDMDL
MODEL 2
REMARK VINA RESULT:      -6.8      2.196      3.170
REMARK  Name = 
REMARK  2 active torsions:
REMARK  status: ('A' for Active; 'I' for Inactive)
REMARK    1  A    between atoms: C_6  and  O_7
REMARK    2  A    between atoms: O_7  and  C_8
REMARK                            x       y       z     vdW  Elec       q    Type
REMARK                         _______ _______ _______ _____ _____    ______ ____
ROOT
ATOM      1  C   UNL     1      27.157  22.713  25.575  0.00  0.00    +0.000 A 
ATOM      2  N   UNL     1      25.899  22.840  25.059  0.00  0.00    +0.000 NA
ATOM      3  C   UNL     1      25.613  23.347  23.870  0.00  0.00    +0.000 A 
ATOM      4  N   UNL     1      26.650  23.768  23.119  0.00  0.00    +0.000 NA
ATOM      5  C   UNL     1      27.924  23.659  23.592  0.00  0.00    +0.000 A 
ATOM      6  S   UNL     1      29.442  24.056  22.921  0.00  0.00    +0.000 S 
ATOM      7  C   UNL     1      30.447  23.555  24.192  0.00  0.00    +0.000 A 
ATOM      8  C   UNL     1      29.553  23.084  25.125  0.00  0.00    +0.000 A 
ATOM      9  C   UNL     1      28.243  23.136  24.821  0.00  0.00    +0.000 A 
ATOM     10  C   UNL     1      30.293  22.544  26.339  0.00  0.00    +0.000 C 
ATOM     11  C   UNL     1      31.123  23.731  26.838  0.00  0.00    +0.000 C 
ATOM     12  C   UNL     1      32.213  24.078  25.854  0.00  0.00    +0.000 C 
ATOM     13  C   UNL     1      31.933  23.525  24.473  0.00  0.00    +0.000 C 
ENDROOT
BRANCH   1  14
ATOM     14  O   UNL     1      27.227  22.147  26.858  0.00  0.00    +0.000 OA
BRANCH  14  20
ATOM     15  N   UNL     1      24.904  25.553  29.407  0.00  0.00    +0.000 NA
ATOM     16  C   UNL     1      25.835  24.478  29.356  0.00  0.00    +0.000 A 
ATOM     17  C   UNL     1      26.505  24.060  30.493  0.00  0.00    +0.000 A 
ATOM     18  C   UNL     1      27.401  23.004  30.370  0.00  0.00    +0.000 A 
ATOM     19  C   UNL     1      27.646  22.367  29.175  0.00  0.00    +0.000 A 
ATOM     20  C   UNL     1      26.964  22.796  28.027  0.00  0.00    +0.000 A 
ATOM     21  C   UNL     1      26.102  23.818  28.169  0.00  0.00    +0.000 A 
ENDBRANCH  14  20
ENDBRANCH   1  14
TORSDOF 2
ENDMDL
MODEL 3
REMARK VINA RESULT:      -6.6      2.870      6.208
REMARK  Name = 
REMARK  2 active torsions:
REMARK  status: ('A' for Active; 'I' for Inactive)
REMARK    1  A    between atoms: C_6  and  O_7
REMARK    2  A    between atoms: O_7  and  C_8
REMARK                            x       y       z     vdW  Elec       q    Type
REMARK                         _______ _______ _______ _____ _____    ______ ____
ROOT
ATOM      1  C   UNL     1      26.975  22.953  27.595  0.00  0.00    +0.000 A 
ATOM      2  N   UNL     1      27.500  22.399  28.728  0.00  0.00    +0.000 NA
ATOM      3  C   UNL     1      27.236  22.800  29.962  0.00  0.00    +0.000 A 
ATOM      4  N   UNL     1      26.384  23.835  30.100  0.00  0.00    +0.000 NA
ATOM      5  C   UNL     1      25.833  24.418  28.998  0.00  0.00    +0.000 A 
ATOM      6  S   UNL     1      24.724  25.699  28.802  0.00  0.00    +0.000 S 
ATOM      7  C   UNL     1      24.602  25.706  27.110  0.00  0.00    +0.000 A 
ATOM      8  C   UNL     1      25.449  24.689  26.736  0.00  0.00    +0.000 A 
ATOM      9  C   UNL     1      26.092  24.018  27.709  0.00  0.00    +0.000 A 
ATOM     10  C   UNL     1      25.434  24.520  25.225  0.00  0.00    +0.000 C 
ATOM     11  C   UNL     1      25.855  25.890  24.684  0.00  0.00    +0.000 C 
ATOM     12  C   UNL     1      24.793  26.927  24.959  0.00  0.00    +0.000 C 
ATOM     13  C   UNL     1      23.851  26.500  26.064  0.00  0.00    +0.000 C 
ENDROOT
BRANCH   1  14
ATOM     14  O   UNL     1      27.394  22.368  26.390  0.00  0.00    +0.000 OA
BRANCH  14  20
ATOM     15  N   UNL     1      29.759  24.023  22.496  0.00  0.00    +0.000 NA
ATOM     16  C   UNL     1      29.787  23.475  23.810  0.00  0.00    +0.000 A 
ATOM     17  C   UNL     1      30.987  23.220  24.451  0.00  0.00    +0.000 A 
ATOM     18  C   UNL     1      30.939  22.684  25.733  0.00  0.00    +0.000 A 
ATOM     19  C   UNL     1      29.759  22.399  26.381  0.00  0.00    +0.000 A 
ATOM     20  C   UNL     1      28.547  22.660  25.725  0.00  0.00    +0.000 A 
ATOM     21  C   UNL     1      28.617  23.179  24.487  0.00  0.00    +0.000 A 
ENDBRANCH  14  20
ENDBRANCH   1  14
TORSDOF 2
ENDMDL
MODEL 4
REMARK VINA RESULT:      -6.6     19.653     20.830
REMARK  Name = 
REMARK  2 active torsions:
REMARK  status: ('A' for Active; 'I' for Inactive)
REMARK    1  A    between atoms: C_6  and  O_7
REMARK    2  A    between atoms: O_7  and  C_8
REMARK                            x       y       z     vdW  Elec       q    Type
REMARK                         _______ _______ _______ _____ _____    ______ ____
ROOT
ATOM      1  C   UNL     1      18.556  10.084  38.923  0.00  0.00    +0.000 A 
ATOM      2  N   UNL     1      17.444   9.722  39.630  0.00  0.00    +0.000 NA
ATOM      3  C   UNL     1      17.425   8.838  40.615  0.00  0.00    +0.000 A 
ATOM      4  N   UNL     1      18.596   8.256  40.938  0.00  0.00    +0.000 NA
ATOM      5  C   UNL     1      19.733   8.587  40.262  0.00  0.00    +0.000 A 
ATOM      6  S   UNL     1      21.355   8.082  40.414  0.00  0.00    +0.000 S 
ATOM      7  C   UNL     1      22.057   9.029  39.194  0.00  0.00    +0.000 A 
ATOM      8  C   UNL     1      20.984   9.726  38.690  0.00  0.00    +0.000 A 
ATOM      9  C   UNL     1      19.775   9.501  39.237  0.00  0.00    +0.000 A 
ATOM     10  C   UNL     1      21.442  10.675  37.593  0.00  0.00    +0.000 C 
ATOM     11  C   UNL     1      22.115   9.768  36.560  0.00  0.00    +0.000 C 
ATOM     12  C   UNL     1      23.393   9.182  37.109  0.00  0.00    +0.000 C 
ATOM     13  C   UNL     1      23.442   9.236  38.621  0.00  0.00    +0.000 C 
ENDROOT
BRANCH   1  14
ATOM     14  O   UNL     1      18.344  11.041  37.919  0.00  0.00    +0.000 OA
BRANCH  14  20
ATOM     15  N   UNL     1      15.170  12.096  34.411  0.00  0.00    +0.000 NA
ATOM     16  C   UNL     1      16.222  11.277  34.910  0.00  0.00    +0.000 A 
ATOM     17  C   UNL     1      16.708  10.211  34.174  0.00  0.00    +0.000 A 
ATOM     18  C   UNL     1      17.736   9.453  34.724  0.00  0.00    +0.000 A 
ATOM     19  C   UNL     1      18.282   9.719  35.958  0.00  0.00    +0.000 A 
ATOM     20  C   UNL     1      17.785  10.801  36.699  0.00  0.00    +0.000 A 
ATOM     21  C   UNL     1      16.792  11.520  36.149  0.00  0.00    +0.000 A 
ENDBRANCH  14  20
ENDBRANCH   1  14
TORSDOF 2
ENDMDL
MODEL 5
REMARK VINA RESULT:      -6.5      2.540      4.843
REMARK  Name = 
REMARK  2 active torsions:
REMARK  status: ('A' for Active; 'I' for Inactive)
REMARK    1  A    between atoms: C_6  and  O_7
REMARK    2  A    between atoms: O_7  and  C_8
REMARK                            x       y       z     vdW  Elec       q    Type
REMARK                         _______ _______ _______ _____ _____    ______ ____
ROOT
ATOM      1  C   UNL     1      28.884  22.716  26.601  0.00  0.00    +0.000 A 
ATOM      2  N   UNL     1      30.163  22.311  26.346  0.00  0.00    +0.000 NA
ATOM      3  C   UNL     1      31.137  22.262  27.241  0.00  0.00    +0.000 A 
ATOM      4  N   UNL     1      30.833  22.643  28.497  0.00  0.00    +0.000 NA
ATOM      5  C   UNL     1      29.568  23.052  28.800  0.00  0.00    +0.000 A 
ATOM      6  S   UNL     1      28.838  23.568  30.253  0.00  0.00    +0.000 S 
ATOM      7  C   UNL     1      27.261  23.842  29.690  0.00  0.00    +0.000 A 
ATOM      8  C   UNL     1      27.349  23.519  28.356  0.00  0.00    +0.000 A 
ATOM      9  C   UNL     1      28.543  23.110  27.887  0.00  0.00    +0.000 A 
ATOM     10  C   UNL     1      25.992  23.668  27.687  0.00  0.00    +0.000 C 
ATOM     11  C   UNL     1      25.604  25.129  27.933  0.00  0.00    +0.000 C 
ATOM     12  C   UNL     1      25.332  25.374  29.398  0.00  0.00    +0.000 C 
ATOM     13  C   UNL     1      25.948  24.309  30.279  0.00  0.00    +0.000 C 
ENDROOT
BRANCH   1  14
ATOM     14  O   UNL     1      28.014  22.689  25.500  0.00  0.00    +0.000 OA
BRANCH  14  20
ATOM     15  N   UNL     1      29.592  24.214  21.178  0.00  0.00    +0.000 NA
ATOM     16  C   UNL     1      28.756  24.398  22.315  0.00  0.00    +0.000 A 
ATOM     17  C   UNL     1      27.912  25.490  22.412  0.00  0.00    +0.000 A 
ATOM     18  C   UNL     1      27.124  25.606  23.551  0.00  0.00    +0.000 A 
ATOM     19  C   UNL     1      27.150  24.687  24.575  0.00  0.00    +0.000 A 
ATOM     20  C   UNL     1      28.008  23.582  24.470  0.00  0.00    +0.000 A 
ATOM     21  C   UNL     1      28.760  23.490  23.361  0.00  0.00    +0.000 A 
ENDBRANCH  14  20
ENDBRANCH   1  14
TORSDOF 2
ENDMDL
MODEL 6
REMARK VINA RESULT:      -6.4      3.101      6.372
REMARK  Name = 
REMARK  2 active torsions:
REMARK  status: ('A' for Active; 'I' for Inactive)
REMARK    1  A    between atoms: C_6  and  O_7
REMARK    2  A    between atoms: O_7  and  C_8
REMARK                            x       y       z     vdW  Elec       q    Type
REMARK                         _______ _______ _______ _____ _____    ______ ____
ROOT
ATOM      1  C   UNL     1      28.318  22.706  26.774  0.00  0.00    +0.000 A 
ATOM      2  N   UNL     1      27.788  22.703  28.033  0.00  0.00    +0.000 NA
ATOM      3  C   UNL     1      26.608  23.206  28.362  0.00  0.00    +0.000 A 
ATOM      4  N   UNL     1      25.882  23.760  27.371  0.00  0.00    +0.000 NA
ATOM      5  C   UNL     1      26.369  23.784  26.098  0.00  0.00    +0.000 A 
ATOM      6  S   UNL     1      25.729  24.367  24.628  0.00  0.00    +0.000 S 
ATOM      7  C   UNL     1      27.001  23.949  23.586  0.00  0.00    +0.000 A 
ATOM      8  C   UNL     1      27.910  23.356  24.431  0.00  0.00    +0.000 A 
ATOM      9  C   UNL     1      27.590  23.268  25.735  0.00  0.00    +0.000 A 
ATOM     10  C   UNL     1      29.119  22.872  23.647  0.00  0.00    +0.000 C 
ATOM     11  C   UNL     1      29.660  24.131  22.963  0.00  0.00    +0.000 C 
ATOM     12  C   UNL     1      28.699  24.625  21.908  0.00  0.00    +0.000 C 
ATOM     13  C   UNL     1      27.301  24.080  22.109  0.00  0.00    +0.000 C 
ENDROOT
BRANCH   1  14
ATOM     14  O   UNL     1      29.587  22.118  26.654  0.00  0.00    +0.000 OA
BRANCH  14  20
ATOM     15  N   UNL     1      33.186  22.011  29.900  0.00  0.00    +0.000 NA
ATOM     16  C   UNL     1      32.570  22.616  28.768  0.00  0.00    +0.000 A 
ATOM     17  C   UNL     1      33.126  23.729  28.161  0.00  0.00    +0.000 A 
ATOM     18  C   UNL     1      32.470  24.267  27.060  0.00  0.00    +0.000 A 
ATOM     19  C   UNL     1      31.302  23.743  26.556  0.00  0.00    +0.000 A 
ATOM     20  C   UNL     1      30.744  22.615  27.175  0.00  0.00    +0.000 A 
ATOM     21  C   UNL     1      31.395  22.111  28.237  0.00  0.00    +0.000 A 
ENDBRANCH  14  20
ENDBRANCH   1  14
TORSDOF 2
ENDMDL
MODEL 7
REMARK VINA RESULT:      -6.4      2.550      5.154
REMARK  Name = 
REMARK  2 active torsions:
REMARK  status: ('A' for Active; 'I' for Inactive)
REMARK    1  A    between atoms: C_6  and  O_7
REMARK    2  A    between atoms: O_7  and  C_8
REMARK                            x       y       z     vdW  Elec       q    Type
REMARK                         _______ _______ _______ _____ _____    ______ ____
ROOT
ATOM      1  C   UNL     1      29.212  23.646  23.815  0.00  0.00    +0.000 A 
ATOM      2  N   UNL     1      30.527  23.293  23.705  0.00  0.00    +0.000 NA
ATOM      3  C   UNL     1      31.276  22.838  24.698  0.00  0.00    +0.000 A 
ATOM      4  N   UNL     1      30.687  22.718  25.904  0.00  0.00    +0.000 NA
ATOM      5  C   UNL     1      29.376  23.056  26.060  0.00  0.00    +0.000 A 
ATOM      6  S   UNL     1      28.324  23.011  27.403  0.00  0.00    +0.000 S 
ATOM      7  C   UNL     1      26.907  23.581  26.665  0.00  0.00    +0.000 A 
ATOM      8  C   UNL     1      27.301  23.798  25.366  0.00  0.00    +0.000 A 
ATOM      9  C   UNL     1      28.581  23.530  25.045  0.00  0.00    +0.000 A 
ATOM     10  C   UNL     1      26.125  24.281  24.532  0.00  0.00    +0.000 C 
ATOM     11  C   UNL     1      25.650  25.552  25.242  0.00  0.00    +0.000 C 
ATOM     12  C   UNL     1      25.050  25.225  26.589  0.00  0.00    +0.000 C 
ATOM     13  C   UNL     1      25.483  23.864  27.091  0.00  0.00    +0.000 C 
ENDROOT
BRANCH   1  14
ATOM     14  O   UNL     1      28.613  24.104  22.632  0.00  0.00    +0.000 OA
BRANCH  14  20
ATOM     15  N   UNL     1      30.203  26.712  18.868  0.00  0.00    +0.000 NA
ATOM     16  C   UNL     1      29.646  26.658  20.177  0.00  0.00    +0.000 A 
ATOM     17  C   UNL     1      29.347  27.815  20.875  0.00  0.00    +0.000 A 
ATOM     18  C   UNL     1      28.806  27.686  22.149  0.00  0.00    +0.000 A 
ATOM     19  C   UNL     1      28.560  26.467  22.737  0.00  0.00    +0.000 A 
ATOM     20  C   UNL     1      28.866  25.298  22.024  0.00  0.00    +0.000 A 
ATOM     21  C   UNL     1      29.388  25.446  20.795  0.00  0.00    +0.000 A 
ENDBRANCH  14  20
ENDBRANCH   1  14
TORSDOF 2
ENDMDL
MODEL 8
REMARK VINA RESULT:      -6.3     21.510     23.077
REMARK  Name = 
REMARK  2 active torsions:
REMARK  status: ('A' for Active; 'I' for Inactive)
REMARK    1  A    between atoms: C_6  and  O_7
REMARK    2  A    between atoms: O_7  and  C_8
REMARK                            x       y       z     vdW  Elec       q    Type
REMARK                         _______ _______ _______ _____ _____    ______ ____
ROOT
ATOM      1  C   UNL     1      16.477  10.224  38.539  0.00  0.00    +0.000 A 
ATOM      2  N   UNL     1      17.790  10.023  38.223  0.00  0.00    +0.000 NA
ATOM      3  C   UNL     1      18.394  10.503  37.147  0.00  0.00    +0.000 A 
ATOM      4  N   UNL     1      17.648  11.244  36.305  0.00  0.00    +0.000 NA
ATOM      5  C   UNL     1      16.332  11.473  36.580  0.00  0.00    +0.000 A 
ATOM      6  S   UNL     1      15.122  12.363  35.772  0.00  0.00    +0.000 S 
ATOM      7  C   UNL     1      13.830  12.111  36.843  0.00  0.00    +0.000 A 
ATOM      8  C   UNL     1      14.389  11.322  37.821  0.00  0.00    +0.000 A 
ATOM      9  C   UNL     1      15.686  10.985  37.691  0.00  0.00    +0.000 A 
ATOM     10  C   UNL     1      13.367  11.026  38.907  0.00  0.00    +0.000 C 
ATOM     11  C   UNL     1      12.210  10.348  38.168  0.00  0.00    +0.000 C 
ATOM     12  C   UNL     1      11.513  11.323  37.249  0.00  0.00    +0.000 C 
ATOM     13  C   UNL     1      12.377  12.524  36.930  0.00  0.00    +0.000 C 
ENDROOT
BRANCH   1  14
ATOM     14  O   UNL     1      16.046   9.620  39.731  0.00  0.00    +0.000 OA
BRANCH  14  20
ATOM     15  N   UNL     1      16.090   9.951  44.566  0.00  0.00    +0.000 NA
ATOM     16  C   UNL     1      16.796   9.816  43.338  0.00  0.00    +0.000 A 
ATOM     17  C   UNL     1      18.176   9.717  43.315  0.00  0.00    +0.000 A 
ATOM     18  C   UNL     1      18.800   9.587  42.079  0.00  0.00    +0.000 A 
ATOM     19  C   UNL     1      18.106   9.554  40.891  0.00  0.00    +0.000 A 
ATOM     20  C   UNL     1      16.707   9.655  40.922  0.00  0.00    +0.000 A 
ATOM     21  C   UNL     1      16.126   9.779  42.127  0.00  0.00    +0.000 A 
ENDBRANCH  14  20
ENDBRANCH   1  14
TORSDOF 2
ENDMDL
MODEL 9
REMARK VINA RESULT:      -6.3     20.396     21.527
REMARK  Name = 
REMARK  2 active torsions:
REMARK  status: ('A' for Active; 'I' for Inactive)
REMARK    1  A    between atoms: C_6  and  O_7
REMARK    2  A    between atoms: O_7  and  C_8
REMARK                            x       y       z     vdW  Elec       q    Type
REMARK                         _______ _______ _______ _____ _____    ______ ____
ROOT
ATOM      1  C   UNL     1      19.395   9.741  38.143  0.00  0.00    +0.000 A 
ATOM      2  N   UNL     1      20.440  10.211  37.402  0.00  0.00    +0.000 NA
ATOM      3  C   UNL     1      21.536  10.765  37.899  0.00  0.00    +0.000 A 
ATOM      4  N   UNL     1      21.615  10.867  39.240  0.00  0.00    +0.000 NA
ATOM      5  C   UNL     1      20.596  10.409  40.021  0.00  0.00    +0.000 A 
ATOM      6  S   UNL     1      20.373  10.354  41.712  0.00  0.00    +0.000 S 
ATOM      7  C   UNL     1      18.852   9.604  41.767  0.00  0.00    +0.000 A 
ATOM      8  C   UNL     1      18.553   9.415  40.438  0.00  0.00    +0.000 A 
ATOM      9  C   UNL     1      19.452   9.832  39.527  0.00  0.00    +0.000 A 
ATOM     10  C   UNL     1      17.217   8.703  40.295  0.00  0.00    +0.000 C 
ATOM     11  C   UNL     1      16.220   9.613  41.018  0.00  0.00    +0.000 C 
ATOM     12  C   UNL     1      16.483   9.627  42.504  0.00  0.00    +0.000 C 
ATOM     13  C   UNL     1      17.883   9.159  42.840  0.00  0.00    +0.000 C 
ENDROOT
BRANCH   1  14
ATOM     14  O   UNL     1      18.333   9.193  37.406  0.00  0.00    +0.000 OA
BRANCH  14  20
ATOM     15  N   UNL     1      14.714  12.336  36.690  0.00  0.00    +0.000 NA
ATOM     16  C   UNL     1      15.693  11.449  36.161  0.00  0.00    +0.000 A 
ATOM     17  C   UNL     1      15.824  11.263  34.796  0.00  0.00    +0.000 A 
ATOM     18  C   UNL     1      16.801  10.381  34.349  0.00  0.00    +0.000 A 
ATOM     19  C   UNL     1      17.634   9.693  35.203  0.00  0.00    +0.000 A 
ATOM     20  C   UNL     1      17.496   9.888  36.585  0.00  0.00    +0.000 A 
ATOM     21  C   UNL     1      16.545  10.744  36.994  0.00  0.00    +0.000 A 
ENDBRANCH  14  20
ENDBRANCH   1  14
TORSDOF 2
ENDMDL
MODEL 10
REMARK VINA RESULT:      -6.3      2.765      5.452
REMARK  Name = 
REMARK  2 active torsions:
REMARK  status: ('A' for Active; 'I' for Inactive)
REMARK    1  A    between atoms: C_6  and  O_7
REMARK    2  A    between atoms: O_7  and  C_8
REMARK                            x       y       z     vdW  Elec       q    Type
REMARK                         _______ _______ _______ _____ _____    ______ ____
ROOT
ATOM      1  C   UNL     1      27.724  23.088  25.379  0.00  0.00    +0.000 A 
ATOM      2  N   UNL     1      27.449  23.251  24.051  0.00  0.00    +0.000 NA
ATOM      3  C   UNL     1      26.381  23.866  23.566  0.00  0.00    +0.000 A 
ATOM      4  N   UNL     1      25.504  24.365  24.458  0.00  0.00    +0.000 NA
ATOM      5  C   UNL     1      25.738  24.228  25.795  0.00  0.00    +0.000 A 
ATOM      6  S   UNL     1      24.878  24.744  27.175  0.00  0.00    +0.000 S 
ATOM      7  C   UNL     1      25.917  24.161  28.384  0.00  0.00    +0.000 A 
ATOM      8  C   UNL     1      26.925  23.566  27.662  0.00  0.00    +0.000 A 
ATOM      9  C   UNL     1      26.838  23.595  26.319  0.00  0.00    +0.000 A 
ATOM     10  C   UNL     1      27.988  23.014  28.599  0.00  0.00    +0.000 C 
ATOM     11  C   UNL     1      27.230  22.037  29.503  0.00  0.00    +0.000 C 
ATOM     12  C   UNL     1      26.273  22.773  30.409  0.00  0.00    +0.000 C 
ATOM     13  C   UNL     1      25.955  24.161  29.896  0.00  0.00    +0.000 C 
ENDROOT
BRANCH   1  14
ATOM     14  O   UNL     1      28.914  22.403  25.666  0.00  0.00    +0.000 OA
BRANCH  14  20
ATOM     15  N   UNL     1      32.676  24.393  27.987  0.00  0.00    +0.000 NA
ATOM     16  C   UNL     1      32.075  23.949  26.775  0.00  0.00    +0.000 A 
ATOM     17  C   UNL     1      32.739  24.061  25.566  0.00  0.00    +0.000 A 
ATOM     18  C   UNL     1      32.092  23.608  24.422  0.00  0.00    +0.000 A 
ATOM     19  C   UNL     1      30.830  23.059  24.445  0.00  0.00    +0.000 A 
ATOM     20  C   UNL     1      30.163  22.949  25.674  0.00  0.00    +0.000 A 
ATOM     21  C   UNL     1      30.807  23.393  26.766  0.00  0.00    +0.000 A 
ENDBRANCH  14  20
ENDBRANCH   1  14
TORSDOF 2
ENDMDL
