MODEL 1
REMARK VINA RESULT:      -7.1      0.000      0.000
REMARK  Name = 
REMARK  2 active torsions:
REMARK  status: ('A' for Active; 'I' for Inactive)
REMARK    1  A    between atoms: C_6  and  C_7
REMARK    2  A    between atoms: N_9  and  C_10
REMARK                            x       y       z     vdW  Elec       q    Type
REMARK                         _______ _______ _______ _____ _____    ______ ____
ROOT
ATOM      1  C   UNL     1      30.782  22.129  12.011  0.00  0.00    +0.000 C 
ATOM      2  O   UNL     1      31.592  21.748  12.891  0.00  0.00    +0.000 OA
ATOM      3  N   UNL     1      31.217  22.079  10.659  0.00  0.00    +0.000 NA
ENDROOT
BRANCH   3   4
ATOM      4  C   UNL     1      32.549  21.606  10.299  0.00  0.00    +0.000 C 
ATOM      5  C   UNL     1      32.926  20.355  11.060  0.00  0.00    +0.000 C 
ATOM      6  C   UNL     1      34.329  19.983  10.656  0.00  0.00    +0.000 C 
ATOM      7  C   UNL     1      34.436  19.705   9.165  0.00  0.00    +0.000 C 
ATOM      8  C   UNL     1      34.000  20.949   8.416  0.00  0.00    +0.000 C 
ATOM      9  C   UNL     1      34.984  22.064   8.765  0.00  0.00    +0.000 C 
ATOM     10  C   UNL     1      34.939  22.325  10.264  0.00  0.00    +0.000 C 
ATOM     11  C   UNL     1      35.280  21.100  11.063  0.00  0.00    +0.000 C 
ATOM     12  C   UNL     1      33.527  22.728  10.605  0.00  0.00    +0.000 C 
ATOM     13  C   UNL     1      32.588  21.343   8.817  0.00  0.00    +0.000 C 
ENDBRANCH   3   4
BRANCH   1  19
ATOM     14  N   UNL     1      26.065  22.424  10.914  0.00  0.00    +0.000 NA
ATOM     15  C   UNL     1      27.089  22.769  11.831  0.00  0.00    +0.000 A 
ATOM     16  C   UNL     1      26.873  23.505  12.977  0.00  0.00    +0.000 A 
ATOM     17  C   UNL     1      27.940  23.787  13.804  0.00  0.00    +0.000 A 
ATOM     18  C   UNL     1      29.213  23.340  13.490  0.00  0.00    +0.000 A 
ATOM     19  C   UNL     1      29.447  22.606  12.352  0.00  0.00    +0.000 A 
ATOM     20  C   UNL     1      28.371  22.331  11.535  0.00  0.00    +0.000 A 
ENDBRANCH   1  19
TORSDOF 2
ENDMDL
MODEL 2
REMARK VINA RESULT:      -7.0     28.888     30.815
REMARK  Name = 
REMARK  2 active torsions:
REMARK  status: ('A' for Active; 'I' for Inactive)
REMARK    1  A    between atoms: C_6  and  C_7
REMARK    2  A    between atoms: N_9  and  C_10
REMARK                            x       y       z     vdW  Elec       q    Type
REMARK                         _______ _______ _______ _____ _____    ______ ____
ROOT
ATOM      1  C   UNL     1      15.945  11.641  34.833  0.00  0.00    +0.000 C 
ATOM      2  O   UNL     1      16.119  10.430  34.555  0.00  0.00    +0.000 OA
ATOM      3  N   UNL     1      16.612  12.148  35.980  0.00  0.00    +0.000 NA
ENDROOT
BRANCH   3   4
ATOM      4  C   UNL     1      17.466  11.303  36.808  0.00  0.00    +0.000 C 
ATOM      5  C   UNL     1      16.670  10.550  37.850  0.00  0.00    +0.000 C 
ATOM      6  C   UNL     1      17.645   9.755  38.678  0.00  0.00    +0.000 C 
ATOM      7  C   UNL     1      18.423   8.756  37.836  0.00  0.00    +0.000 C 
ATOM      8  C   UNL     1      19.169   9.520  36.759  0.00  0.00    +0.000 C 
ATOM      9  C   UNL     1      20.171  10.437  37.459  0.00  0.00    +0.000 C 
ATOM     10  C   UNL     1      19.421  11.413  38.355  0.00  0.00    +0.000 C 
ATOM     11  C   UNL     1      18.593  10.709  39.391  0.00  0.00    +0.000 C 
ATOM     12  C   UNL     1      18.492  12.206  37.472  0.00  0.00    +0.000 C 
ATOM     13  C   UNL     1      18.201  10.335  35.919  0.00  0.00    +0.000 C 
ENDBRANCH   3   4
BRANCH   1  19
ATOM     14  N   UNL     1      12.730  15.264  34.571  0.00  0.00    +0.000 NA
ATOM     15  C   UNL     1      13.491  14.306  33.857  0.00  0.00    +0.000 A 
ATOM     16  C   UNL     1      13.454  14.168  32.485  0.00  0.00    +0.000 A 
ATOM     17  C   UNL     1      14.234  13.201  31.887  0.00  0.00    +0.000 A 
ATOM     18  C   UNL     1      15.046  12.378  32.651  0.00  0.00    +0.000 A 
ATOM     19  C   UNL     1      15.095  12.501  34.018  0.00  0.00    +0.000 A 
ATOM     20  C   UNL     1      14.309  13.472  34.602  0.00  0.00    +0.000 A 
ENDBRANCH   1  19
TORSDOF 2
ENDMDL
MODEL 3
REMARK VINA RESULT:      -6.8      0.754      1.909
REMARK  Name = 
REMARK  2 active torsions:
REMARK  status: ('A' for Active; 'I' for Inactive)
REMARK    1  A    between atoms: C_6  and  C_7
REMARK    2  A    between atoms: N_9  and  C_10
REMARK                            x       y       z     vdW  Elec       q    Type
REMARK                         _______ _______ _______ _____ _____    ______ ____
ROOT
ATOM      1  C   UNL     1      30.839  21.779  11.537  0.00  0.00    +0.000 C 
ATOM      2  O   UNL     1      30.998  20.538  11.435  0.00  0.00    +0.000 OA
ATOM      3  N   UNL     1      31.922  22.609  11.141  0.00  0.00    +0.000 NA
ENDROOT
BRANCH   3   4
ATOM      4  C   UNL     1      33.172  22.051  10.637  0.00  0.00    +0.000 C 
ATOM      5  C   UNL     1      34.224  23.118  10.438  0.00  0.00    +0.000 C 
ATOM      6  C   UNL     1      35.448  22.449   9.870  0.00  0.00    +0.000 C 
ATOM      7  C   UNL     1      35.998  21.383  10.805  0.00  0.00    +0.000 C 
ATOM      8  C   UNL     1      34.913  20.351  11.042  0.00  0.00    +0.000 C 
ATOM      9  C   UNL     1      34.604  19.693   9.698  0.00  0.00    +0.000 C 
ATOM     10  C   UNL     1      34.104  20.749   8.722  0.00  0.00    +0.000 C 
ATOM     11  C   UNL     1      35.107  21.848   8.513  0.00  0.00    +0.000 C 
ATOM     12  C   UNL     1      32.862  21.358   9.321  0.00  0.00    +0.000 C 
ATOM     13  C   UNL     1      33.666  21.011  11.608  0.00  0.00    +0.000 C 
ENDBRANCH   3   4
BRANCH   1  19
ATOM     14  N   UNL     1      26.074  22.506  10.991  0.00  0.00    +0.000 NA
ATOM     15  C   UNL     1      27.219  22.733  11.794  0.00  0.00    +0.000 A 
ATOM     16  C   UNL     1      27.197  23.444  12.975  0.00  0.00    +0.000 A 
ATOM     17  C   UNL     1      28.370  23.607  13.681  0.00  0.00    +0.000 A 
ATOM     18  C   UNL     1      29.556  23.066  13.214  0.00  0.00    +0.000 A 
ATOM     19  C   UNL     1      29.597  22.355  12.039  0.00  0.00    +0.000 A 
ATOM     20  C   UNL     1      28.417  22.199  11.344  0.00  0.00    +0.000 A 
ENDBRANCH   1  19
TORSDOF 2
ENDMDL
MODEL 4
REMARK VINA RESULT:      -6.8     27.179     30.011
REMARK  Name = 
REMARK  2 active torsions:
REMARK  status: ('A' for Active; 'I' for Inactive)
REMARK    1  A    between atoms: C_6  and  C_7
REMARK    2  A    between atoms: N_9  and  C_10
REMARK                            x       y       z     vdW  Elec       q    Type
REMARK                         _______ _______ _______ _____ _____    ______ ____
ROOT
ATOM      1  C   UNL     1      16.400  10.990  34.741  0.00  0.00    +0.000 C 
ATOM      2  O   UNL     1      17.106  10.483  33.836  0.00  0.00    +0.000 OA
ATOM      3  N   UNL     1      15.358  11.870  34.340  0.00  0.00    +0.000 NA
ENDROOT
BRANCH   3   4
ATOM      4  C   UNL     1      15.112  12.177  32.935  0.00  0.00    +0.000 C 
ATOM      5  C   UNL     1      14.441  11.028  32.218  0.00  0.00    +0.000 C 
ATOM      6  C   UNL     1      14.282  11.425  30.773  0.00  0.00    +0.000 C 
ATOM      7  C   UNL     1      13.424  12.672  30.619  0.00  0.00    +0.000 C 
ATOM      8  C   UNL     1      14.080  13.800  31.392  0.00  0.00    +0.000 C 
ATOM      9  C   UNL     1      15.437  14.071  30.744  0.00  0.00    +0.000 C 
ATOM     10  C   UNL     1      16.298  12.819  30.834  0.00  0.00    +0.000 C 
ATOM     11  C   UNL     1      15.658  11.641  30.158  0.00  0.00    +0.000 C 
ATOM     12  C   UNL     1      16.456  12.490  32.297  0.00  0.00    +0.000 C 
ATOM     13  C   UNL     1      14.256  13.412  32.850  0.00  0.00    +0.000 C 
ENDBRANCH   3   4
BRANCH   1  19
ATOM     14  N   UNL     1      19.307   9.211  38.193  0.00  0.00    +0.000 NA
ATOM     15  C   UNL     1      18.061   9.815  37.894  0.00  0.00    +0.000 A 
ATOM     16  C   UNL     1      17.109  10.118  38.845  0.00  0.00    +0.000 A 
ATOM     17  C   UNL     1      15.928  10.706  38.447  0.00  0.00    +0.000 A 
ATOM     18  C   UNL     1      15.696  10.991  37.111  0.00  0.00    +0.000 A 
ATOM     19  C   UNL     1      16.632  10.696  36.150  0.00  0.00    +0.000 A 
ATOM     20  C   UNL     1      17.809  10.108  36.562  0.00  0.00    +0.000 A 
ENDBRANCH   1  19
TORSDOF 2
ENDMDL
MODEL 5
REMARK VINA RESULT:      -6.7      1.749      2.516
REMARK  Name = 
REMARK  2 active torsions:
REMARK  status: ('A' for Active; 'I' for Inactive)
REMARK    1  A    between atoms: C_6  and  C_7
REMARK    2  A    between atoms: N_9  and  C_10
REMARK                            x       y       z     vdW  Elec       q    Type
REMARK                         _______ _______ _______ _____ _____    ______ ____
ROOT
ATOM      1  C   UNL     1      29.760  21.805  10.781  0.00  0.00    +0.000 C 
ATOM      2  O   UNL     1      29.944  20.564  10.818  0.00  0.00    +0.000 OA
ATOM      3  N   UNL     1      30.590  22.561   9.911  0.00  0.00    +0.000 NA
ENDROOT
BRANCH   3   4
ATOM      4  C   UNL     1      31.619  21.930   9.091  0.00  0.00    +0.000 C 
ATOM      5  C   UNL     1      31.074  20.754   8.313  0.00  0.00    +0.000 C 
ATOM      6  C   UNL     1      32.220  20.147   7.547  0.00  0.00    +0.000 C 
ATOM      7  C   UNL     1      32.840  21.137   6.574  0.00  0.00    +0.000 C 
ATOM      8  C   UNL     1      33.330  22.337   7.361  0.00  0.00    +0.000 C 
ATOM      9  C   UNL     1      34.425  21.848   8.308  0.00  0.00    +0.000 C 
ATOM     10  C   UNL     1      33.844  20.811   9.259  0.00  0.00    +0.000 C 
ATOM     11  C   UNL     1      33.264  19.634   8.529  0.00  0.00    +0.000 C 
ATOM     12  C   UNL     1      32.731  21.481  10.024  0.00  0.00    +0.000 C 
ATOM     13  C   UNL     1      32.187  22.957   8.148  0.00  0.00    +0.000 C 
ENDBRANCH   3   4
BRANCH   1  19
ATOM     14  N   UNL     1      28.627  24.692  14.511  0.00  0.00    +0.000 NA
ATOM     15  C   UNL     1      28.142  23.889  13.448  0.00  0.00    +0.000 A 
ATOM     16  C   UNL     1      26.803  23.711  13.173  0.00  0.00    +0.000 A 
ATOM     17  C   UNL     1      26.437  22.909  12.114  0.00  0.00    +0.000 A 
ATOM     18  C   UNL     1      27.399  22.287  11.334  0.00  0.00    +0.000 A 
ATOM     19  C   UNL     1      28.738  22.453  11.594  0.00  0.00    +0.000 A 
ATOM     20  C   UNL     1      29.089  23.258  12.656  0.00  0.00    +0.000 A 
ENDBRANCH   1  19
TORSDOF 2
ENDMDL
MODEL 6
REMARK VINA RESULT:      -6.5      1.415      2.328
REMARK  Name = 
REMARK  2 active torsions:
REMARK  status: ('A' for Active; 'I' for Inactive)
REMARK    1  A    between atoms: C_6  and  C_7
REMARK    2  A    between atoms: N_9  and  C_10
REMARK                            x       y       z     vdW  Elec       q    Type
REMARK                         _______ _______ _______ _____ _____    ______ ____
ROOT
ATOM      1  C   UNL     1      30.900  21.788  11.208  0.00  0.00    +0.000 C 
ATOM      2  O   UNL     1      30.981  20.556  10.983  0.00  0.00    +0.000 OA
ATOM      3  N   UNL     1      32.048  22.578  10.933  0.00  0.00    +0.000 NA
ENDROOT
BRANCH   3   4
ATOM      4  C   UNL     1      33.277  21.989  10.410  0.00  0.00    +0.000 C 
ATOM      5  C   UNL     1      33.077  21.404   9.030  0.00  0.00    +0.000 C 
ATOM      6  C   UNL     1      34.381  20.781   8.608  0.00  0.00    +0.000 C 
ATOM      7  C   UNL     1      35.507  21.802   8.552  0.00  0.00    +0.000 C 
ATOM      8  C   UNL     1      35.657  22.421   9.928  0.00  0.00    +0.000 C 
ATOM      9  C   UNL     1      36.069  21.308  10.889  0.00  0.00    +0.000 C 
ATOM     10  C   UNL     1      34.984  20.241  10.922  0.00  0.00    +0.000 C 
ATOM     11  C   UNL     1      34.730  19.650   9.565  0.00  0.00    +0.000 C 
ATOM     12  C   UNL     1      33.715  20.910  11.386  0.00  0.00    +0.000 C 
ATOM     13  C   UNL     1      34.346  23.048  10.373  0.00  0.00    +0.000 C 
ENDBRANCH   3   4
BRANCH   1  19
ATOM     14  N   UNL     1      28.755  24.642  14.492  0.00  0.00    +0.000 NA
ATOM     15  C   UNL     1      28.584  23.812  13.357  0.00  0.00    +0.000 A 
ATOM     16  C   UNL     1      27.363  23.571  12.762  0.00  0.00    +0.000 A 
ATOM     17  C   UNL     1      27.306  22.746  11.659  0.00  0.00    +0.000 A 
ATOM     18  C   UNL     1      28.457  22.164  11.152  0.00  0.00    +0.000 A 
ATOM     19  C   UNL     1      29.681  22.393  11.732  0.00  0.00    +0.000 A 
ATOM     20  C   UNL     1      29.723  23.221  12.834  0.00  0.00    +0.000 A 
ENDBRANCH   1  19
TORSDOF 2
ENDMDL
MODEL 7
REMARK VINA RESULT:      -6.5     19.288     20.167
REMARK  Name = 
REMARK  2 active torsions:
REMARK  status: ('A' for Active; 'I' for Inactive)
REMARK    1  A    between atoms: C_6  and  C_7
REMARK    2  A    between atoms: N_9  and  C_10
REMARK                            x       y       z     vdW  Elec       q    Type
REMARK                         _______ _______ _______ _____ _____    ______ ____
ROOT
ATOM      1  C   UNL     1      24.395   3.221  17.686  0.00  0.00    +0.000 C 
ATOM      2  O   UNL     1      25.367   2.537  18.091  0.00  0.00    +0.000 OA
ATOM      3  N   UNL     1      24.659   4.561  17.295  0.00  0.00    +0.000 NA
ENDROOT
BRANCH   3   4
ATOM      4  C   UNL     1      26.001   5.128  17.358  0.00  0.00    +0.000 C 
ATOM      5  C   UNL     1      26.585   5.037  18.750  0.00  0.00    +0.000 C 
ATOM      6  C   UNL     1      27.940   5.694  18.717  0.00  0.00    +0.000 C 
ATOM      7  C   UNL     1      28.881   5.005  17.742  0.00  0.00    +0.000 C 
ATOM      8  C   UNL     1      28.256   5.053  16.361  0.00  0.00    +0.000 C 
ATOM      9  C   UNL     1      28.144   6.523  15.960  0.00  0.00    +0.000 C 
ATOM     10  C   UNL     1      27.251   7.251  16.954  0.00  0.00    +0.000 C 
ATOM     11  C   UNL     1      27.777   7.164  18.358  0.00  0.00    +0.000 C 
ATOM     12  C   UNL     1      25.902   6.579  16.917  0.00  0.00    +0.000 C 
ATOM     13  C   UNL     1      26.883   4.402  16.378  0.00  0.00    +0.000 C 
ENDBRANCH   3   4
BRANCH   1  19
ATOM     14  N   UNL     1      19.676   3.639  18.729  0.00  0.00    +0.000 NA
ATOM     15  C   UNL     1      20.687   2.853  18.123  0.00  0.00    +0.000 A 
ATOM     16  C   UNL     1      20.447   1.645  17.502  0.00  0.00    +0.000 A 
ATOM     17  C   UNL     1      21.503   0.958  16.942  0.00  0.00    +0.000 A 
ATOM     18  C   UNL     1      22.789   1.470  17.002  0.00  0.00    +0.000 A 
ATOM     19  C   UNL     1      23.046   2.671  17.617  0.00  0.00    +0.000 A 
ATOM     20  C   UNL     1      21.981   3.347  18.172  0.00  0.00    +0.000 A 
ENDBRANCH   1  19
TORSDOF 2
ENDMDL
MODEL 8
REMARK VINA RESULT:      -6.4     13.842     17.247
REMARK  Name = 
REMARK  2 active torsions:
REMARK  status: ('A' for Active; 'I' for Inactive)
REMARK    1  A    between atoms: C_6  and  C_7
REMARK    2  A    between atoms: N_9  and  C_10
REMARK                            x       y       z     vdW  Elec       q    Type
REMARK                         _______ _______ _______ _____ _____    ______ ____
ROOT
ATOM      1  C   UNL     1      27.909  23.266  25.904  0.00  0.00    +0.000 C 
ATOM      2  O   UNL     1      27.645  22.097  26.277  0.00  0.00    +0.000 OA
ATOM      3  N   UNL     1      28.035  24.259  26.912  0.00  0.00    +0.000 NA
ENDROOT
BRANCH   3   4
ATOM      4  C   UNL     1      27.866  23.942  28.326  0.00  0.00    +0.000 C 
ATOM      5  C   UNL     1      28.858  22.902  28.792  0.00  0.00    +0.000 C 
ATOM      6  C   UNL     1      28.565  22.610  30.241  0.00  0.00    +0.000 C 
ATOM      7  C   UNL     1      28.706  23.851  31.109  0.00  0.00    +0.000 C 
ATOM      8  C   UNL     1      27.746  24.905  30.594  0.00  0.00    +0.000 C 
ATOM      9  C   UNL     1      26.329  24.360  30.767  0.00  0.00    +0.000 C 
ATOM     10  C   UNL     1      26.177  23.084  29.951  0.00  0.00    +0.000 C 
ATOM     11  C   UNL     1      27.163  22.028  30.361  0.00  0.00    +0.000 C 
ATOM     12  C   UNL     1      26.443  23.440  28.511  0.00  0.00    +0.000 C 
ATOM     13  C   UNL     1      28.023  25.205  29.130  0.00  0.00    +0.000 C 
ENDBRANCH   3   4
BRANCH   1  19
ATOM     14  N   UNL     1      26.051  23.501  21.429  0.00  0.00    +0.000 NA
ATOM     15  C   UNL     1      27.181  23.731  22.253  0.00  0.00    +0.000 A 
ATOM     16  C   UNL     1      28.377  24.236  21.787  0.00  0.00    +0.000 A 
ATOM     17  C   UNL     1      29.416  24.422  22.674  0.00  0.00    +0.000 A 
ATOM     18  C   UNL     1      29.265  24.107  24.014  0.00  0.00    +0.000 A 
ATOM     19  C   UNL     1      28.081  23.602  24.495  0.00  0.00    +0.000 A 
ATOM     20  C   UNL     1      27.051  23.421  23.597  0.00  0.00    +0.000 A 
ENDBRANCH   1  19
TORSDOF 2
ENDMDL
MODEL 9
REMARK VINA RESULT:      -6.4     33.579     34.464
REMARK  Name = 
REMARK  2 active torsions:
REMARK  status: ('A' for Active; 'I' for Inactive)
REMARK    1  A    between atoms: C_6  and  C_7
REMARK    2  A    between atoms: N_9  and  C_10
REMARK                            x       y       z     vdW  Elec       q    Type
REMARK                         _______ _______ _______ _____ _____    ______ ____
ROOT
ATOM      1  C   UNL     1      21.442  -7.280  25.234  0.00  0.00    +0.000 C 
ATOM      2  O   UNL     1      22.510  -6.636  25.379  0.00  0.00    +0.000 OA
ATOM      3  N   UNL     1      21.479  -8.422  24.390  0.00  0.00    +0.000 NA
ENDROOT
BRANCH   3   4
ATOM      4  C   UNL     1      22.704  -8.837  23.713  0.00  0.00    +0.000 C 
ATOM      5  C   UNL     1      23.283  -7.725  22.868  0.00  0.00    +0.000 C 
ATOM      6  C   UNL     1      24.505  -8.270  22.177  0.00  0.00    +0.000 C 
ATOM      7  C   UNL     1      25.559  -8.734  23.170  0.00  0.00    +0.000 C 
ATOM      8  C   UNL     1      24.946  -9.807  24.049  0.00  0.00    +0.000 C 
ATOM      9  C   UNL     1      24.587 -10.987  23.148  0.00  0.00    +0.000 C 
ATOM     10  C   UNL     1      23.574 -10.536  22.106  0.00  0.00    +0.000 C 
ATOM     11  C   UNL     1      24.095  -9.412  21.258  0.00  0.00    +0.000 C 
ATOM     12  C   UNL     1      22.360 -10.039  22.849  0.00  0.00    +0.000 C 
ATOM     13  C   UNL     1      23.706  -9.276  24.748  0.00  0.00    +0.000 C 
ENDBRANCH   3   4
BRANCH   1  19
ATOM     14  N   UNL     1      17.512  -8.514  27.796  0.00  0.00    +0.000 NA
ATOM     15  C   UNL     1      18.239  -7.466  27.179  0.00  0.00    +0.000 A 
ATOM     16  C   UNL     1      17.837  -6.147  27.190  0.00  0.00    +0.000 A 
ATOM     17  C   UNL     1      18.619  -5.203  26.560  0.00  0.00    +0.000 A 
ATOM     18  C   UNL     1      19.793  -5.571  25.922  0.00  0.00    +0.000 A 
ATOM     19  C   UNL     1      20.208  -6.880  25.901  0.00  0.00    +0.000 A 
ATOM     20  C   UNL     1      19.417  -7.813  26.536  0.00  0.00    +0.000 A 
ENDBRANCH   1  19
TORSDOF 2
ENDMDL
MODEL 10
REMARK VINA RESULT:      -6.3     32.995     34.167
REMARK  Name = 
REMARK  2 active torsions:
REMARK  status: ('A' for Active; 'I' for Inactive)
REMARK    1  A    between atoms: C_6  and  C_7
REMARK    2  A    between atoms: N_9  and  C_10
REMARK                            x       y       z     vdW  Elec       q    Type
REMARK                         _______ _______ _______ _____ _____    ______ ____
ROOT
ATOM      1  C   UNL     1      33.505  -4.067  33.298  0.00  0.00    +0.000 C 
ATOM      2  O   UNL     1      33.999  -5.023  33.945  0.00  0.00    +0.000 OA
ATOM      3  N   UNL     1      33.224  -4.288  31.923  0.00  0.00    +0.000 NA
ENDROOT
BRANCH   3   4
ATOM      4  C   UNL     1      33.494  -5.570  31.281  0.00  0.00    +0.000 C 
ATOM      5  C   UNL     1      34.975  -5.869  31.224  0.00  0.00    +0.000 C 
ATOM      6  C   UNL     1      35.147  -7.179  30.500  0.00  0.00    +0.000 C 
ATOM      7  C   UNL     1      34.440  -8.319  31.216  0.00  0.00    +0.000 C 
ATOM      8  C   UNL     1      32.966  -7.979  31.316  0.00  0.00    +0.000 C 
ATOM      9  C   UNL     1      32.417  -7.895  29.893  0.00  0.00    +0.000 C 
ATOM     10  C   UNL     1      33.148  -6.796  29.134  0.00  0.00    +0.000 C 
ATOM     11  C   UNL     1      34.629  -7.036  29.076  0.00  0.00    +0.000 C 
ATOM     12  C   UNL     1      32.911  -5.507  29.878  0.00  0.00    +0.000 C 
ATOM     13  C   UNL     1      32.775  -6.655  32.037  0.00  0.00    +0.000 C 
ENDBRANCH   3   4
BRANCH   1  19
ATOM     14  N   UNL     1      33.951   0.763  33.239  0.00  0.00    +0.000 NA
ATOM     15  C   UNL     1      33.436  -0.368  33.920  0.00  0.00    +0.000 A 
ATOM     16  C   UNL     1      32.717  -0.292  35.094  0.00  0.00    +0.000 A 
ATOM     17  C   UNL     1      32.259  -1.454  35.676  0.00  0.00    +0.000 A 
ATOM     18  C   UNL     1      32.515  -2.685  35.093  0.00  0.00    +0.000 A 
ATOM     19  C   UNL     1      33.230  -2.779  33.923  0.00  0.00    +0.000 A 
ATOM     20  C   UNL     1      33.681  -1.609  33.352  0.00  0.00    +0.000 A 
ENDBRANCH   1  19
TORSDOF 2
ENDMDL
