MODEL 1
REMARK VINA RESULT:      -7.8      0.000      0.000
REMARK  Name = 
REMARK  7 active torsions:
REMARK  status: ('A' for Active; 'I' for Inactive)
REMARK    1  A    between atoms: C_7  and  N_8
REMARK    2  A    between atoms: C_9  and  C_11
REMARK    3  A    between atoms: C_11  and  C_12
REMARK    4  A    between atoms: C_11  and  C_19
REMARK    5  A    between atoms: C_12  and  C_13
REMARK    6  A    between atoms: C_19  and  C_20
REMARK    7  A    between atoms: C_26  and  C_27
REMARK                            x       y       z     vdW  Elec       q    Type
REMARK                         _______ _______ _______ _____ _____    ______ ____
ROOT
ATOM      1  N   UNL     1      36.203   3.189  15.252  0.00  0.00    +0.000 NA
ATOM      2  C   UNL     1      37.332   3.849  15.784  0.00  0.00    +0.000 C 
ATOM      3  O   UNL     1      38.062   3.154  16.564  0.00  0.00    +0.000 OA
ENDROOT
BRANCH   1  10
ATOM      4  C   UNL     1      37.912  -1.376  16.563  0.00  0.00    +0.000 C 
ATOM      5  C   UNL     1      36.960  -2.664  16.209  0.00  0.00    +0.000 C 
ATOM      6  C   UNL     1      35.983  -2.455  17.497  0.00  0.00    +0.000 C 
ATOM      7  C   UNL     1      34.749  -1.759  17.153  0.00  0.00    +0.000 C 
ATOM      8  C   UNL     1      35.139  -0.415  16.641  0.00  0.00    +0.000 A 
ATOM      9  S   UNL     1      35.019   1.253  16.942  0.00  0.00    +0.000 S 
ATOM     10  C   UNL     1      35.926   1.830  15.586  0.00  0.00    +0.000 A 
ATOM     11  C   UNL     1      36.282   0.676  14.955  0.00  0.00    +0.000 A 
ATOM     12  C   UNL     1      35.878  -0.486  15.498  0.00  0.00    +0.000 A 
ATOM     13  C   UNL     1      36.089  -1.899  15.067  0.00  0.00    +0.000 C 
BRANCH  11  14
ATOM     14  C   UNL     1      37.082   0.745  13.729  0.00  0.00    +0.000 C 
ATOM     15  N   UNL     1      37.737   0.795  12.755  0.00  0.00    +0.000 NA
ENDBRANCH  11  14
ENDBRANCH   1  10
BRANCH   2  16
ATOM     16  C   UNL     1      37.725   5.231  15.523  0.00  0.00    +0.000 C 
BRANCH  16  17
ATOM     17  C   UNL     1      39.105   5.607  15.910  0.00  0.00    +0.000 C 
BRANCH  17  18
ATOM     18  C   UNL     1      39.093   6.177  17.285  0.00  0.00    +0.000 A 
ATOM     19  C   UNL     1      39.968   5.724  18.250  0.00  0.00    +0.000 A 
ATOM     20  C   UNL     1      39.974   6.235  19.522  0.00  0.00    +0.000 A 
ATOM     21  C   UNL     1      39.086   7.232  19.872  0.00  0.00    +0.000 A 
ATOM     22  C   UNL     1      38.191   7.707  18.912  0.00  0.00    +0.000 A 
ATOM     23  C   UNL     1      38.206   7.176  17.639  0.00  0.00    +0.000 A 
ENDBRANCH  17  18
ENDBRANCH  16  17
BRANCH  16  24
ATOM     24  C   UNL     1      37.251   5.790  14.239  0.00  0.00    +0.000 C 
BRANCH  24  25
ATOM     25  C   UNL     1      36.062   6.667  14.370  0.00  0.00    +0.000 A 
ATOM     26  C   UNL     1      36.196   7.952  14.855  0.00  0.00    +0.000 A 
ATOM     27  C   UNL     1      35.089   8.792  14.986  0.00  0.00    +0.000 A 
ATOM     28  C   UNL     1      33.825   8.362  14.634  0.00  0.00    +0.000 A 
ATOM     29  C   UNL     1      33.682   7.075  14.146  0.00  0.00    +0.000 A 
ATOM     30  C   UNL     1      34.790   6.257  14.023  0.00  0.00    +0.000 A 
ENDBRANCH  24  25
ENDBRANCH  16  24
ENDBRANCH   2  16
TORSDOF 7
ENDMDL
MODEL 2
REMARK VINA RESULT:      -7.7      3.336      7.464
REMARK  Name = 
REMARK  7 active torsions:
REMARK  status: ('A' for Active; 'I' for Inactive)
REMARK    1  A    between atoms: C_7  and  N_8
REMARK    2  A    between atoms: C_9  and  C_11
REMARK    3  A    between atoms: C_11  and  C_12
REMARK    4  A    between atoms: C_11  and  C_19
REMARK    5  A    between atoms: C_12  and  C_13
REMARK    6  A    between atoms: C_19  and  C_20
REMARK    7  A    between atoms: C_26  and  C_27
REMARK                            x       y       z     vdW  Elec       q    Type
REMARK                         _______ _______ _______ _____ _____    ______ ____
ROOT
ATOM      1  N   UNL     1      37.805  -0.552  16.350  0.00  0.00    +0.000 NA
ATOM      2  C   UNL     1      36.499  -0.575  15.814  0.00  0.00    +0.000 C 
ATOM      3  O   UNL     1      36.424  -0.672  14.546  0.00  0.00    +0.000 OA
ENDROOT
BRANCH   1  10
ATOM      4  C   UNL     1      40.157  -2.770  12.474  0.00  0.00    +0.000 C 
ATOM      5  C   UNL     1      41.794  -2.668  12.431  0.00  0.00    +0.000 C 
ATOM      6  C   UNL     1      41.809  -1.158  11.817  0.00  0.00    +0.000 C 
ATOM      7  C   UNL     1      42.017  -0.142  12.842  0.00  0.00    +0.000 C 
ATOM      8  C   UNL     1      40.875  -0.248  13.794  0.00  0.00    +0.000 A 
ATOM      9  S   UNL     1      39.532   0.585  14.417  0.00  0.00    +0.000 S 
ATOM     10  C   UNL     1      38.947  -0.634  15.499  0.00  0.00    +0.000 A 
ATOM     11  C   UNL     1      39.843  -1.644  15.317  0.00  0.00    +0.000 A 
ATOM     12  C   UNL     1      40.839  -1.448  14.437  0.00  0.00    +0.000 A 
ATOM     13  C   UNL     1      41.966  -2.331  14.014  0.00  0.00    +0.000 C 
BRANCH  11  14
ATOM     14  C   UNL     1      39.686  -2.887  16.077  0.00  0.00    +0.000 C 
ATOM     15  N   UNL     1      39.550  -3.891  16.673  0.00  0.00    +0.000 NA
ENDBRANCH  11  14
ENDBRANCH   1  10
BRANCH   2  16
ATOM     16  C   UNL     1      35.255  -0.499  16.574  0.00  0.00    +0.000 C 
BRANCH  16  17
ATOM     17  C   UNL     1      34.911  -1.687  17.393  0.00  0.00    +0.000 C 
BRANCH  17  18
ATOM     18  C   UNL     1      34.962  -2.905  16.539  0.00  0.00    +0.000 A 
ATOM     19  C   UNL     1      36.053  -3.749  16.570  0.00  0.00    +0.000 A 
ATOM     20  C   UNL     1      36.119  -4.876  15.792  0.00  0.00    +0.000 A 
ATOM     21  C   UNL     1      35.079  -5.196  14.945  0.00  0.00    +0.000 A 
ATOM     22  C   UNL     1      33.964  -4.357  14.898  0.00  0.00    +0.000 A 
ATOM     23  C   UNL     1      33.921  -3.229  15.691  0.00  0.00    +0.000 A 
ENDBRANCH  17  18
ENDBRANCH  16  17
BRANCH  16  24
ATOM     24  C   UNL     1      34.978   0.809  17.205  0.00  0.00    +0.000 C 
BRANCH  24  25
ATOM     25  C   UNL     1      35.453   1.969  16.412  0.00  0.00    +0.000 A 
ATOM     26  C   UNL     1      34.776   2.355  15.274  0.00  0.00    +0.000 A 
ATOM     27  C   UNL     1      35.207   3.444  14.514  0.00  0.00    +0.000 A 
ATOM     28  C   UNL     1      36.325   4.167  14.879  0.00  0.00    +0.000 A 
ATOM     29  C   UNL     1      37.009   3.787  16.020  0.00  0.00    +0.000 A 
ATOM     30  C   UNL     1      36.567   2.706  16.760  0.00  0.00    +0.000 A 
ENDBRANCH  24  25
ENDBRANCH  16  24
ENDBRANCH   2  16
TORSDOF 7
ENDMDL
MODEL 3
REMARK VINA RESULT:      -7.6      3.546      5.905
REMARK  Name = 
REMARK  7 active torsions:
REMARK  status: ('A' for Active; 'I' for Inactive)
REMARK    1  A    between atoms: C_7  and  N_8
REMARK    2  A    between atoms: C_9  and  C_11
REMARK    3  A    between atoms: C_11  and  C_12
REMARK    4  A    between atoms: C_11  and  C_19
REMARK    5  A    between atoms: C_12  and  C_13
REMARK    6  A    between atoms: C_19  and  C_20
REMARK    7  A    between atoms: C_26  and  C_27
REMARK                            x       y       z     vdW  Elec       q    Type
REMARK                         _______ _______ _______ _____ _____    ______ ____
ROOT
ATOM      1  N   UNL     1      39.540   1.339  15.078  0.00  0.00    +0.000 NA
ATOM      2  C   UNL     1      38.256   1.736  14.647  0.00  0.00    +0.000 C 
ATOM      3  O   UNL     1      37.880   1.263  13.525  0.00  0.00    +0.000 OA
ENDROOT
BRANCH   1  10
ATOM      4  C   UNL     1      39.816  -2.528  11.847  0.00  0.00    +0.000 C 
ATOM      5  C   UNL     1      41.220  -3.375  11.808  0.00  0.00    +0.000 C 
ATOM      6  C   UNL     1      41.993  -2.292  10.866  0.00  0.00    +0.000 C 
ATOM      7  C   UNL     1      42.843  -1.391  11.636  0.00  0.00    +0.000 C 
ATOM      8  C   UNL     1      41.950  -0.646  12.569  0.00  0.00    +0.000 A 
ATOM      9  S   UNL     1      41.370   0.901  12.965  0.00  0.00    +0.000 S 
ATOM     10  C   UNL     1      40.341   0.464  14.286  0.00  0.00    +0.000 A 
ATOM     11  C   UNL     1      40.504  -0.887  14.354  0.00  0.00    +0.000 A 
ATOM     12  C   UNL     1      41.334  -1.464  13.468  0.00  0.00    +0.000 A 
ATOM     13  C   UNL     1      41.731  -2.889  13.275  0.00  0.00    +0.000 C 
BRANCH  11  14
ATOM     14  C   UNL     1      39.778  -1.648  15.374  0.00  0.00    +0.000 C 
ATOM     15  N   UNL     1      39.210  -2.262  16.200  0.00  0.00    +0.000 NA
ENDBRANCH  11  14
ENDBRANCH   1  10
BRANCH   2  16
ATOM     16  C   UNL     1      37.342   2.622  15.361  0.00  0.00    +0.000 C 
BRANCH  16  17
ATOM     17  C   UNL     1      37.488   4.073  15.092  0.00  0.00    +0.000 C 
BRANCH  17  18
ATOM     18  C   UNL     1      38.378   4.677  16.120  0.00  0.00    +0.000 A 
ATOM     19  C   UNL     1      38.133   4.500  17.466  0.00  0.00    +0.000 A 
ATOM     20  C   UNL     1      38.941   5.048  18.429  0.00  0.00    +0.000 A 
ATOM     21  C   UNL     1      40.036   5.804  18.067  0.00  0.00    +0.000 A 
ATOM     22  C   UNL     1      40.304   5.997  16.710  0.00  0.00    +0.000 A 
ATOM     23  C   UNL     1      39.477   5.435  15.761  0.00  0.00    +0.000 A 
ENDBRANCH  17  18
ENDBRANCH  16  17
BRANCH  16  24
ATOM     24  C   UNL     1      35.952   2.135  15.479  0.00  0.00    +0.000 C 
BRANCH  24  25
ATOM     25  C   UNL     1      35.781   1.047  16.473  0.00  0.00    +0.000 A 
ATOM     26  C   UNL     1      35.354  -0.202  16.069  0.00  0.00    +0.000 A 
ATOM     27  C   UNL     1      35.187  -1.239  16.989  0.00  0.00    +0.000 A 
ATOM     28  C   UNL     1      35.444  -1.045  18.331  0.00  0.00    +0.000 A 
ATOM     29  C   UNL     1      35.873   0.203  18.744  0.00  0.00    +0.000 A 
ATOM     30  C   UNL     1      36.033   1.218  17.819  0.00  0.00    +0.000 A 
ENDBRANCH  24  25
ENDBRANCH  16  24
ENDBRANCH   2  16
TORSDOF 7
ENDMDL
MODEL 4
REMARK VINA RESULT:      -7.3      1.448      1.937
REMARK  Name = 
REMARK  7 active torsions:
REMARK  status: ('A' for Active; 'I' for Inactive)
REMARK    1  A    between atoms: C_7  and  N_8
REMARK    2  A    between atoms: C_9  and  C_11
REMARK    3  A    between atoms: C_11  and  C_12
REMARK    4  A    between atoms: C_11  and  C_19
REMARK    5  A    between atoms: C_12  and  C_13
REMARK    6  A    between atoms: C_19  and  C_20
REMARK    7  A    between atoms: C_26  and  C_27
REMARK                            x       y       z     vdW  Elec       q    Type
REMARK                         _______ _______ _______ _____ _____    ______ ____
ROOT
ATOM      1  N   UNL     1      36.367   1.905  14.430  0.00  0.00    +0.000 NA
ATOM      2  C   UNL     1      37.487   2.684  14.794  0.00  0.00    +0.000 C 
ATOM      3  O   UNL     1      38.364   2.092  15.504  0.00  0.00    +0.000 OA
ENDROOT
BRANCH   1  10
ATOM      4  C   UNL     1      38.610  -2.333  16.008  0.00  0.00    +0.000 C 
ATOM      5  C   UNL     1      37.820  -3.745  15.738  0.00  0.00    +0.000 C 
ATOM      6  C   UNL     1      36.823  -3.577  17.016  0.00  0.00    +0.000 C 
ATOM      7  C   UNL     1      35.514  -3.057  16.637  0.00  0.00    +0.000 C 
ATOM      8  C   UNL     1      35.741  -1.709  16.041  0.00  0.00    +0.000 A 
ATOM      9  S   UNL     1      35.420  -0.053  16.241  0.00  0.00    +0.000 S 
ATOM     10  C   UNL     1      36.255   0.546  14.847  0.00  0.00    +0.000 A 
ATOM     11  C   UNL     1      36.748  -0.594  14.287  0.00  0.00    +0.000 A 
ATOM     12  C   UNL     1      36.485  -1.760  14.901  0.00  0.00    +0.000 A 
ATOM     13  C   UNL     1      36.865  -3.161  14.556  0.00  0.00    +0.000 C 
BRANCH  11  14
ATOM     14  C   UNL     1      37.536  -0.505  13.055  0.00  0.00    +0.000 C 
ATOM     15  N   UNL     1      38.154  -0.438  12.057  0.00  0.00    +0.000 NA
ENDBRANCH  11  14
ENDBRANCH   1  10
BRANCH   2  16
ATOM     16  C   UNL     1      37.720   4.079  14.433  0.00  0.00    +0.000 C 
BRANCH  16  17
ATOM     17  C   UNL     1      39.006   4.667  14.879  0.00  0.00    +0.000 C 
BRANCH  17  18
ATOM     18  C   UNL     1      38.781   5.461  16.118  0.00  0.00    +0.000 A 
ATOM     19  C   UNL     1      38.271   6.741  16.059  0.00  0.00    +0.000 A 
ATOM     20  C   UNL     1      38.056   7.488  17.187  0.00  0.00    +0.000 A 
ATOM     21  C   UNL     1      38.353   6.968  18.430  0.00  0.00    +0.000 A 
ATOM     22  C   UNL     1      38.870   5.675  18.515  0.00  0.00    +0.000 A 
ATOM     23  C   UNL     1      39.077   4.943  17.364  0.00  0.00    +0.000 A 
ENDBRANCH  17  18
ENDBRANCH  16  17
BRANCH  16  24
ATOM     24  C   UNL     1      37.284   4.461  13.073  0.00  0.00    +0.000 C 
BRANCH  24  25
ATOM     25  C   UNL     1      36.086   5.336  13.053  0.00  0.00    +0.000 A 
ATOM     26  C   UNL     1      35.739   6.012  11.901  0.00  0.00    +0.000 A 
ATOM     27  C   UNL     1      34.616   6.839  11.861  0.00  0.00    +0.000 A 
ATOM     28  C   UNL     1      33.817   7.006  12.975  0.00  0.00    +0.000 A 
ATOM     29  C   UNL     1      34.157   6.331  14.134  0.00  0.00    +0.000 A 
ATOM     30  C   UNL     1      35.274   5.516  14.154  0.00  0.00    +0.000 A 
ENDBRANCH  24  25
ENDBRANCH  16  24
ENDBRANCH   2  16
TORSDOF 7
ENDMDL
MODEL 5
REMARK VINA RESULT:      -7.3      2.637      5.101
REMARK  Name = 
REMARK  7 active torsions:
REMARK  status: ('A' for Active; 'I' for Inactive)
REMARK    1  A    between atoms: C_7  and  N_8
REMARK    2  A    between atoms: C_9  and  C_11
REMARK    3  A    between atoms: C_11  and  C_12
REMARK    4  A    between atoms: C_11  and  C_19
REMARK    5  A    between atoms: C_12  and  C_13
REMARK    6  A    between atoms: C_19  and  C_20
REMARK    7  A    between atoms: C_26  and  C_27
REMARK                            x       y       z     vdW  Elec       q    Type
REMARK                         _______ _______ _______ _____ _____    ______ ____
ROOT
ATOM      1  N   UNL     1      37.851   5.044  16.397  0.00  0.00    +0.000 NA
ATOM      2  C   UNL     1      38.450   5.152  17.670  0.00  0.00    +0.000 C 
ATOM      3  O   UNL     1      38.598   4.058  18.306  0.00  0.00    +0.000 OA
ENDROOT
BRANCH   1  10
ATOM      4  C   UNL     1      39.120   0.436  14.775  0.00  0.00    +0.000 C 
ATOM      5  C   UNL     1      38.077  -0.316  13.756  0.00  0.00    +0.000 C 
ATOM      6  C   UNL     1      37.074  -0.807  14.944  0.00  0.00    +0.000 C 
ATOM      7  C   UNL     1      35.916   0.067  15.093  0.00  0.00    +0.000 C 
ATOM      8  C   UNL     1      36.437   1.417  15.450  0.00  0.00    +0.000 A 
ATOM      9  S   UNL     1      36.446   2.602  16.668  0.00  0.00    +0.000 S 
ATOM     10  C   UNL     1      37.448   3.776  15.883  0.00  0.00    +0.000 A 
ATOM     11  C   UNL     1      37.729   3.176  14.692  0.00  0.00    +0.000 A 
ATOM     12  C   UNL     1      37.209   1.957  14.466  0.00  0.00    +0.000 A 
ATOM     13  C   UNL     1      37.315   1.045  13.290  0.00  0.00    +0.000 C 
BRANCH  11  14
ATOM     14  C   UNL     1      38.576   3.872  13.720  0.00  0.00    +0.000 C 
ATOM     15  N   UNL     1      39.258   4.415  12.932  0.00  0.00    +0.000 NA
ENDBRANCH  11  14
ENDBRANCH   1  10
BRANCH   2  16
ATOM     16  C   UNL     1      38.905   6.385  18.307  0.00  0.00    +0.000 C 
BRANCH  16  17
ATOM     17  C   UNL     1      37.934   7.504  18.341  0.00  0.00    +0.000 C 
BRANCH  17  18
ATOM     18  C   UNL     1      38.505   8.628  19.132  0.00  0.00    +0.000 A 
ATOM     19  C   UNL     1      39.461   9.463  18.591  0.00  0.00    +0.000 A 
ATOM     20  C   UNL     1      40.000  10.504  19.302  0.00  0.00    +0.000 A 
ATOM     21  C   UNL     1      39.592  10.743  20.598  0.00  0.00    +0.000 A 
ATOM     22  C   UNL     1      38.625   9.912  21.166  0.00  0.00    +0.000 A 
ATOM     23  C   UNL     1      38.098   8.871  20.429  0.00  0.00    +0.000 A 
ENDBRANCH  17  18
ENDBRANCH  16  17
BRANCH  16  24
ATOM     24  C   UNL     1      39.709   6.204  19.534  0.00  0.00    +0.000 C 
BRANCH  24  25
ATOM     25  C   UNL     1      41.162   6.426  19.337  0.00  0.00    +0.000 A 
ATOM     26  C   UNL     1      41.678   6.556  18.064  0.00  0.00    +0.000 A 
ATOM     27  C   UNL     1      43.043   6.766  17.857  0.00  0.00    +0.000 A 
ATOM     28  C   UNL     1      43.917   6.850  18.922  0.00  0.00    +0.000 A 
ATOM     29  C   UNL     1      43.408   6.721  20.202  0.00  0.00    +0.000 A 
ATOM     30  C   UNL     1      42.053   6.514  20.387  0.00  0.00    +0.000 A 
ENDBRANCH  24  25
ENDBRANCH  16  24
ENDBRANCH   2  16
TORSDOF 7
ENDMDL
MODEL 6
REMARK VINA RESULT:      -7.1      0.868      4.175
REMARK  Name = 
REMARK  7 active torsions:
REMARK  status: ('A' for Active; 'I' for Inactive)
REMARK    1  A    between atoms: C_7  and  N_8
REMARK    2  A    between atoms: C_9  and  C_11
REMARK    3  A    between atoms: C_11  and  C_12
REMARK    4  A    between atoms: C_11  and  C_19
REMARK    5  A    between atoms: C_12  and  C_13
REMARK    6  A    between atoms: C_19  and  C_20
REMARK    7  A    between atoms: C_26  and  C_27
REMARK                            x       y       z     vdW  Elec       q    Type
REMARK                         _______ _______ _______ _____ _____    ______ ____
ROOT
ATOM      1  N   UNL     1      36.449   2.995  15.740  0.00  0.00    +0.000 NA
ATOM      2  C   UNL     1      37.749   3.531  15.618  0.00  0.00    +0.000 C 
ATOM      3  O   UNL     1      38.705   2.700  15.757  0.00  0.00    +0.000 OA
ENDROOT
BRANCH   1  10
ATOM      4  C   UNL     1      38.303  -1.699  15.800  0.00  0.00    +0.000 C 
ATOM      5  C   UNL     1      37.227  -2.933  15.692  0.00  0.00    +0.000 C 
ATOM      6  C   UNL     1      36.815  -2.877  17.268  0.00  0.00    +0.000 C 
ATOM      7  C   UNL     1      35.576  -2.141  17.493  0.00  0.00    +0.000 C 
ATOM      8  C   UNL     1      35.810  -0.746  17.023  0.00  0.00    +0.000 A 
ATOM      9  S   UNL     1      35.892   0.874  17.529  0.00  0.00    +0.000 S 
ATOM     10  C   UNL     1      36.252   1.607  16.002  0.00  0.00    +0.000 A 
ATOM     11  C   UNL     1      36.290   0.535  15.162  0.00  0.00    +0.000 A 
ATOM     12  C   UNL     1      36.063  -0.682  15.685  0.00  0.00    +0.000 A 
ATOM     13  C   UNL     1      36.030  -2.034  15.055  0.00  0.00    +0.000 C 
BRANCH  11  14
ATOM     14  C   UNL     1      36.575   0.748  13.740  0.00  0.00    +0.000 C 
ATOM     15  N   UNL     1      36.812   0.903  12.599  0.00  0.00    +0.000 NA
ENDBRANCH  11  14
ENDBRANCH   1  10
BRANCH   2  16
ATOM     16  C   UNL     1      38.084   4.927  15.352  0.00  0.00    +0.000 C 
BRANCH  16  17
ATOM     17  C   UNL     1      37.699   5.453  14.021  0.00  0.00    +0.000 C 
BRANCH  17  18
ATOM     18  C   UNL     1      36.463   6.272  14.153  0.00  0.00    +0.000 A 
ATOM     19  C   UNL     1      35.216   5.707  13.987  0.00  0.00    +0.000 A 
ATOM     20  C   UNL     1      34.065   6.443  14.104  0.00  0.00    +0.000 A 
ATOM     21  C   UNL     1      34.131   7.789  14.396  0.00  0.00    +0.000 A 
ATOM     22  C   UNL     1      35.382   8.383  14.569  0.00  0.00    +0.000 A 
ATOM     23  C   UNL     1      36.525   7.621  14.446  0.00  0.00    +0.000 A 
ENDBRANCH  17  18
ENDBRANCH  16  17
BRANCH  16  24
ATOM     24  C   UNL     1      37.878   5.854  16.486  0.00  0.00    +0.000 C 
BRANCH  24  25
ATOM     25  C   UNL     1      39.074   6.023  17.346  0.00  0.00    +0.000 A 
ATOM     26  C   UNL     1      40.314   6.231  16.779  0.00  0.00    +0.000 A 
ATOM     27  C   UNL     1      41.452   6.392  17.572  0.00  0.00    +0.000 A 
ATOM     28  C   UNL     1      41.369   6.348  18.950  0.00  0.00    +0.000 A 
ATOM     29  C   UNL     1      40.129   6.141  19.527  0.00  0.00    +0.000 A 
ATOM     30  C   UNL     1      39.013   5.983  18.725  0.00  0.00    +0.000 A 
ENDBRANCH  24  25
ENDBRANCH  16  24
ENDBRANCH   2  16
TORSDOF 7
ENDMDL
MODEL 7
REMARK VINA RESULT:      -7.0      2.241      4.171
REMARK  Name = 
REMARK  7 active torsions:
REMARK  status: ('A' for Active; 'I' for Inactive)
REMARK    1  A    between atoms: C_7  and  N_8
REMARK    2  A    between atoms: C_9  and  C_11
REMARK    3  A    between atoms: C_11  and  C_12
REMARK    4  A    between atoms: C_11  and  C_19
REMARK    5  A    between atoms: C_12  and  C_13
REMARK    6  A    between atoms: C_19  and  C_20
REMARK    7  A    between atoms: C_26  and  C_27
REMARK                            x       y       z     vdW  Elec       q    Type
REMARK                         _______ _______ _______ _____ _____    ______ ____
ROOT
ATOM      1  N   UNL     1      37.354   3.514  15.897  0.00  0.00    +0.000 NA
ATOM      2  C   UNL     1      37.941   4.132  17.022  0.00  0.00    +0.000 C 
ATOM      3  O   UNL     1      37.874   3.475  18.111  0.00  0.00    +0.000 OA
ENDROOT
BRANCH   1  10
ATOM      4  C   UNL     1      37.650  -1.333  17.273  0.00  0.00    +0.000 C 
ATOM      5  C   UNL     1      36.639  -2.388  16.527  0.00  0.00    +0.000 C 
ATOM      6  C   UNL     1      35.355  -2.010  17.458  0.00  0.00    +0.000 C 
ATOM      7  C   UNL     1      34.454  -1.066  16.806  0.00  0.00    +0.000 C 
ATOM      8  C   UNL     1      35.236   0.179  16.561  0.00  0.00    +0.000 A 
ATOM      9  S   UNL     1      35.342   1.828  16.954  0.00  0.00    +0.000 S 
ATOM     10  C   UNL     1      36.732   2.235  16.006  0.00  0.00    +0.000 A 
ATOM     11  C   UNL     1      37.049   1.046  15.421  0.00  0.00    +0.000 A 
ATOM     12  C   UNL     1      36.278  -0.018  15.706  0.00  0.00    +0.000 A 
ATOM     13  C   UNL     1      36.347  -1.434  15.242  0.00  0.00    +0.000 C 
BRANCH  11  14
ATOM     14  C   UNL     1      38.201   0.975  14.519  0.00  0.00    +0.000 C 
ATOM     15  N   UNL     1      39.135   0.915  13.808  0.00  0.00    +0.000 NA
ENDBRANCH  11  14
ENDBRANCH   1  10
BRANCH   2  16
ATOM     16  C   UNL     1      38.606   5.432  17.041  0.00  0.00    +0.000 C 
BRANCH  16  17
ATOM     17  C   UNL     1      38.752   6.116  15.734  0.00  0.00    +0.000 C 
BRANCH  17  18
ATOM     18  C   UNL     1      40.070   6.806  15.683  0.00  0.00    +0.000 A 
ATOM     19  C   UNL     1      40.156   8.154  15.404  0.00  0.00    +0.000 A 
ATOM     20  C   UNL     1      41.360   8.807  15.352  0.00  0.00    +0.000 A 
ATOM     21  C   UNL     1      42.533   8.119  15.582  0.00  0.00    +0.000 A 
ATOM     22  C   UNL     1      42.470   6.754  15.867  0.00  0.00    +0.000 A 
ATOM     23  C   UNL     1      41.246   6.119  15.913  0.00  0.00    +0.000 A 
ENDBRANCH  17  18
ENDBRANCH  16  17
BRANCH  16  24
ATOM     24  C   UNL     1      38.251   6.307  18.179  0.00  0.00    +0.000 C 
BRANCH  24  25
ATOM     25  C   UNL     1      39.424   6.832  18.919  0.00  0.00    +0.000 A 
ATOM     26  C   UNL     1      39.613   8.193  19.046  0.00  0.00    +0.000 A 
ATOM     27  C   UNL     1      40.711   8.707  19.739  0.00  0.00    +0.000 A 
ATOM     28  C   UNL     1      41.641   7.867  20.318  0.00  0.00    +0.000 A 
ATOM     29  C   UNL     1      41.459   6.501  20.196  0.00  0.00    +0.000 A 
ATOM     30  C   UNL     1      40.366   6.010  19.507  0.00  0.00    +0.000 A 
ENDBRANCH  24  25
ENDBRANCH  16  24
ENDBRANCH   2  16
TORSDOF 7
ENDMDL
MODEL 8
REMARK VINA RESULT:      -6.9      2.472      8.264
REMARK  Name = 
REMARK  7 active torsions:
REMARK  status: ('A' for Active; 'I' for Inactive)
REMARK    1  A    between atoms: C_7  and  N_8
REMARK    2  A    between atoms: C_9  and  C_11
REMARK    3  A    between atoms: C_11  and  C_12
REMARK    4  A    between atoms: C_11  and  C_19
REMARK    5  A    between atoms: C_12  and  C_13
REMARK    6  A    between atoms: C_19  and  C_20
REMARK    7  A    between atoms: C_26  and  C_27
REMARK                            x       y       z     vdW  Elec       q    Type
REMARK                         _______ _______ _______ _____ _____    ______ ____
ROOT
ATOM      1  N   UNL     1      37.942   4.200  16.648  0.00  0.00    +0.000 NA
ATOM      2  C   UNL     1      38.636   3.685  15.531  0.00  0.00    +0.000 C 
ATOM      3  O   UNL     1      39.686   4.322  15.192  0.00  0.00    +0.000 OA
ENDROOT
BRANCH   1  10
ATOM      4  C   UNL     1      36.909   8.480  19.115  0.00  0.00    +0.000 C 
ATOM      5  C   UNL     1      38.065   9.643  19.118  0.00  0.00    +0.000 C 
ATOM      6  C   UNL     1      38.937   8.949  20.308  0.00  0.00    +0.000 C 
ATOM      7  C   UNL     1      40.062   8.176  19.797  0.00  0.00    +0.000 C 
ATOM      8  C   UNL     1      39.491   7.094  18.945  0.00  0.00    +0.000 A 
ATOM      9  S   UNL     1      39.335   5.409  18.795  0.00  0.00    +0.000 S 
ATOM     10  C   UNL     1      38.413   5.361  17.330  0.00  0.00    +0.000 A 
ATOM     11  C   UNL     1      38.271   6.682  17.027  0.00  0.00    +0.000 A 
ATOM     12  C   UNL     1      38.826   7.579  17.859  0.00  0.00    +0.000 A 
ATOM     13  C   UNL     1      38.859   9.071  17.818  0.00  0.00    +0.000 C 
BRANCH  11  14
ATOM     14  C   UNL     1      37.528   7.066  15.824  0.00  0.00    +0.000 C 
ATOM     15  N   UNL     1      36.947   7.379  14.851  0.00  0.00    +0.000 NA
ENDBRANCH  11  14
ENDBRANCH   1  10
BRANCH   2  16
ATOM     16  C   UNL     1      38.260   2.511  14.751  0.00  0.00    +0.000 C 
BRANCH  16  17
ATOM     17  C   UNL     1      36.827   2.392  14.388  0.00  0.00    +0.000 C 
BRANCH  17  18
ATOM     18  C   UNL     1      36.183   1.366  15.251  0.00  0.00    +0.000 A 
ATOM     19  C   UNL     1      35.377   1.731  16.309  0.00  0.00    +0.000 A 
ATOM     20  C   UNL     1      34.775   0.801  17.117  0.00  0.00    +0.000 A 
ATOM     21  C   UNL     1      34.965  -0.545  16.885  0.00  0.00    +0.000 A 
ATOM     22  C   UNL     1      35.777  -0.939  15.820  0.00  0.00    +0.000 A 
ATOM     23  C   UNL     1      36.371   0.016  15.022  0.00  0.00    +0.000 A 
ENDBRANCH  17  18
ENDBRANCH  16  17
BRANCH  16  24
ATOM     24  C   UNL     1      39.217   2.122  13.693  0.00  0.00    +0.000 C 
BRANCH  24  25
ATOM     25  C   UNL     1      39.458   0.660  13.612  0.00  0.00    +0.000 A 
ATOM     26  C   UNL     1      40.046  -0.006  14.667  0.00  0.00    +0.000 A 
ATOM     27  C   UNL     1      40.281  -1.381  14.610  0.00  0.00    +0.000 A 
ATOM     28  C   UNL     1      39.933  -2.115  13.494  0.00  0.00    +0.000 A 
ATOM     29  C   UNL     1      39.343  -1.455  12.431  0.00  0.00    +0.000 A 
ATOM     30  C   UNL     1      39.117  -0.093  12.506  0.00  0.00    +0.000 A 
ENDBRANCH  24  25
ENDBRANCH  16  24
ENDBRANCH   2  16
TORSDOF 7
ENDMDL
MODEL 9
REMARK VINA RESULT:      -6.9      2.731      8.240
REMARK  Name = 
REMARK  7 active torsions:
REMARK  status: ('A' for Active; 'I' for Inactive)
REMARK    1  A    between atoms: C_7  and  N_8
REMARK    2  A    between atoms: C_9  and  C_11
REMARK    3  A    between atoms: C_11  and  C_12
REMARK    4  A    between atoms: C_11  and  C_19
REMARK    5  A    between atoms: C_12  and  C_13
REMARK    6  A    between atoms: C_19  and  C_20
REMARK    7  A    between atoms: C_26  and  C_27
REMARK                            x       y       z     vdW  Elec       q    Type
REMARK                         _______ _______ _______ _____ _____    ______ ____
ROOT
ATOM      1  N   UNL     1      36.484   0.614  13.618  0.00  0.00    +0.000 NA
ATOM      2  C   UNL     1      37.354  -0.087  14.481  0.00  0.00    +0.000 C 
ATOM      3  O   UNL     1      38.228   0.622  15.079  0.00  0.00    +0.000 OA
ENDROOT
BRANCH   1  10
ATOM      4  C   UNL     1      37.873   5.092  15.488  0.00  0.00    +0.000 C 
ATOM      5  C   UNL     1      37.139   6.423  14.871  0.00  0.00    +0.000 C 
ATOM      6  C   UNL     1      38.079   6.479  13.540  0.00  0.00    +0.000 C 
ATOM      7  C   UNL     1      37.432   5.884  12.376  0.00  0.00    +0.000 C 
ATOM      8  C   UNL     1      37.177   4.453  12.708  0.00  0.00    +0.000 A 
ATOM      9  S   UNL     1      37.564   2.857  12.273  0.00  0.00    +0.000 S 
ATOM     10  C   UNL     1      36.603   2.025  13.448  0.00  0.00    +0.000 A 
ATOM     11  C   UNL     1      36.019   3.050  14.131  0.00  0.00    +0.000 A 
ATOM     12  C   UNL     1      36.313   4.305  13.751  0.00  0.00    +0.000 A 
ATOM     13  C   UNL     1      35.853   5.624  14.274  0.00  0.00    +0.000 C 
BRANCH  11  14
ATOM     14  C   UNL     1      35.106   2.747  15.236  0.00  0.00    +0.000 C 
ATOM     15  N   UNL     1      34.372   2.488  16.117  0.00  0.00    +0.000 NA
ENDBRANCH  11  14
ENDBRANCH   1  10
BRANCH   2  16
ATOM     16  C   UNL     1      37.336  -1.523  14.742  0.00  0.00    +0.000 C 
BRANCH  16  17
ATOM     17  C   UNL     1      36.179  -2.038  15.513  0.00  0.00    +0.000 C 
BRANCH  17  18
ATOM     18  C   UNL     1      36.314  -1.625  16.937  0.00  0.00    +0.000 A 
ATOM     19  C   UNL     1      35.350  -0.849  17.546  0.00  0.00    +0.000 A 
ATOM     20  C   UNL     1      35.454  -0.458  18.856  0.00  0.00    +0.000 A 
ATOM     21  C   UNL     1      36.547  -0.839  19.607  0.00  0.00    +0.000 A 
ATOM     22  C   UNL     1      37.535  -1.624  19.012  0.00  0.00    +0.000 A 
ATOM     23  C   UNL     1      37.406  -2.005  17.693  0.00  0.00    +0.000 A 
ENDBRANCH  17  18
ENDBRANCH  16  17
BRANCH  16  24
ATOM     24  C   UNL     1      37.779  -2.375  13.618  0.00  0.00    +0.000 C 
BRANCH  24  25
ATOM     25  C   UNL     1      39.253  -2.489  13.497  0.00  0.00    +0.000 A 
ATOM     26  C   UNL     1      39.830  -2.767  12.275  0.00  0.00    +0.000 A 
ATOM     27  C   UNL     1      41.215  -2.878  12.141  0.00  0.00    +0.000 A 
ATOM     28  C   UNL     1      42.049  -2.712  13.228  0.00  0.00    +0.000 A 
ATOM     29  C   UNL     1      41.479  -2.433  14.457  0.00  0.00    +0.000 A 
ATOM     30  C   UNL     1      40.105  -2.326  14.571  0.00  0.00    +0.000 A 
ENDBRANCH  24  25
ENDBRANCH  16  24
ENDBRANCH   2  16
TORSDOF 7
ENDMDL
MODEL 10
REMARK VINA RESULT:      -6.9     22.457     24.628
REMARK  Name = 
REMARK  7 active torsions:
REMARK  status: ('A' for Active; 'I' for Inactive)
REMARK    1  A    between atoms: C_7  and  N_8
REMARK    2  A    between atoms: C_9  and  C_11
REMARK    3  A    between atoms: C_11  and  C_12
REMARK    4  A    between atoms: C_11  and  C_19
REMARK    5  A    between atoms: C_12  and  C_13
REMARK    6  A    between atoms: C_19  and  C_20
REMARK    7  A    between atoms: C_26  and  C_27
REMARK                            x       y       z     vdW  Elec       q    Type
REMARK                         _______ _______ _______ _____ _____    ______ ____
ROOT
ATOM      1  N   UNL     1      30.678  13.858  35.670  0.00  0.00    +0.000 NA
ATOM      2  C   UNL     1      30.028  14.908  36.355  0.00  0.00    +0.000 C 
ATOM      3  O   UNL     1      30.626  15.343  37.393  0.00  0.00    +0.000 OA
ENDROOT
BRANCH   1  10
ATOM      4  C   UNL     1      35.167  14.678  37.826  0.00  0.00    +0.000 C 
ATOM      5  C   UNL     1      36.361  13.600  37.507  0.00  0.00    +0.000 C 
ATOM      6  C   UNL     1      35.832  12.503  38.591  0.00  0.00    +0.000 C 
ATOM      7  C   UNL     1      35.045  11.443  37.973  0.00  0.00    +0.000 C 
ATOM      8  C   UNL     1      33.857  12.094  37.350  0.00  0.00    +0.000 A 
ATOM      9  S   UNL     1      32.162  12.185  37.403  0.00  0.00    +0.000 S 
ATOM     10  C   UNL     1      31.922  13.340  36.136  0.00  0.00    +0.000 A 
ATOM     11  C   UNL     1      33.196  13.600  35.728  0.00  0.00    +0.000 A 
ATOM     12  C   UNL     1      34.198  12.959  36.353  0.00  0.00    +0.000 A 
ATOM     13  C   UNL     1      35.675  13.011  36.154  0.00  0.00    +0.000 C 
BRANCH  11  14
ATOM     14  C   UNL     1      33.420  14.556  34.641  0.00  0.00    +0.000 C 
ATOM     15  N   UNL     1      33.616  15.321  33.770  0.00  0.00    +0.000 NA
ENDBRANCH  11  14
ENDBRANCH   1  10
BRANCH   2  16
ATOM     16  C   UNL     1      28.758  15.524  35.982  0.00  0.00    +0.000 C 
BRANCH  16  17
ATOM     17  C   UNL     1      28.174  16.471  36.963  0.00  0.00    +0.000 C 
BRANCH  17  18
ATOM     18  C   UNL     1      27.006  15.831  37.629  0.00  0.00    +0.000 A 
ATOM     19  C   UNL     1      25.722  16.049  37.175  0.00  0.00    +0.000 A 
ATOM     20  C   UNL     1      24.634  15.470  37.774  0.00  0.00    +0.000 A 
ATOM     21  C   UNL     1      24.801  14.642  38.864  0.00  0.00    +0.000 A 
ATOM     22  C   UNL     1      26.092  14.406  39.341  0.00  0.00    +0.000 A 
ATOM     23  C   UNL     1      27.171  15.000  38.720  0.00  0.00    +0.000 A 
ENDBRANCH  17  18
ENDBRANCH  16  17
BRANCH  16  24
ATOM     24  C   UNL     1      28.643  15.927  34.564  0.00  0.00    +0.000 C 
BRANCH  24  25
ATOM     25  C   UNL     1      27.263  15.842  34.028  0.00  0.00    +0.000 A 
ATOM     26  C   UNL     1      26.561  16.993  33.731  0.00  0.00    +0.000 A 
ATOM     27  C   UNL     1      25.261  16.934  33.226  0.00  0.00    +0.000 A 
ATOM     28  C   UNL     1      24.638  15.721  33.008  0.00  0.00    +0.000 A 
ATOM     29  C   UNL     1      25.335  14.563  33.303  0.00  0.00    +0.000 A 
ATOM     30  C   UNL     1      26.622  14.641  33.802  0.00  0.00    +0.000 A 
ENDBRANCH  24  25
ENDBRANCH  16  24
ENDBRANCH   2  16
TORSDOF 7
ENDMDL
