MODEL 1
REMARK VINA RESULT:      -8.7      0.000      0.000
REMARK  Name = 
REMARK  7 active torsions:
REMARK  status: ('A' for Active; 'I' for Inactive)
REMARK    1  A    between atoms: C_5  and  C_6
REMARK    2  A    between atoms: C_9  and  S_10
REMARK    3  A    between atoms: S_10  and  C_11
REMARK    4  A    between atoms: C_11  and  C_12
REMARK    5  A    between atoms: C_16  and  C_17
REMARK    6  A    between atoms: N_19  and  C_20
REMARK    7  A    between atoms: C_20  and  C_22
REMARK                            x       y       z     vdW  Elec       q    Type
REMARK                         _______ _______ _______ _____ _____    ______ ____
ROOT
ATOM      1  C   UNL     1      40.435   1.029  13.569  0.00  0.00    +0.000 C 
ENDROOT
BRANCH   1   2
ATOM      2  C   UNL     1      40.369  -0.278  14.226  0.00  0.00    +0.000 A 
ATOM      3  C   UNL     1      41.360  -1.187  14.022  0.00  0.00    +0.000 A 
ATOM      4  C   UNL     1      41.368  -2.439  14.618  0.00  0.00    +0.000 A 
ATOM      5  C   UNL     1      40.303  -2.731  15.450  0.00  0.00    +0.000 A 
ATOM      6  C   UNL     1      39.275  -1.845  15.688  0.00  0.00    +0.000 A 
ATOM      7  C   UNL     1      39.332  -0.607  15.054  0.00  0.00    +0.000 A 
BRANCH   6   8
ATOM      8  C   UNL     1      38.169  -2.212  16.589  0.00  0.00    +0.000 C 
ATOM      9  O   UNL     1      37.936  -3.433  16.745  0.00  0.00    +0.000 OA
ATOM     10  N   UNL     1      37.371  -1.268  17.275  0.00  0.00    +0.000 NA
BRANCH  10  11
ATOM     11  C   UNL     1      36.281  -2.003  18.152  0.00  0.00    +0.000 C 
ATOM     12  C   UNL     1      37.066  -1.634  19.584  0.00  0.00    +0.000 C 
BRANCH  11  13
ATOM     13  C   UNL     1      35.318  -0.651  18.266  0.00  0.00    +0.000 C 
ATOM     14  C   UNL     1      35.243  -0.261  16.779  0.00  0.00    +0.000 C 
ATOM     15  C   UNL     1      36.305   0.279  18.959  0.00  0.00    +0.000 C 
ENDBRANCH  11  13
ENDBRANCH  10  11
ENDBRANCH   6   8
ENDBRANCH   1   2
BRANCH   1  16
ATOM     16  S   UNL     1      38.879   1.874  13.739  0.00  0.00    +0.000 S 
BRANCH  16  20
ATOM     17  C   UNL     1      38.894   5.199  16.934  0.00  0.00    +0.000 A 
ATOM     18  C   UNL     1      39.637   5.336  15.785  0.00  0.00    +0.000 A 
ATOM     19  C   UNL     1      39.652   4.341  14.793  0.00  0.00    +0.000 A 
ATOM     20  C   UNL     1      38.912   3.190  14.954  0.00  0.00    +0.000 A 
ATOM     21  N   UNL     1      38.208   3.118  16.099  0.00  0.00    +0.000 NA
ATOM     22  N   UNL     1      38.196   4.057  17.031  0.00  0.00    +0.000 NA
BRANCH  17  27
ATOM     23  C   UNL     1      38.673   9.094  21.168  0.00  0.00    +0.000 C 
ATOM     24  C   UNL     1      38.722   8.091  20.070  0.00  0.00    +0.000 A 
ATOM     25  C   UNL     1      39.584   7.043  20.138  0.00  0.00    +0.000 A 
ATOM     26  C   UNL     1      39.639   6.101  19.117  0.00  0.00    +0.000 A 
ATOM     27  C   UNL     1      38.834   6.191  18.007  0.00  0.00    +0.000 A 
ATOM     28  C   UNL     1      37.973   7.264  17.967  0.00  0.00    +0.000 A 
ATOM     29  C   UNL     1      37.892   8.214  18.959  0.00  0.00    +0.000 A 
ENDBRANCH  17  27
ENDBRANCH  16  20
ENDBRANCH   1  16
TORSDOF 7
ENDMDL
MODEL 2
REMARK VINA RESULT:      -8.4      2.042      4.475
REMARK  Name = 
REMARK  7 active torsions:
REMARK  status: ('A' for Active; 'I' for Inactive)
REMARK    1  A    between atoms: C_5  and  C_6
REMARK    2  A    between atoms: C_9  and  S_10
REMARK    3  A    between atoms: S_10  and  C_11
REMARK    4  A    between atoms: C_11  and  C_12
REMARK    5  A    between atoms: C_16  and  C_17
REMARK    6  A    between atoms: N_19  and  C_20
REMARK    7  A    between atoms: C_20  and  C_22
REMARK                            x       y       z     vdW  Elec       q    Type
REMARK                         _______ _______ _______ _____ _____    ______ ____
ROOT
ATOM      1  C   UNL     1      34.835   1.944  16.433  0.00  0.00    +0.000 C 
ENDROOT
BRANCH   1   2
ATOM      2  C   UNL     1      35.105   0.505  16.400  0.00  0.00    +0.000 A 
ATOM      3  C   UNL     1      34.448  -0.326  17.253  0.00  0.00    +0.000 A 
ATOM      4  C   UNL     1      34.646  -1.698  17.270  0.00  0.00    +0.000 A 
ATOM      5  C   UNL     1      35.559  -2.199  16.361  0.00  0.00    +0.000 A 
ATOM      6  C   UNL     1      36.250  -1.399  15.476  0.00  0.00    +0.000 A 
ATOM      7  C   UNL     1      36.002  -0.030  15.516  0.00  0.00    +0.000 A 
BRANCH   6   8
ATOM      8  C   UNL     1      37.207  -1.992  14.526  0.00  0.00    +0.000 C 
ATOM      9  O   UNL     1      36.871  -3.060  13.964  0.00  0.00    +0.000 OA
ATOM     10  N   UNL     1      38.465  -1.424  14.223  0.00  0.00    +0.000 NA
BRANCH  10  11
ATOM     11  C   UNL     1      39.232  -2.316  13.169  0.00  0.00    +0.000 C 
ATOM     12  C   UNL     1      39.436  -1.035  12.110  0.00  0.00    +0.000 C 
BRANCH  11  13
ATOM     13  C   UNL     1      40.716  -2.044  13.872  0.00  0.00    +0.000 C 
ATOM     14  C   UNL     1      40.549  -2.873  15.158  0.00  0.00    +0.000 C 
ATOM     15  C   UNL     1      40.542  -0.573  14.220  0.00  0.00    +0.000 C 
ENDBRANCH  11  13
ENDBRANCH  10  11
ENDBRANCH   6   8
ENDBRANCH   1   2
BRANCH   1  16
ATOM     16  S   UNL     1      35.899   2.790  15.286  0.00  0.00    +0.000 S 
BRANCH  16  20
ATOM     17  C   UNL     1      39.213   5.175  17.428  0.00  0.00    +0.000 A 
ATOM     18  C   UNL     1      38.930   5.414  16.104  0.00  0.00    +0.000 A 
ATOM     19  C   UNL     1      37.925   4.704  15.425  0.00  0.00    +0.000 A 
ATOM     20  C   UNL     1      37.193   3.740  16.081  0.00  0.00    +0.000 A 
ATOM     21  N   UNL     1      37.520   3.554  17.373  0.00  0.00    +0.000 NA
ATOM     22  N   UNL     1      38.466   4.224  18.009  0.00  0.00    +0.000 NA
BRANCH  17  27
ATOM     23  C   UNL     1      43.287   7.920  20.432  0.00  0.00    +0.000 C 
ATOM     24  C   UNL     1      42.229   7.208  19.664  0.00  0.00    +0.000 A 
ATOM     25  C   UNL     1      42.398   6.954  18.340  0.00  0.00    +0.000 A 
ATOM     26  C   UNL     1      41.417   6.291  17.612  0.00  0.00    +0.000 A 
ATOM     27  C   UNL     1      40.245   5.871  18.195  0.00  0.00    +0.000 A 
ATOM     28  C   UNL     1      40.103   6.145  19.537  0.00  0.00    +0.000 A 
ATOM     29  C   UNL     1      41.054   6.798  20.287  0.00  0.00    +0.000 A 
ENDBRANCH  17  27
ENDBRANCH  16  20
ENDBRANCH   1  16
TORSDOF 7
ENDMDL
MODEL 3
REMARK VINA RESULT:      -8.1      2.928      4.394
REMARK  Name = 
REMARK  7 active torsions:
REMARK  status: ('A' for Active; 'I' for Inactive)
REMARK    1  A    between atoms: C_5  and  C_6
REMARK    2  A    between atoms: C_9  and  S_10
REMARK    3  A    between atoms: S_10  and  C_11
REMARK    4  A    between atoms: C_11  and  C_12
REMARK    5  A    between atoms: C_16  and  C_17
REMARK    6  A    between atoms: N_19  and  C_20
REMARK    7  A    between atoms: C_20  and  C_22
REMARK                            x       y       z     vdW  Elec       q    Type
REMARK                         _______ _______ _______ _____ _____    ______ ____
ROOT
ATOM      1  C   UNL     1      34.996   2.426  16.221  0.00  0.00    +0.000 C 
ENDROOT
BRANCH   1   2
ATOM      2  C   UNL     1      35.278   1.103  16.780  0.00  0.00    +0.000 A 
ATOM      3  C   UNL     1      35.387   0.948  18.127  0.00  0.00    +0.000 A 
ATOM      4  C   UNL     1      35.642  -0.276  18.726  0.00  0.00    +0.000 A 
ATOM      5  C   UNL     1      35.784  -1.359  17.877  0.00  0.00    +0.000 A 
ATOM      6  C   UNL     1      35.683  -1.253  16.507  0.00  0.00    +0.000 A 
ATOM      7  C   UNL     1      35.426   0.007  15.975  0.00  0.00    +0.000 A 
BRANCH   6   8
ATOM      8  C   UNL     1      35.838  -2.445  15.654  0.00  0.00    +0.000 C 
ATOM      9  O   UNL     1      36.905  -2.553  15.008  0.00  0.00    +0.000 OA
ATOM     10  N   UNL     1      34.856  -3.454  15.533  0.00  0.00    +0.000 NA
BRANCH  10  11
ATOM     11  C   UNL     1      35.347  -4.582  14.541  0.00  0.00    +0.000 C 
ATOM     12  C   UNL     1      35.441  -5.727  15.758  0.00  0.00    +0.000 C 
BRANCH  11  13
ATOM     13  C   UNL     1      33.798  -5.047  14.147  0.00  0.00    +0.000 C 
ATOM     14  C   UNL     1      33.045  -4.508  15.376  0.00  0.00    +0.000 C 
ATOM     15  C   UNL     1      33.961  -6.552  14.303  0.00  0.00    +0.000 C 
ENDBRANCH  11  13
ENDBRANCH  10  11
ENDBRANCH   6   8
ENDBRANCH   1   2
BRANCH   1  16
ATOM     16  S   UNL     1      36.345   2.951  15.188  0.00  0.00    +0.000 S 
BRANCH  16  20
ATOM     17  C   UNL     1      39.514   5.335  17.541  0.00  0.00    +0.000 A 
ATOM     18  C   UNL     1      39.393   5.494  16.181  0.00  0.00    +0.000 A 
ATOM     19  C   UNL     1      38.437   4.783  15.437  0.00  0.00    +0.000 A 
ATOM     20  C   UNL     1      37.588   3.898  16.064  0.00  0.00    +0.000 A 
ATOM     21  N   UNL     1      37.758   3.788  17.395  0.00  0.00    +0.000 NA
ATOM     22  N   UNL     1      38.660   4.459  18.092  0.00  0.00    +0.000 NA
BRANCH  17  27
ATOM     23  C   UNL     1      43.357   8.105  20.814  0.00  0.00    +0.000 C 
ATOM     24  C   UNL     1      42.358   7.388  19.976  0.00  0.00    +0.000 A 
ATOM     25  C   UNL     1      42.665   7.027  18.703  0.00  0.00    +0.000 A 
ATOM     26  C   UNL     1      41.740   6.358  17.910  0.00  0.00    +0.000 A 
ATOM     27  C   UNL     1      40.486   6.039  18.377  0.00  0.00    +0.000 A 
ATOM     28  C   UNL     1      40.205   6.419  19.669  0.00  0.00    +0.000 A 
ATOM     29  C   UNL     1      41.098   7.081  20.481  0.00  0.00    +0.000 A 
ENDBRANCH  17  27
ENDBRANCH  16  20
ENDBRANCH   1  16
TORSDOF 7
ENDMDL
MODEL 4
REMARK VINA RESULT:      -7.8      2.477      4.240
REMARK  Name = 
REMARK  7 active torsions:
REMARK  status: ('A' for Active; 'I' for Inactive)
REMARK    1  A    between atoms: C_5  and  C_6
REMARK    2  A    between atoms: C_9  and  S_10
REMARK    3  A    between atoms: S_10  and  C_11
REMARK    4  A    between atoms: C_11  and  C_12
REMARK    5  A    between atoms: C_16  and  C_17
REMARK    6  A    between atoms: N_19  and  C_20
REMARK    7  A    between atoms: C_20  and  C_22
REMARK                            x       y       z     vdW  Elec       q    Type
REMARK                         _______ _______ _______ _____ _____    ______ ____
ROOT
ATOM      1  C   UNL     1      36.883   3.260  13.149  0.00  0.00    +0.000 C 
ENDROOT
BRANCH   1   2
ATOM      2  C   UNL     1      36.238   2.659  14.317  0.00  0.00    +0.000 A 
ATOM      3  C   UNL     1      35.088   3.197  14.805  0.00  0.00    +0.000 A 
ATOM      4  C   UNL     1      34.417   2.675  15.901  0.00  0.00    +0.000 A 
ATOM      5  C   UNL     1      34.978   1.556  16.489  0.00  0.00    +0.000 A 
ATOM      6  C   UNL     1      36.141   0.974  16.032  0.00  0.00    +0.000 A 
ATOM      7  C   UNL     1      36.761   1.553  14.928  0.00  0.00    +0.000 A 
BRANCH   6   8
ATOM      8  C   UNL     1      36.687  -0.222  16.697  0.00  0.00    +0.000 C 
ATOM      9  O   UNL     1      36.813  -0.178  17.943  0.00  0.00    +0.000 OA
ATOM     10  N   UNL     1      37.068  -1.396  16.010  0.00  0.00    +0.000 NA
BRANCH  10  11
ATOM     11  C   UNL     1      37.609  -2.477  17.027  0.00  0.00    +0.000 C 
ATOM     12  C   UNL     1      36.374  -3.550  16.672  0.00  0.00    +0.000 C 
BRANCH  11  13
ATOM     13  C   UNL     1      38.616  -3.177  15.900  0.00  0.00    +0.000 C 
ATOM     14  C   UNL     1      39.614  -2.024  15.694  0.00  0.00    +0.000 C 
ATOM     15  C   UNL     1      37.657  -3.201  14.717  0.00  0.00    +0.000 C 
ENDBRANCH  11  13
ENDBRANCH  10  11
ENDBRANCH   6   8
ENDBRANCH   1   2
BRANCH   1  16
ATOM     16  S   UNL     1      37.177   4.990  13.439  0.00  0.00    +0.000 S 
BRANCH  16  20
ATOM     17  C   UNL     1      39.948   5.853  17.022  0.00  0.00    +0.000 A 
ATOM     18  C   UNL     1      38.701   5.310  17.223  0.00  0.00    +0.000 A 
ATOM     19  C   UNL     1      37.835   5.035  16.151  0.00  0.00    +0.000 A 
ATOM     20  C   UNL     1      38.223   5.308  14.858  0.00  0.00    +0.000 A 
ATOM     21  N   UNL     1      39.453   5.838  14.730  0.00  0.00    +0.000 NA
ATOM     22  N   UNL     1      40.266   6.096  15.741  0.00  0.00    +0.000 NA
BRANCH  17  27
ATOM     23  C   UNL     1      43.705   7.095  21.205  0.00  0.00    +0.000 C 
ATOM     24  C   UNL     1      42.728   6.771  20.130  0.00  0.00    +0.000 A 
ATOM     25  C   UNL     1      43.107   6.804  18.826  0.00  0.00    +0.000 A 
ATOM     26  C   UNL     1      42.203   6.505  17.814  0.00  0.00    +0.000 A 
ATOM     27  C   UNL     1      40.899   6.167  18.088  0.00  0.00    +0.000 A 
ATOM     28  C   UNL     1      40.544   6.143  19.417  0.00  0.00    +0.000 A 
ATOM     29  C   UNL     1      41.414   6.433  20.444  0.00  0.00    +0.000 A 
ENDBRANCH  17  27
ENDBRANCH  16  20
ENDBRANCH   1  16
TORSDOF 7
ENDMDL
MODEL 5
REMARK VINA RESULT:      -7.7      2.143      2.672
REMARK  Name = 
REMARK  7 active torsions:
REMARK  status: ('A' for Active; 'I' for Inactive)
REMARK    1  A    between atoms: C_5  and  C_6
REMARK    2  A    between atoms: C_9  and  S_10
REMARK    3  A    between atoms: S_10  and  C_11
REMARK    4  A    between atoms: C_11  and  C_12
REMARK    5  A    between atoms: C_16  and  C_17
REMARK    6  A    between atoms: N_19  and  C_20
REMARK    7  A    between atoms: C_20  and  C_22
REMARK                            x       y       z     vdW  Elec       q    Type
REMARK                         _______ _______ _______ _____ _____    ______ ____
ROOT
ATOM      1  C   UNL     1      36.867   2.909  12.858  0.00  0.00    +0.000 C 
ENDROOT
BRANCH   1   2
ATOM      2  C   UNL     1      37.249   1.500  12.973  0.00  0.00    +0.000 A 
ATOM      3  C   UNL     1      37.920   0.897  11.955  0.00  0.00    +0.000 A 
ATOM      4  C   UNL     1      38.322  -0.429  11.999  0.00  0.00    +0.000 A 
ATOM      5  C   UNL     1      38.006  -1.130  13.149  0.00  0.00    +0.000 A 
ATOM      6  C   UNL     1      37.328  -0.564  14.207  0.00  0.00    +0.000 A 
ATOM      7  C   UNL     1      36.955   0.772  14.093  0.00  0.00    +0.000 A 
BRANCH   6   8
ATOM      8  C   UNL     1      37.026  -1.360  15.409  0.00  0.00    +0.000 C 
ATOM      9  O   UNL     1      37.074  -2.608  15.298  0.00  0.00    +0.000 OA
ATOM     10  N   UNL     1      36.689  -0.795  16.659  0.00  0.00    +0.000 NA
BRANCH  10  11
ATOM     11  C   UNL     1      36.428  -1.932  17.725  0.00  0.00    +0.000 C 
ATOM     12  C   UNL     1      37.647  -1.382  18.732  0.00  0.00    +0.000 C 
BRANCH  11  13
ATOM     13  C   UNL     1      35.279  -1.043  18.537  0.00  0.00    +0.000 C 
ATOM     14  C   UNL     1      34.158  -1.045  17.483  0.00  0.00    +0.000 C 
ATOM     15  C   UNL     1      35.969   0.313  18.504  0.00  0.00    +0.000 C 
ENDBRANCH  11  13
ENDBRANCH  10  11
ENDBRANCH   6   8
ENDBRANCH   1   2
BRANCH   1  16
ATOM     16  S   UNL     1      36.177   3.479  14.395  0.00  0.00    +0.000 S 
BRANCH  16  20
ATOM     17  C   UNL     1      39.259   5.422  17.221  0.00  0.00    +0.000 A 
ATOM     18  C   UNL     1      38.884   6.056  16.060  0.00  0.00    +0.000 A 
ATOM     19  C   UNL     1      37.947   5.490  15.180  0.00  0.00    +0.000 A 
ATOM     20  C   UNL     1      37.376   4.270  15.466  0.00  0.00    +0.000 A 
ATOM     21  N   UNL     1      37.785   3.702  16.616  0.00  0.00    +0.000 NA
ATOM     22  N   UNL     1      38.668   4.238  17.442  0.00  0.00    +0.000 NA
BRANCH  17  27
ATOM     23  C   UNL     1      43.091   7.504  20.980  0.00  0.00    +0.000 C 
ATOM     24  C   UNL     1      42.095   6.964  20.016  0.00  0.00    +0.000 A 
ATOM     25  C   UNL     1      42.437   6.765  18.716  0.00  0.00    +0.000 A 
ATOM     26  C   UNL     1      41.514   6.263  17.806  0.00  0.00    +0.000 A 
ATOM     27  C   UNL     1      40.228   5.951  18.180  0.00  0.00    +0.000 A 
ATOM     28  C   UNL     1      39.912   6.164  19.502  0.00  0.00    +0.000 A 
ATOM     29  C   UNL     1      40.801   6.659  20.429  0.00  0.00    +0.000 A 
ENDBRANCH  17  27
ENDBRANCH  16  20
ENDBRANCH   1  16
TORSDOF 7
ENDMDL
MODEL 6
REMARK VINA RESULT:      -7.6      4.201      9.254
REMARK  Name = 
REMARK  7 active torsions:
REMARK  status: ('A' for Active; 'I' for Inactive)
REMARK    1  A    between atoms: C_5  and  C_6
REMARK    2  A    between atoms: C_9  and  S_10
REMARK    3  A    between atoms: S_10  and  C_11
REMARK    4  A    between atoms: C_11  and  C_12
REMARK    5  A    between atoms: C_16  and  C_17
REMARK    6  A    between atoms: N_19  and  C_20
REMARK    7  A    between atoms: C_20  and  C_22
REMARK                            x       y       z     vdW  Elec       q    Type
REMARK                         _______ _______ _______ _____ _____    ______ ____
ROOT
ATOM      1  C   UNL     1      40.400   5.898  15.950  0.00  0.00    +0.000 C 
ENDROOT
BRANCH   1   2
ATOM      2  C   UNL     1      40.458   6.163  17.389  0.00  0.00    +0.000 A 
ATOM      3  C   UNL     1      39.305   6.305  18.096  0.00  0.00    +0.000 A 
ATOM      4  C   UNL     1      39.284   6.547  19.461  0.00  0.00    +0.000 A 
ATOM      5  C   UNL     1      40.512   6.638  20.089  0.00  0.00    +0.000 A 
ATOM      6  C   UNL     1      41.708   6.501  19.417  0.00  0.00    +0.000 A 
ATOM      7  C   UNL     1      41.653   6.261  18.047  0.00  0.00    +0.000 A 
BRANCH   6   8
ATOM      8  C   UNL     1      42.986   6.602  20.142  0.00  0.00    +0.000 C 
ATOM      9  O   UNL     1      43.961   7.086  19.522  0.00  0.00    +0.000 OA
ATOM     10  N   UNL     1      43.162   6.186  21.481  0.00  0.00    +0.000 NA
BRANCH  10  11
ATOM     11  C   UNL     1      44.652   6.437  21.944  0.00  0.00    +0.000 C 
ATOM     12  C   UNL     1      44.179   6.979  23.455  0.00  0.00    +0.000 C 
BRANCH  11  13
ATOM     13  C   UNL     1      44.846   4.881  22.500  0.00  0.00    +0.000 C 
ATOM     14  C   UNL     1      45.255   5.175  23.954  0.00  0.00    +0.000 C 
ATOM     15  C   UNL     1      46.095   4.507  21.714  0.00  0.00    +0.000 C 
ENDBRANCH  11  13
ENDBRANCH  10  11
ENDBRANCH   6   8
ENDBRANCH   1   2
BRANCH   1  16
ATOM     16  S   UNL     1      38.709   5.889  15.401  0.00  0.00    +0.000 S 
BRANCH  16  20
ATOM     17  C   UNL     1      36.887   1.653  15.471  0.00  0.00    +0.000 A 
ATOM     18  C   UNL     1      36.075   2.758  15.365  0.00  0.00    +0.000 A 
ATOM     19  C   UNL     1      36.600   4.060  15.340  0.00  0.00    +0.000 A 
ATOM     20  C   UNL     1      37.960   4.261  15.422  0.00  0.00    +0.000 A 
ATOM     21  N   UNL     1      38.699   3.141  15.524  0.00  0.00    +0.000 NA
ATOM     22  N   UNL     1      38.201   1.915  15.548  0.00  0.00    +0.000 NA
BRANCH  17  27
ATOM     23  C   UNL     1      34.994  -3.782  15.625  0.00  0.00    +0.000 C 
ATOM     24  C   UNL     1      35.490  -2.380  15.579  0.00  0.00    +0.000 A 
ATOM     25  C   UNL     1      35.032  -1.462  16.469  0.00  0.00    +0.000 A 
ATOM     26  C   UNL     1      35.487  -0.149  16.434  0.00  0.00    +0.000 A 
ATOM     27  C   UNL     1      36.410   0.272  15.506  0.00  0.00    +0.000 A 
ATOM     28  C   UNL     1      36.854  -0.681  14.618  0.00  0.00    +0.000 A 
ATOM     29  C   UNL     1      36.425  -1.989  14.625  0.00  0.00    +0.000 A 
ENDBRANCH  17  27
ENDBRANCH  16  20
ENDBRANCH   1  16
TORSDOF 7
ENDMDL
MODEL 7
REMARK VINA RESULT:      -7.6      2.041      2.291
REMARK  Name = 
REMARK  7 active torsions:
REMARK  status: ('A' for Active; 'I' for Inactive)
REMARK    1  A    between atoms: C_5  and  C_6
REMARK    2  A    between atoms: C_9  and  S_10
REMARK    3  A    between atoms: S_10  and  C_11
REMARK    4  A    between atoms: C_11  and  C_12
REMARK    5  A    between atoms: C_16  and  C_17
REMARK    6  A    between atoms: N_19  and  C_20
REMARK    7  A    between atoms: C_20  and  C_22
REMARK                            x       y       z     vdW  Elec       q    Type
REMARK                         _______ _______ _______ _____ _____    ______ ____
ROOT
ATOM      1  C   UNL     1      38.703   0.826  11.374  0.00  0.00    +0.000 C 
ENDROOT
BRANCH   1   2
ATOM      2  C   UNL     1      38.576  -0.450  12.080  0.00  0.00    +0.000 A 
ATOM      3  C   UNL     1      39.415  -1.477  11.777  0.00  0.00    +0.000 A 
ATOM      4  C   UNL     1      39.359  -2.709  12.411  0.00  0.00    +0.000 A 
ATOM      5  C   UNL     1      38.393  -2.853  13.389  0.00  0.00    +0.000 A 
ATOM      6  C   UNL     1      37.520  -1.843  13.733  0.00  0.00    +0.000 A 
ATOM      7  C   UNL     1      37.633  -0.634  13.054  0.00  0.00    +0.000 A 
BRANCH   6   8
ATOM      8  C   UNL     1      36.514  -2.056  14.789  0.00  0.00    +0.000 C 
ATOM      9  O   UNL     1      35.784  -3.069  14.692  0.00  0.00    +0.000 OA
ATOM     10  N   UNL     1      36.337  -1.185  15.888  0.00  0.00    +0.000 NA
BRANCH  10  11
ATOM     11  C   UNL     1      35.178  -1.711  16.825  0.00  0.00    +0.000 C 
ATOM     12  C   UNL     1      36.245  -2.158  18.034  0.00  0.00    +0.000 C 
BRANCH  11  13
ATOM     13  C   UNL     1      34.928  -0.218  17.519  0.00  0.00    +0.000 C 
ATOM     14  C   UNL     1      35.312   0.686  16.334  0.00  0.00    +0.000 C 
ATOM     15  C   UNL     1      36.083  -0.229  18.511  0.00  0.00    +0.000 C 
ENDBRANCH  11  13
ENDBRANCH  10  11
ENDBRANCH   6   8
ENDBRANCH   1   2
BRANCH   1  16
ATOM     16  S   UNL     1      37.521   1.993  12.009  0.00  0.00    +0.000 S 
BRANCH  16  20
ATOM     17  C   UNL     1      39.100   4.464  15.567  0.00  0.00    +0.000 A 
ATOM     18  C   UNL     1      39.365   4.857  14.276  0.00  0.00    +0.000 A 
ATOM     19  C   UNL     1      38.896   4.125  13.172  0.00  0.00    +0.000 A 
ATOM     20  C   UNL     1      38.152   2.983  13.363  0.00  0.00    +0.000 A 
ATOM     21  N   UNL     1      37.929   2.653  14.648  0.00  0.00    +0.000 NA
ATOM     22  N   UNL     1      38.371   3.344  15.686  0.00  0.00    +0.000 NA
BRANCH  17  27
ATOM     23  C   UNL     1      40.886   7.250  20.279  0.00  0.00    +0.000 C 
ATOM     24  C   UNL     1      40.430   6.534  19.056  0.00  0.00    +0.000 A 
ATOM     25  C   UNL     1      39.318   5.755  19.092  0.00  0.00    +0.000 A 
ATOM     26  C   UNL     1      38.885   5.081  17.957  0.00  0.00    +0.000 A 
ATOM     27  C   UNL     1      39.558   5.174  16.761  0.00  0.00    +0.000 A 
ATOM     28  C   UNL     1      40.681   5.969  16.757  0.00  0.00    +0.000 A 
ATOM     29  C   UNL     1      41.137   6.650  17.863  0.00  0.00    +0.000 A 
ENDBRANCH  17  27
ENDBRANCH  16  20
ENDBRANCH   1  16
TORSDOF 7
ENDMDL
MODEL 8
REMARK VINA RESULT:      -7.4      3.099      7.581
REMARK  Name = 
REMARK  7 active torsions:
REMARK  status: ('A' for Active; 'I' for Inactive)
REMARK    1  A    between atoms: C_5  and  C_6
REMARK    2  A    between atoms: C_9  and  S_10
REMARK    3  A    between atoms: S_10  and  C_11
REMARK    4  A    between atoms: C_11  and  C_12
REMARK    5  A    between atoms: C_16  and  C_17
REMARK    6  A    between atoms: N_19  and  C_20
REMARK    7  A    between atoms: C_20  and  C_22
REMARK                            x       y       z     vdW  Elec       q    Type
REMARK                         _______ _______ _______ _____ _____    ______ ____
ROOT
ATOM      1  C   UNL     1      34.491  -2.721  16.409  0.00  0.00    +0.000 C 
ENDROOT
BRANCH   1   2
ATOM      2  C   UNL     1      35.071  -1.563  17.092  0.00  0.00    +0.000 A 
ATOM      3  C   UNL     1      35.479  -1.676  18.385  0.00  0.00    +0.000 A 
ATOM      4  C   UNL     1      36.046  -0.626  19.090  0.00  0.00    +0.000 A 
ATOM      5  C   UNL     1      36.185   0.569  18.408  0.00  0.00    +0.000 A 
ATOM      6  C   UNL     1      35.789   0.733  17.099  0.00  0.00    +0.000 A 
ATOM      7  C   UNL     1      35.226  -0.364  16.453  0.00  0.00    +0.000 A 
BRANCH   6   8
ATOM      8  C   UNL     1      35.968   2.030  16.423  0.00  0.00    +0.000 C 
ATOM      9  O   UNL     1      34.993   2.816  16.420  0.00  0.00    +0.000 OA
ATOM     10  N   UNL     1      37.168   2.423  15.789  0.00  0.00    +0.000 NA
BRANCH  10  11
ATOM     11  C   UNL     1      37.015   3.869  15.169  0.00  0.00    +0.000 C 
ATOM     12  C   UNL     1      38.146   4.526  16.213  0.00  0.00    +0.000 C 
BRANCH  11  13
ATOM     13  C   UNL     1      38.169   3.598  14.000  0.00  0.00    +0.000 C 
ATOM     14  C   UNL     1      37.647   2.268  13.426  0.00  0.00    +0.000 C 
ATOM     15  C   UNL     1      39.353   3.299  14.909  0.00  0.00    +0.000 C 
ENDBRANCH  11  13
ENDBRANCH  10  11
ENDBRANCH   6   8
ENDBRANCH   1   2
BRANCH   1  16
ATOM     16  S   UNL     1      35.772  -3.871  15.965  0.00  0.00    +0.000 S 
BRANCH  16  20
ATOM     17  C   UNL     1      39.723  -1.792  14.809  0.00  0.00    +0.000 A 
ATOM     18  C   UNL     1      39.647  -2.555  15.951  0.00  0.00    +0.000 A 
ATOM     19  C   UNL     1      38.458  -3.201  16.328  0.00  0.00    +0.000 A 
ATOM     20  C   UNL     1      37.327  -3.082  15.551  0.00  0.00    +0.000 A 
ATOM     21  N   UNL     1      37.467  -2.322  14.449  0.00  0.00    +0.000 NA
ATOM     22  N   UNL     1      38.588  -1.715  14.097  0.00  0.00    +0.000 NA
BRANCH  17  27
ATOM     23  C   UNL     1      44.439   0.987  13.025  0.00  0.00    +0.000 C 
ATOM     24  C   UNL     1      43.226   0.261  13.488  0.00  0.00    +0.000 A 
ATOM     25  C   UNL     1      41.991   0.787  13.278  0.00  0.00    +0.000 A 
ATOM     26  C   UNL     1      40.851   0.119  13.707  0.00  0.00    +0.000 A 
ATOM     27  C   UNL     1      40.924  -1.090  14.358  0.00  0.00    +0.000 A 
ATOM     28  C   UNL     1      42.188  -1.597  14.557  0.00  0.00    +0.000 A 
ATOM     29  C   UNL     1      43.337  -0.962  14.144  0.00  0.00    +0.000 A 
ENDBRANCH  17  27
ENDBRANCH  16  20
ENDBRANCH   1  16
TORSDOF 7
ENDMDL
MODEL 9
REMARK VINA RESULT:      -7.3      3.083      4.866
REMARK  Name = 
REMARK  7 active torsions:
REMARK  status: ('A' for Active; 'I' for Inactive)
REMARK    1  A    between atoms: C_5  and  C_6
REMARK    2  A    between atoms: C_9  and  S_10
REMARK    3  A    between atoms: S_10  and  C_11
REMARK    4  A    between atoms: C_11  and  C_12
REMARK    5  A    between atoms: C_16  and  C_17
REMARK    6  A    between atoms: N_19  and  C_20
REMARK    7  A    between atoms: C_20  and  C_22
REMARK                            x       y       z     vdW  Elec       q    Type
REMARK                         _______ _______ _______ _____ _____    ______ ____
ROOT
ATOM      1  C   UNL     1      38.456   4.111  15.169  0.00  0.00    +0.000 C 
ENDROOT
BRANCH   1   2
ATOM      2  C   UNL     1      37.190   3.407  15.381  0.00  0.00    +0.000 A 
ATOM      3  C   UNL     1      36.049   3.880  14.812  0.00  0.00    +0.000 A 
ATOM      4  C   UNL     1      34.818   3.260  14.961  0.00  0.00    +0.000 A 
ATOM      5  C   UNL     1      34.798   2.111  15.731  0.00  0.00    +0.000 A 
ATOM      6  C   UNL     1      35.926   1.591  16.329  0.00  0.00    +0.000 A 
ATOM      7  C   UNL     1      37.127   2.268  16.136  0.00  0.00    +0.000 A 
BRANCH   6   8
ATOM      8  C   UNL     1      35.842   0.360  17.133  0.00  0.00    +0.000 C 
ATOM      9  O   UNL     1      34.709   0.020  17.546  0.00  0.00    +0.000 OA
ATOM     10  N   UNL     1      36.960  -0.442  17.456  0.00  0.00    +0.000 NA
BRANCH  10  11
ATOM     11  C   UNL     1      36.513  -1.682  18.328  0.00  0.00    +0.000 C 
ATOM     12  C   UNL     1      36.798  -2.764  17.083  0.00  0.00    +0.000 C 
BRANCH  11  13
ATOM     13  C   UNL     1      38.038  -1.916  18.955  0.00  0.00    +0.000 C 
ATOM     14  C   UNL     1      38.598  -2.899  17.912  0.00  0.00    +0.000 C 
ATOM     15  C   UNL     1      37.657  -2.700  20.202  0.00  0.00    +0.000 C 
ENDBRANCH  11  13
ENDBRANCH  10  11
ENDBRANCH   6   8
ENDBRANCH   1   2
BRANCH   1  16
ATOM     16  S   UNL     1      38.350   5.762  15.821  0.00  0.00    +0.000 S 
BRANCH  16  20
ATOM     17  C   UNL     1      41.270   6.540  19.304  0.00  0.00    +0.000 A 
ATOM     18  C   UNL     1      39.953   6.234  19.556  0.00  0.00    +0.000 A 
ATOM     19  C   UNL     1      39.041   5.990  18.516  0.00  0.00    +0.000 A 
ATOM     20  C   UNL     1      39.451   6.055  17.203  0.00  0.00    +0.000 A 
ATOM     21  N   UNL     1      40.750   6.359  17.024  0.00  0.00    +0.000 NA
ATOM     22  N   UNL     1      41.607   6.588  18.006  0.00  0.00    +0.000 NA
BRANCH  17  27
ATOM     23  C   UNL     1      45.214   7.613  23.359  0.00  0.00    +0.000 C 
ATOM     24  C   UNL     1      44.197   7.326  22.311  0.00  0.00    +0.000 A 
ATOM     25  C   UNL     1      43.628   8.343  21.612  0.00  0.00    +0.000 A 
ATOM     26  C   UNL     1      42.676   8.087  20.633  0.00  0.00    +0.000 A 
ATOM     27  C   UNL     1      42.272   6.807  20.334  0.00  0.00    +0.000 A 
ATOM     28  C   UNL     1      42.866   5.799  21.060  0.00  0.00    +0.000 A 
ATOM     29  C   UNL     1      43.812   6.017  22.035  0.00  0.00    +0.000 A 
ENDBRANCH  17  27
ENDBRANCH  16  20
ENDBRANCH   1  16
TORSDOF 7
ENDMDL
MODEL 10
REMARK VINA RESULT:      -7.2      4.197      9.109
REMARK  Name = 
REMARK  7 active torsions:
REMARK  status: ('A' for Active; 'I' for Inactive)
REMARK    1  A    between atoms: C_5  and  C_6
REMARK    2  A    between atoms: C_9  and  S_10
REMARK    3  A    between atoms: S_10  and  C_11
REMARK    4  A    between atoms: C_11  and  C_12
REMARK    5  A    between atoms: C_16  and  C_17
REMARK    6  A    between atoms: N_19  and  C_20
REMARK    7  A    between atoms: C_20  and  C_22
REMARK                            x       y       z     vdW  Elec       q    Type
REMARK                         _______ _______ _______ _____ _____    ______ ____
ROOT
ATOM      1  C   UNL     1      35.057   9.100  13.954  0.00  0.00    +0.000 C 
ENDROOT
BRANCH   1   2
ATOM      2  C   UNL     1      35.355   9.277  15.376  0.00  0.00    +0.000 A 
ATOM      3  C   UNL     1      34.379   9.701  16.223  0.00  0.00    +0.000 A 
ATOM      4  C   UNL     1      34.586   9.881  17.582  0.00  0.00    +0.000 A 
ATOM      5  C   UNL     1      35.856   9.603  18.052  0.00  0.00    +0.000 A 
ATOM      6  C   UNL     1      36.879   9.172  17.235  0.00  0.00    +0.000 A 
ATOM      7  C   UNL     1      36.599   9.015  15.881  0.00  0.00    +0.000 A 
BRANCH   6   8
ATOM      8  C   UNL     1      38.211   8.887  17.796  0.00  0.00    +0.000 C 
ATOM      9  O   UNL     1      38.997   9.853  17.927  0.00  0.00    +0.000 OA
ATOM     10  N   UNL     1      38.637   7.598  18.187  0.00  0.00    +0.000 NA
BRANCH  10  11
ATOM     11  C   UNL     1      40.114   7.652  18.745  0.00  0.00    +0.000 C 
ATOM     12  C   UNL     1      39.629   7.272  20.301  0.00  0.00    +0.000 C 
BRANCH  11  13
ATOM     13  C   UNL     1      40.413   6.054  18.387  0.00  0.00    +0.000 C 
ATOM     14  C   UNL     1      40.618   6.163  16.866  0.00  0.00    +0.000 C 
ATOM     15  C   UNL     1      39.021   5.495  18.648  0.00  0.00    +0.000 C 
ENDBRANCH  11  13
ENDBRANCH  10  11
ENDBRANCH   6   8
ENDBRANCH   1   2
BRANCH   1  16
ATOM     16  S   UNL     1      36.241   7.996  13.217  0.00  0.00    +0.000 S 
BRANCH  16  20
ATOM     17  C   UNL     1      35.956   3.707  14.887  0.00  0.00    +0.000 A 
ATOM     18  C   UNL     1      37.141   4.402  14.955  0.00  0.00    +0.000 A 
ATOM     19  C   UNL     1      37.258   5.710  14.456  0.00  0.00    +0.000 A 
ATOM     20  C   UNL     1      36.173   6.332  13.880  0.00  0.00    +0.000 A 
ATOM     21  N   UNL     1      35.045   5.599  13.844  0.00  0.00    +0.000 NA
ATOM     22  N   UNL     1      34.938   4.367  14.315  0.00  0.00    +0.000 NA
BRANCH  17  27
ATOM     23  C   UNL     1      35.209  -1.664  16.822  0.00  0.00    +0.000 C 
ATOM     24  C   UNL     1      35.395  -0.273  16.328  0.00  0.00    +0.000 A 
ATOM     25  C   UNL     1      36.164  -0.032  15.235  0.00  0.00    +0.000 A 
ATOM     26  C   UNL     1      36.347   1.263  14.765  0.00  0.00    +0.000 A 
ATOM     27  C   UNL     1      35.763   2.345  15.383  0.00  0.00    +0.000 A 
ATOM     28  C   UNL     1      34.991   2.068  16.488  0.00  0.00    +0.000 A 
ATOM     29  C   UNL     1      34.789   0.798  16.979  0.00  0.00    +0.000 A 
ENDBRANCH  17  27
ENDBRANCH  16  20
ENDBRANCH   1  16
TORSDOF 7
ENDMDL
