MODEL 1
REMARK VINA RESULT:      -6.3      0.000      0.000
REMARK  Name = 
REMARK  3 active torsions:
REMARK  status: ('A' for Active; 'I' for Inactive)
REMARK    1  A    between atoms: C_4  and  N_5
REMARK    2  A    between atoms: C_9  and  N_10
REMARK    3  A    between atoms: C_16  and  C_17
REMARK                            x       y       z     vdW  Elec       q    Type
REMARK                         _______ _______ _______ _____ _____    ______ ____
ROOT
ATOM      1  C   UNL     1      21.951  12.642  38.734  0.00  0.00    +0.000 C 
ATOM      2  C   UNL     1      21.017  11.657  38.103  0.00  0.00    +0.000 A 
ATOM      3  C   UNL     1      19.639  11.838  38.265  0.00  0.00    +0.000 A 
ATOM      4  C   UNL     1      18.742  10.957  37.702  0.00  0.00    +0.000 A 
ATOM      5  C   UNL     1      19.255   9.906  36.982  0.00  0.00    +0.000 A 
ATOM      6  C   UNL     1      20.620   9.723  36.818  0.00  0.00    +0.000 A 
ATOM      7  C   UNL     1      21.510  10.595  37.377  0.00  0.00    +0.000 A 
ENDROOT
BRANCH   4   8
ATOM      8  N   UNL     1      17.337  11.072  37.822  0.00  0.00    +0.000 NA
ATOM      9  C   UNL     1      16.515  11.380  36.679  0.00  0.00    +0.000 A 
ATOM     10  N   UNL     1      15.196  11.522  36.622  0.00  0.00    +0.000 NA
ATOM     11  C   UNL     1      14.641  11.800  35.497  0.00  0.00    +0.000 A 
ATOM     12  C   UNL     1      15.425  11.945  34.388  0.00  0.00    +0.000 A 
ATOM     13  S   UNL     1      16.972  11.661  35.050  0.00  0.00    +0.000 S 
BRANCH  12  14
ATOM     14  N   UNL     1      15.029  12.253  33.045  0.00  0.00    +0.000 N 
ATOM     15  O   UNL     1      15.421  11.596  32.084  0.00  0.00    +0.000 OA
ATOM     16  O   UNL     1      14.185  13.318  32.857  0.00  0.00    +0.000 OA
ENDBRANCH  12  14
ENDBRANCH   4   8
BRANCH   7  17
ATOM     17  C   UNL     1      22.976  10.407  37.206  0.00  0.00    +0.000 C 
ATOM     18  C   UNL     1      23.380   9.128  37.902  0.00  0.00    +0.000 C 
ATOM     19  C   UNL     1      23.336  10.314  35.738  0.00  0.00    +0.000 C 
ENDBRANCH   7  17
TORSDOF 3
ENDMDL
MODEL 2
REMARK VINA RESULT:      -5.8     18.683     19.510
REMARK  Name = 
REMARK  3 active torsions:
REMARK  status: ('A' for Active; 'I' for Inactive)
REMARK    1  A    between atoms: C_4  and  N_5
REMARK    2  A    between atoms: C_9  and  N_10
REMARK    3  A    between atoms: C_16  and  C_17
REMARK                            x       y       z     vdW  Elec       q    Type
REMARK                         _______ _______ _______ _____ _____    ______ ____
ROOT
ATOM      1  C   UNL     1      30.017  24.326  30.239  0.00  0.00    +0.000 C 
ATOM      2  C   UNL     1      30.027  23.478  29.007  0.00  0.00    +0.000 A 
ATOM      3  C   UNL     1      28.879  23.438  28.208  0.00  0.00    +0.000 A 
ATOM      4  C   UNL     1      28.842  22.672  27.064  0.00  0.00    +0.000 A 
ATOM      5  C   UNL     1      29.971  21.957  26.745  0.00  0.00    +0.000 A 
ATOM      6  C   UNL     1      31.112  21.993  27.534  0.00  0.00    +0.000 A 
ATOM      7  C   UNL     1      31.148  22.752  28.668  0.00  0.00    +0.000 A 
ENDROOT
BRANCH   4   8
ATOM      8  N   UNL     1      27.720  22.579  26.207  0.00  0.00    +0.000 NA
ATOM      9  C   UNL     1      27.737  23.166  24.891  0.00  0.00    +0.000 A 
ATOM     10  N   UNL     1      26.779  23.169  23.973  0.00  0.00    +0.000 NA
ATOM     11  C   UNL     1      26.987  23.753  22.847  0.00  0.00    +0.000 A 
ATOM     12  C   UNL     1      28.192  24.357  22.626  0.00  0.00    +0.000 A 
ATOM     13  S   UNL     1      28.985  24.039  24.103  0.00  0.00    +0.000 S 
BRANCH  12  14
ATOM     14  N   UNL     1      28.640  25.061  21.460  0.00  0.00    +0.000 N 
ATOM     15  O   UNL     1      28.119  26.112  21.094  0.00  0.00    +0.000 OA
ATOM     16  O   UNL     1      29.683  24.521  20.751  0.00  0.00    +0.000 OA
ENDBRANCH  12  14
ENDBRANCH   4   8
BRANCH   7  17
ATOM     17  C   UNL     1      32.367  22.798  29.520  0.00  0.00    +0.000 C 
ATOM     18  C   UNL     1      32.753  21.382  29.882  0.00  0.00    +0.000 C 
ATOM     19  C   UNL     1      33.514  23.455  28.779  0.00  0.00    +0.000 C 
ENDBRANCH   7  17
TORSDOF 3
ENDMDL
MODEL 3
REMARK VINA RESULT:      -5.7      3.702      4.761
REMARK  Name = 
REMARK  3 active torsions:
REMARK  status: ('A' for Active; 'I' for Inactive)
REMARK    1  A    between atoms: C_4  and  N_5
REMARK    2  A    between atoms: C_9  and  N_10
REMARK    3  A    between atoms: C_16  and  C_17
REMARK                            x       y       z     vdW  Elec       q    Type
REMARK                         _______ _______ _______ _____ _____    ______ ____
ROOT
ATOM      1  C   UNL     1      16.118   9.224  41.886  0.00  0.00    +0.000 C 
ATOM      2  C   UNL     1      17.033   9.038  40.718  0.00  0.00    +0.000 A 
ATOM      3  C   UNL     1      16.975   9.958  39.664  0.00  0.00    +0.000 A 
ATOM      4  C   UNL     1      17.798   9.827  38.568  0.00  0.00    +0.000 A 
ATOM      5  C   UNL     1      18.671   8.767  38.556  0.00  0.00    +0.000 A 
ATOM      6  C   UNL     1      18.734   7.853  39.597  0.00  0.00    +0.000 A 
ATOM      7  C   UNL     1      17.916   7.981  40.684  0.00  0.00    +0.000 A 
ENDROOT
BRANCH   4   8
ATOM      8  N   UNL     1      17.797  10.714  37.465  0.00  0.00    +0.000 NA
ATOM      9  C   UNL     1      16.585  11.361  37.030  0.00  0.00    +0.000 A 
ATOM     10  N   UNL     1      16.415  12.211  36.024  0.00  0.00    +0.000 NA
ATOM     11  C   UNL     1      15.243  12.684  35.792  0.00  0.00    +0.000 A 
ATOM     12  C   UNL     1      14.202  12.299  36.588  0.00  0.00    +0.000 A 
ATOM     13  S   UNL     1      14.996  11.240  37.664  0.00  0.00    +0.000 S 
BRANCH  12  14
ATOM     14  N   UNL     1      12.826  12.694  36.514  0.00  0.00    +0.000 N 
ATOM     15  O   UNL     1      12.479  13.748  35.986  0.00  0.00    +0.000 OA
ATOM     16  O   UNL     1      11.891  11.851  37.059  0.00  0.00    +0.000 OA
ENDBRANCH  12  14
ENDBRANCH   4   8
BRANCH   7  17
ATOM     17  C   UNL     1      17.976   7.006  41.806  0.00  0.00    +0.000 C 
ATOM     18  C   UNL     1      17.294   5.730  41.369  0.00  0.00    +0.000 C 
ATOM     19  C   UNL     1      19.414   6.705  42.177  0.00  0.00    +0.000 C 
ENDBRANCH   7  17
TORSDOF 3
ENDMDL
MODEL 4
REMARK VINA RESULT:      -5.7     18.093     19.600
REMARK  Name = 
REMARK  3 active torsions:
REMARK  status: ('A' for Active; 'I' for Inactive)
REMARK    1  A    between atoms: C_4  and  N_5
REMARK    2  A    between atoms: C_9  and  N_10
REMARK    3  A    between atoms: C_16  and  C_17
REMARK                            x       y       z     vdW  Elec       q    Type
REMARK                         _______ _______ _______ _____ _____    ______ ____
ROOT
ATOM      1  C   UNL     1      33.089  24.786  29.062  0.00  0.00    +0.000 C 
ATOM      2  C   UNL     1      32.266  23.891  28.190  0.00  0.00    +0.000 A 
ATOM      3  C   UNL     1      32.152  24.197  26.830  0.00  0.00    +0.000 A 
ATOM      4  C   UNL     1      31.405  23.403  25.989  0.00  0.00    +0.000 A 
ATOM      5  C   UNL     1      30.786  22.306  26.539  0.00  0.00    +0.000 A 
ATOM      6  C   UNL     1      30.897  21.998  27.887  0.00  0.00    +0.000 A 
ATOM      7  C   UNL     1      31.636  22.787  28.721  0.00  0.00    +0.000 A 
ENDROOT
BRANCH   4   8
ATOM      8  N   UNL     1      31.241  23.647  24.604  0.00  0.00    +0.000 NA
ATOM      9  C   UNL     1      29.938  23.610  23.991  0.00  0.00    +0.000 A 
ATOM     10  N   UNL     1      29.615  23.813  22.719  0.00  0.00    +0.000 NA
ATOM     11  C   UNL     1      28.383  23.736  22.362  0.00  0.00    +0.000 A 
ATOM     12  C   UNL     1      27.437  23.444  23.303  0.00  0.00    +0.000 A 
ATOM     13  S   UNL     1      28.408  23.294  24.698  0.00  0.00    +0.000 S 
BRANCH  12  14
ATOM     14  N   UNL     1      26.020  23.308  23.135  0.00  0.00    +0.000 N 
ATOM     15  O   UNL     1      25.233  23.501  24.059  0.00  0.00    +0.000 OA
ATOM     16  O   UNL     1      25.556  22.951  21.894  0.00  0.00    +0.000 OA
ENDBRANCH  12  14
ENDBRANCH   4   8
BRANCH   7  17
ATOM     17  C   UNL     1      31.761  22.464  30.168  0.00  0.00    +0.000 C 
ATOM     18  C   UNL     1      30.373  22.376  30.761  0.00  0.00    +0.000 C 
ATOM     19  C   UNL     1      32.473  21.141  30.361  0.00  0.00    +0.000 C 
ENDBRANCH   7  17
TORSDOF 3
ENDMDL
MODEL 5
REMARK VINA RESULT:      -5.7     21.156     22.552
REMARK  Name = 
REMARK  3 active torsions:
REMARK  status: ('A' for Active; 'I' for Inactive)
REMARK    1  A    between atoms: C_4  and  N_5
REMARK    2  A    between atoms: C_9  and  N_10
REMARK    3  A    between atoms: C_16  and  C_17
REMARK                            x       y       z     vdW  Elec       q    Type
REMARK                         _______ _______ _______ _____ _____    ______ ____
ROOT
ATOM      1  C   UNL     1      25.583  24.000  24.618  0.00  0.00    +0.000 C 
ATOM      2  C   UNL     1      27.031  23.825  24.287  0.00  0.00    +0.000 A 
ATOM      3  C   UNL     1      27.456  24.067  22.976  0.00  0.00    +0.000 A 
ATOM      4  C   UNL     1      28.779  23.918  22.625  0.00  0.00    +0.000 A 
ATOM      5  C   UNL     1      29.654  23.527  23.609  0.00  0.00    +0.000 A 
ATOM      6  C   UNL     1      29.238  23.285  24.910  0.00  0.00    +0.000 A 
ATOM      7  C   UNL     1      27.926  23.432  25.258  0.00  0.00    +0.000 A 
ENDROOT
BRANCH   4   8
ATOM      8  N   UNL     1      29.284  24.144  21.322  0.00  0.00    +0.000 NA
ATOM      9  C   UNL     1      29.428  25.479  20.799  0.00  0.00    +0.000 A 
ATOM     10  N   UNL     1      29.880  25.859  19.611  0.00  0.00    +0.000 NA
ATOM     11  C   UNL     1      29.933  27.111  19.327  0.00  0.00    +0.000 A 
ATOM     12  C   UNL     1      29.519  28.020  20.260  0.00  0.00    +0.000 A 
ATOM     13  S   UNL     1      29.063  26.984  21.536  0.00  0.00    +0.000 S 
BRANCH  12  14
ATOM     14  N   UNL     1      29.488  29.450  20.163  0.00  0.00    +0.000 N 
ATOM     15  O   UNL     1      28.891  30.028  19.258  0.00  0.00    +0.000 OA
ATOM     16  O   UNL     1      30.153  30.168  21.124  0.00  0.00    +0.000 OA
ENDBRANCH  12  14
ENDBRANCH   4   8
BRANCH   7  17
ATOM     17  C   UNL     1      27.471  23.176  26.651  0.00  0.00    +0.000 C 
ATOM     18  C   UNL     1      28.269  22.021  27.212  0.00  0.00    +0.000 C 
ATOM     19  C   UNL     1      27.685  24.400  27.517  0.00  0.00    +0.000 C 
ENDBRANCH   7  17
TORSDOF 3
ENDMDL
MODEL 6
REMARK VINA RESULT:      -5.4     18.526     19.700
REMARK  Name = 
REMARK  3 active torsions:
REMARK  status: ('A' for Active; 'I' for Inactive)
REMARK    1  A    between atoms: C_4  and  N_5
REMARK    2  A    between atoms: C_9  and  N_10
REMARK    3  A    between atoms: C_16  and  C_17
REMARK                            x       y       z     vdW  Elec       q    Type
REMARK                         _______ _______ _______ _____ _____    ______ ____
ROOT
ATOM      1  C   UNL     1      24.308  27.014  28.368  0.00  0.00    +0.000 C 
ATOM      2  C   UNL     1      25.113  25.808  27.997  0.00  0.00    +0.000 A 
ATOM      3  C   UNL     1      24.920  25.234  26.735  0.00  0.00    +0.000 A 
ATOM      4  C   UNL     1      25.638  24.124  26.349  0.00  0.00    +0.000 A 
ATOM      5  C   UNL     1      26.543  23.612  27.248  0.00  0.00    +0.000 A 
ATOM      6  C   UNL     1      26.738  24.178  28.499  0.00  0.00    +0.000 A 
ATOM      7  C   UNL     1      26.025  25.278  28.882  0.00  0.00    +0.000 A 
ENDROOT
BRANCH   4   8
ATOM      8  N   UNL     1      25.500  23.487  25.093  0.00  0.00    +0.000 NA
ATOM      9  C   UNL     1      26.364  23.820  23.990  0.00  0.00    +0.000 A 
ATOM     10  N   UNL     1      26.367  23.321  22.760  0.00  0.00    +0.000 NA
ATOM     11  C   UNL     1      27.226  23.751  21.907  0.00  0.00    +0.000 A 
ATOM     12  C   UNL     1      28.116  24.714  22.290  0.00  0.00    +0.000 A 
ATOM     13  S   UNL     1      27.649  24.953  23.914  0.00  0.00    +0.000 S 
BRANCH  12  14
ATOM     14  N   UNL     1      29.150  25.336  21.516  0.00  0.00    +0.000 N 
ATOM     15  O   UNL     1      29.506  26.495  21.718  0.00  0.00    +0.000 OA
ATOM     16  O   UNL     1      29.742  24.592  20.528  0.00  0.00    +0.000 OA
ENDBRANCH  12  14
ENDBRANCH   4   8
BRANCH   7  17
ATOM     17  C   UNL     1      26.227  25.892  30.222  0.00  0.00    +0.000 C 
ATOM     18  C   UNL     1      26.224  24.792  31.259  0.00  0.00    +0.000 C 
ATOM     19  C   UNL     1      27.549  26.630  30.279  0.00  0.00    +0.000 C 
ENDBRANCH   7  17
TORSDOF 3
ENDMDL
MODEL 7
REMARK VINA RESULT:      -5.4     19.478     20.904
REMARK  Name = 
REMARK  3 active torsions:
REMARK  status: ('A' for Active; 'I' for Inactive)
REMARK    1  A    between atoms: C_4  and  N_5
REMARK    2  A    between atoms: C_9  and  N_10
REMARK    3  A    between atoms: C_16  and  C_17
REMARK                            x       y       z     vdW  Elec       q    Type
REMARK                         _______ _______ _______ _____ _____    ______ ____
ROOT
ATOM      1  C   UNL     1      27.694  22.653  28.178  0.00  0.00    +0.000 C 
ATOM      2  C   UNL     1      28.861  22.718  27.244  0.00  0.00    +0.000 A 
ATOM      3  C   UNL     1      28.622  22.701  25.866  0.00  0.00    +0.000 A 
ATOM      4  C   UNL     1      29.664  22.759  24.969  0.00  0.00    +0.000 A 
ATOM      5  C   UNL     1      30.937  22.834  25.482  0.00  0.00    +0.000 A 
ATOM      6  C   UNL     1      31.180  22.851  26.847  0.00  0.00    +0.000 A 
ATOM      7  C   UNL     1      30.146  22.792  27.737  0.00  0.00    +0.000 A 
ENDROOT
BRANCH   4   8
ATOM      8  N   UNL     1      29.503  22.746  23.563  0.00  0.00    +0.000 NA
ATOM      9  C   UNL     1      29.409  23.973  22.812  0.00  0.00    +0.000 A 
ATOM     10  N   UNL     1      29.257  24.134  21.503  0.00  0.00    +0.000 NA
ATOM     11  C   UNL     1      29.193  25.322  21.018  0.00  0.00    +0.000 A 
ATOM     12  C   UNL     1      29.283  26.390  21.865  0.00  0.00    +0.000 A 
ATOM     13  S   UNL     1      29.460  25.596  23.364  0.00  0.00    +0.000 S 
BRANCH  12  14
ATOM     14  N   UNL     1      29.236  27.788  21.550  0.00  0.00    +0.000 N 
ATOM     15  O   UNL     1      29.024  28.191  20.409  0.00  0.00    +0.000 OA
ATOM     16  O   UNL     1      29.438  28.679  22.573  0.00  0.00    +0.000 OA
ENDBRANCH  12  14
ENDBRANCH   4   8
BRANCH   7  17
ATOM     17  C   UNL     1      30.396  22.810  29.203  0.00  0.00    +0.000 C 
ATOM     18  C   UNL     1      31.693  22.082  29.477  0.00  0.00    +0.000 C 
ATOM     19  C   UNL     1      30.505  24.234  29.710  0.00  0.00    +0.000 C 
ENDBRANCH   7  17
TORSDOF 3
ENDMDL
MODEL 8
REMARK VINA RESULT:      -5.4     18.664     19.869
REMARK  Name = 
REMARK  3 active torsions:
REMARK  status: ('A' for Active; 'I' for Inactive)
REMARK    1  A    between atoms: C_4  and  N_5
REMARK    2  A    between atoms: C_9  and  N_10
REMARK    3  A    between atoms: C_16  and  C_17
REMARK                            x       y       z     vdW  Elec       q    Type
REMARK                         _______ _______ _______ _____ _____    ______ ____
ROOT
ATOM      1  C   UNL     1      26.339  24.196  29.882  0.00  0.00    +0.000 C 
ATOM      2  C   UNL     1      25.779  24.525  28.534  0.00  0.00    +0.000 A 
ATOM      3  C   UNL     1      26.081  23.685  27.456  0.00  0.00    +0.000 A 
ATOM      4  C   UNL     1      25.589  23.948  26.198  0.00  0.00    +0.000 A 
ATOM      5  C   UNL     1      24.795  25.059  26.048  0.00  0.00    +0.000 A 
ATOM      6  C   UNL     1      24.492  25.895  27.113  0.00  0.00    +0.000 A 
ATOM      7  C   UNL     1      24.981  25.635  28.361  0.00  0.00    +0.000 A 
ENDROOT
BRANCH   4   8
ATOM      8  N   UNL     1      25.850  23.147  25.060  0.00  0.00    +0.000 NA
ATOM      9  C   UNL     1      26.705  23.616  23.999  0.00  0.00    +0.000 A 
ATOM     10  N   UNL     1      27.048  22.997  22.876  0.00  0.00    +0.000 NA
ATOM     11  C   UNL     1      27.829  23.587  22.045  0.00  0.00    +0.000 A 
ATOM     12  C   UNL     1      28.286  24.840  22.339  0.00  0.00    +0.000 A 
ATOM     13  S   UNL     1      27.539  25.107  23.850  0.00  0.00    +0.000 S 
BRANCH  12  14
ATOM     14  N   UNL     1      29.156  25.679  21.568  0.00  0.00    +0.000 N 
ATOM     15  O   UNL     1      29.665  25.298  20.517  0.00  0.00    +0.000 OA
ATOM     16  O   UNL     1      29.411  26.941  22.043  0.00  0.00    +0.000 OA
ENDBRANCH  12  14
ENDBRANCH   4   8
BRANCH   7  17
ATOM     17  C   UNL     1      24.661  26.525  29.509  0.00  0.00    +0.000 C 
ATOM     18  C   UNL     1      25.328  27.863  29.279  0.00  0.00    +0.000 C 
ATOM     19  C   UNL     1      23.165  26.726  29.630  0.00  0.00    +0.000 C 
ENDBRANCH   7  17
TORSDOF 3
ENDMDL
MODEL 9
REMARK VINA RESULT:      -5.3     19.000     20.407
REMARK  Name = 
REMARK  3 active torsions:
REMARK  status: ('A' for Active; 'I' for Inactive)
REMARK    1  A    between atoms: C_4  and  N_5
REMARK    2  A    between atoms: C_9  and  N_10
REMARK    3  A    between atoms: C_16  and  C_17
REMARK                            x       y       z     vdW  Elec       q    Type
REMARK                         _______ _______ _______ _____ _____    ______ ____
ROOT
ATOM      1  C   UNL     1      33.118  24.413  28.075  0.00  0.00    +0.000 C 
ATOM      2  C   UNL     1      32.413  24.011  26.819  0.00  0.00    +0.000 A 
ATOM      3  C   UNL     1      31.160  23.394  26.918  0.00  0.00    +0.000 A 
ATOM      4  C   UNL     1      30.474  23.007  25.790  0.00  0.00    +0.000 A 
ATOM      5  C   UNL     1      31.066  23.250  24.574  0.00  0.00    +0.000 A 
ATOM      6  C   UNL     1      32.307  23.861  24.470  0.00  0.00    +0.000 A 
ATOM      7  C   UNL     1      32.989  24.244  25.589  0.00  0.00    +0.000 A 
ENDROOT
BRANCH   4   8
ATOM      8  N   UNL     1      29.205  22.379  25.808  0.00  0.00    +0.000 NA
ATOM      9  C   UNL     1      27.996  23.136  25.601  0.00  0.00    +0.000 A 
ATOM     10  N   UNL     1      26.741  22.704  25.588  0.00  0.00    +0.000 NA
ATOM     11  C   UNL     1      25.789  23.542  25.384  0.00  0.00    +0.000 A 
ATOM     12  C   UNL     1      26.095  24.858  25.186  0.00  0.00    +0.000 A 
ATOM     13  S   UNL     1      27.796  24.814  25.309  0.00  0.00    +0.000 S 
BRANCH  12  14
ATOM     14  N   UNL     1      25.207  25.957  24.944  0.00  0.00    +0.000 N 
ATOM     15  O   UNL     1      23.993  25.861  25.110  0.00  0.00    +0.000 OA
ATOM     16  O   UNL     1      25.756  27.139  24.516  0.00  0.00    +0.000 OA
ENDBRANCH  12  14
ENDBRANCH   4   8
BRANCH   7  17
ATOM     17  C   UNL     1      34.320  24.900  25.488  0.00  0.00    +0.000 C 
ATOM     18  C   UNL     1      35.107  24.221  24.390  0.00  0.00    +0.000 C 
ATOM     19  C   UNL     1      34.169  26.371  25.158  0.00  0.00    +0.000 C 
ENDBRANCH   7  17
TORSDOF 3
ENDMDL
MODEL 10
REMARK VINA RESULT:      -5.2     19.098     20.547
REMARK  Name = 
REMARK  3 active torsions:
REMARK  status: ('A' for Active; 'I' for Inactive)
REMARK    1  A    between atoms: C_4  and  N_5
REMARK    2  A    between atoms: C_9  and  N_10
REMARK    3  A    between atoms: C_16  and  C_17
REMARK                            x       y       z     vdW  Elec       q    Type
REMARK                         _______ _______ _______ _____ _____    ______ ____
ROOT
ATOM      1  C   UNL     1      32.825  27.414  25.619  0.00  0.00    +0.000 C 
ATOM      2  C   UNL     1      32.257  26.087  25.227  0.00  0.00    +0.000 A 
ATOM      3  C   UNL     1      30.871  25.966  25.078  0.00  0.00    +0.000 A 
ATOM      4  C   UNL     1      30.303  24.764  24.718  0.00  0.00    +0.000 A 
ATOM      5  C   UNL     1      31.149  23.701  24.513  0.00  0.00    +0.000 A 
ATOM      6  C   UNL     1      32.523  23.816  24.658  0.00  0.00    +0.000 A 
ATOM      7  C   UNL     1      33.087  25.007  25.016  0.00  0.00    +0.000 A 
ENDROOT
BRANCH   4   8
ATOM      8  N   UNL     1      28.912  24.563  24.549  0.00  0.00    +0.000 NA
ATOM      9  C   UNL     1      28.081  24.143  25.649  0.00  0.00    +0.000 A 
ATOM     10  N   UNL     1      26.774  23.912  25.658  0.00  0.00    +0.000 NA
ATOM     11  C   UNL     1      26.208  23.540  26.750  0.00  0.00    +0.000 A 
ATOM     12  C   UNL     1      26.969  23.392  27.875  0.00  0.00    +0.000 A 
ATOM     13  S   UNL     1      28.510  23.812  27.276  0.00  0.00    +0.000 S 
BRANCH  12  14
ATOM     14  N   UNL     1      26.556  22.992  29.188  0.00  0.00    +0.000 N 
ATOM     15  O   UNL     1      26.942  21.943  29.700  0.00  0.00    +0.000 OA
ATOM     16  O   UNL     1      25.705  23.823  29.870  0.00  0.00    +0.000 OA
ENDBRANCH  12  14
ENDBRANCH   4   8
BRANCH   7  17
ATOM     17  C   UNL     1      34.560  25.140  25.175  0.00  0.00    +0.000 C 
ATOM     18  C   UNL     1      34.957  24.527  26.498  0.00  0.00    +0.000 C 
ATOM     19  C   UNL     1      35.285  24.425  24.054  0.00  0.00    +0.000 C 
ENDBRANCH   7  17
TORSDOF 3
ENDMDL
