MODEL 1
REMARK VINA RESULT:      -6.9      0.000      0.000
REMARK  Name = 
REMARK  2 active torsions:
REMARK  status: ('A' for Active; 'I' for Inactive)
REMARK    1  A    between atoms: O_2  and  C_3
REMARK    2  A    between atoms: C_7  and  C_8
REMARK                            x       y       z     vdW  Elec       q    Type
REMARK                         _______ _______ _______ _____ _____    ______ ____
ROOT
ATOM      1  C   UNL     1      27.938  24.080  21.958  0.00  0.00    +0.000 C 
ATOM      2  C   UNL     1      26.518  24.496  22.560  0.00  0.00    +0.000 C 
ATOM      3  C   UNL     1      25.976  23.212  23.113  0.00  0.00    +0.000 C 
ATOM      4  O   UNL     1      25.015  22.622  22.640  0.00  0.00    +0.000 OA
ATOM      5  N   UNL     1      26.721  22.749  24.273  0.00  0.00    +0.000 NA
ATOM      6  C   UNL     1      28.111  23.085  24.271  0.00  0.00    +0.000 A 
ATOM      7  C   UNL     1      28.863  22.744  25.411  0.00  0.00    +0.000 A 
ATOM      8  C   UNL     1      30.184  23.110  25.503  0.00  0.00    +0.000 A 
ATOM      9  C   UNL     1      31.034  22.782  26.677  0.00  0.00    +0.000 C 
ATOM     10  C   UNL     1      30.761  23.813  24.471  0.00  0.00    +0.000 A 
ATOM     11  C   UNL     1      32.219  24.213  24.584  0.00  0.00    +0.000 C 
ATOM     12  C   UNL     1      30.013  24.129  23.381  0.00  0.00    +0.000 A 
ATOM     13  C   UNL     1      28.690  23.764  23.282  0.00  0.00    +0.000 A 
ENDROOT
BRANCH   1  18
ATOM     14  C   UNL     1      29.852  26.794  20.172  0.00  0.00    +0.000 A 
ATOM     15  C   UNL     1      29.682  27.900  20.988  0.00  0.00    +0.000 A 
ATOM     16  C   UNL     1      28.927  27.777  22.154  0.00  0.00    +0.000 A 
ATOM     17  C   UNL     1      28.360  26.566  22.485  0.00  0.00    +0.000 A 
ATOM     18  C   UNL     1      28.527  25.524  21.706  0.00  0.00    +0.000 A 
ATOM     19  C   UNL     1      29.278  25.611  20.527  0.00  0.00    +0.000 A 
BRANCH  14  21
ATOM     20  C   UNL     1      30.058  27.335  17.782  0.00  0.00    +0.000 C 
ATOM     21  O   UNL     1      30.590  26.845  18.998  0.00  0.00    +0.000 OA
ENDBRANCH  14  21
ENDBRANCH   1  18
TORSDOF 2
ENDMDL
MODEL 2
REMARK VINA RESULT:      -6.9      2.669      4.156
REMARK  Name = 
REMARK  2 active torsions:
REMARK  status: ('A' for Active; 'I' for Inactive)
REMARK    1  A    between atoms: O_2  and  C_3
REMARK    2  A    between atoms: C_7  and  C_8
REMARK                            x       y       z     vdW  Elec       q    Type
REMARK                         _______ _______ _______ _____ _____    ______ ____
ROOT
ATOM      1  C   UNL     1      28.331  22.769  24.062  0.00  0.00    +0.000 C 
ATOM      2  C   UNL     1      27.675  23.887  23.129  0.00  0.00    +0.000 C 
ATOM      3  C   UNL     1      26.230  23.491  23.061  0.00  0.00    +0.000 C 
ATOM      4  O   UNL     1      25.688  23.074  22.047  0.00  0.00    +0.000 OA
ATOM      5  N   UNL     1      25.548  23.661  24.334  0.00  0.00    +0.000 NA
ATOM      6  C   UNL     1      26.368  23.465  25.489  0.00  0.00    +0.000 A 
ATOM      7  C   UNL     1      25.786  23.706  26.748  0.00  0.00    +0.000 A 
ATOM      8  C   UNL     1      26.543  23.612  27.889  0.00  0.00    +0.000 A 
ATOM      9  C   UNL     1      25.992  23.854  29.248  0.00  0.00    +0.000 C 
ATOM     10  C   UNL     1      27.875  23.282  27.788  0.00  0.00    +0.000 A 
ATOM     11  C   UNL     1      28.702  23.183  29.056  0.00  0.00    +0.000 C 
ATOM     12  C   UNL     1      28.413  23.054  26.562  0.00  0.00    +0.000 A 
ATOM     13  C   UNL     1      27.659  23.144  25.414  0.00  0.00    +0.000 A 
ENDROOT
BRANCH   1  18
ATOM     14  C   UNL     1      30.798  25.585  24.509  0.00  0.00    +0.000 A 
ATOM     15  C   UNL     1      32.001  24.931  24.719  0.00  0.00    +0.000 A 
ATOM     16  C   UNL     1      32.027  23.537  24.718  0.00  0.00    +0.000 A 
ATOM     17  C   UNL     1      30.866  22.824  24.510  0.00  0.00    +0.000 A 
ATOM     18  C   UNL     1      29.733  23.453  24.312  0.00  0.00    +0.000 A 
ATOM     19  C   UNL     1      29.669  24.852  24.307  0.00  0.00    +0.000 A 
BRANCH  14  21
ATOM     20  C   UNL     1      29.469  27.646  24.325  0.00  0.00    +0.000 C 
ATOM     21  O   UNL     1      30.699  26.969  24.497  0.00  0.00    +0.000 OA
ENDBRANCH  14  21
ENDBRANCH   1  18
TORSDOF 2
ENDMDL
MODEL 3
REMARK VINA RESULT:      -6.7      2.801      5.725
REMARK  Name = 
REMARK  2 active torsions:
REMARK  status: ('A' for Active; 'I' for Inactive)
REMARK    1  A    between atoms: O_2  and  C_3
REMARK    2  A    between atoms: C_7  and  C_8
REMARK                            x       y       z     vdW  Elec       q    Type
REMARK                         _______ _______ _______ _____ _____    ______ ____
ROOT
ATOM      1  C   UNL     1      29.319  23.010  24.005  0.00  0.00    +0.000 C 
ATOM      2  C   UNL     1      30.150  24.171  23.290  0.00  0.00    +0.000 C 
ATOM      3  C   UNL     1      29.311  24.528  22.099  0.00  0.00    +0.000 C 
ATOM      4  O   UNL     1      29.640  24.300  20.944  0.00  0.00    +0.000 OA
ATOM      5  N   UNL     1      28.064  25.176  22.474  0.00  0.00    +0.000 NA
ATOM      6  C   UNL     1      27.520  24.759  23.729  0.00  0.00    +0.000 A 
ATOM      7  C   UNL     1      26.364  25.417  24.187  0.00  0.00    +0.000 A 
ATOM      8  C   UNL     1      25.839  25.117  25.420  0.00  0.00    +0.000 A 
ATOM      9  C   UNL     1      24.623  25.775  25.964  0.00  0.00    +0.000 C 
ATOM     10  C   UNL     1      26.457  24.168  26.201  0.00  0.00    +0.000 A 
ATOM     11  C   UNL     1      25.870  23.845  27.561  0.00  0.00    +0.000 C 
ATOM     12  C   UNL     1      27.572  23.545  25.735  0.00  0.00    +0.000 A 
ATOM     13  C   UNL     1      28.101  23.840  24.500  0.00  0.00    +0.000 A 
ENDROOT
BRANCH   1  18
ATOM     14  C   UNL     1      31.778  24.089  26.653  0.00  0.00    +0.000 A 
ATOM     15  C   UNL     1      31.646  23.118  27.632  0.00  0.00    +0.000 A 
ATOM     16  C   UNL     1      30.736  22.078  27.441  0.00  0.00    +0.000 A 
ATOM     17  C   UNL     1      29.982  22.022  26.289  0.00  0.00    +0.000 A 
ATOM     18  C   UNL     1      30.115  22.946  25.369  0.00  0.00    +0.000 A 
ATOM     19  C   UNL     1      31.017  24.005  25.526  0.00  0.00    +0.000 A 
BRANCH  14  21
ATOM     20  C   UNL     1      33.987  25.103  26.284  0.00  0.00    +0.000 C 
ATOM     21  O   UNL     1      32.662  25.151  26.777  0.00  0.00    +0.000 OA
ENDBRANCH  14  21
ENDBRANCH   1  18
TORSDOF 2
ENDMDL
MODEL 4
REMARK VINA RESULT:      -6.6     21.184     23.950
REMARK  Name = 
REMARK  2 active torsions:
REMARK  status: ('A' for Active; 'I' for Inactive)
REMARK    1  A    between atoms: O_2  and  C_3
REMARK    2  A    between atoms: C_7  and  C_8
REMARK                            x       y       z     vdW  Elec       q    Type
REMARK                         _______ _______ _______ _____ _____    ______ ____
ROOT
ATOM      1  C   UNL     1      17.877  10.289  37.135  0.00  0.00    +0.000 C 
ATOM      2  C   UNL     1      17.208  11.725  36.939  0.00  0.00    +0.000 C 
ATOM      3  C   UNL     1      15.737  11.432  36.904  0.00  0.00    +0.000 C 
ATOM      4  O   UNL     1      15.045  11.553  35.904  0.00  0.00    +0.000 OA
ATOM      5  N   UNL     1      15.231  10.988  38.193  0.00  0.00    +0.000 NA
ATOM      6  C   UNL     1      16.165  10.256  38.990  0.00  0.00    +0.000 A 
ATOM      7  C   UNL     1      15.761   9.880  40.285  0.00  0.00    +0.000 A 
ATOM      8  C   UNL     1      16.640   9.245  41.127  0.00  0.00    +0.000 A 
ATOM      9  C   UNL     1      16.278   8.822  42.505  0.00  0.00    +0.000 C 
ATOM     10  C   UNL     1      17.918   8.981  40.691  0.00  0.00    +0.000 A 
ATOM     11  C   UNL     1      18.880   8.280  41.630  0.00  0.00    +0.000 C 
ATOM     12  C   UNL     1      18.283   9.353  39.436  0.00  0.00    +0.000 A 
ATOM     13  C   UNL     1      17.406   9.988  38.587  0.00  0.00    +0.000 A 
ENDROOT
BRANCH   1  18
ATOM     14  C   UNL     1      21.645  10.170  37.130  0.00  0.00    +0.000 A 
ATOM     15  C   UNL     1      22.005  11.283  37.872  0.00  0.00    +0.000 A 
ATOM     16  C   UNL     1      21.007  12.104  38.395  0.00  0.00    +0.000 A 
ATOM     17  C   UNL     1      19.680  11.806  38.173  0.00  0.00    +0.000 A 
ATOM     18  C   UNL     1      19.350  10.750  37.469  0.00  0.00    +0.000 A 
ATOM     19  C   UNL     1      20.325   9.903  36.928  0.00  0.00    +0.000 A 
BRANCH  14  21
ATOM     20  C   UNL     1      23.797   9.767  36.010  0.00  0.00    +0.000 C 
ATOM     21  O   UNL     1      22.586   9.310  36.580  0.00  0.00    +0.000 OA
ENDBRANCH  14  21
ENDBRANCH   1  18
TORSDOF 2
ENDMDL
MODEL 5
REMARK VINA RESULT:      -6.5     20.600     22.085
REMARK  Name = 
REMARK  2 active torsions:
REMARK  status: ('A' for Active; 'I' for Inactive)
REMARK    1  A    between atoms: O_2  and  C_3
REMARK    2  A    between atoms: C_7  and  C_8
REMARK                            x       y       z     vdW  Elec       q    Type
REMARK                         _______ _______ _______ _____ _____    ______ ____
ROOT
ATOM      1  C   UNL     1      24.586   4.173  16.960  0.00  0.00    +0.000 C 
ATOM      2  C   UNL     1      23.807   4.169  18.353  0.00  0.00    +0.000 C 
ATOM      3  C   UNL     1      22.782   3.088  18.185  0.00  0.00    +0.000 C 
ATOM      4  O   UNL     1      21.579   3.298  18.113  0.00  0.00    +0.000 OA
ATOM      5  N   UNL     1      23.379   1.763  18.120  0.00  0.00    +0.000 NA
ATOM      6  C   UNL     1      24.681   1.716  17.532  0.00  0.00    +0.000 A 
ATOM      7  C   UNL     1      25.346   0.476  17.525  0.00  0.00    +0.000 A 
ATOM      8  C   UNL     1      26.630   0.382  17.047  0.00  0.00    +0.000 A 
ATOM      9  C   UNL     1      27.390  -0.895  17.011  0.00  0.00    +0.000 C 
ATOM     10  C   UNL     1      27.258   1.513  16.577  0.00  0.00    +0.000 A 
ATOM     11  C   UNL     1      28.676   1.398  16.053  0.00  0.00    +0.000 C 
ATOM     12  C   UNL     1      26.593   2.698  16.594  0.00  0.00    +0.000 A 
ATOM     13  C   UNL     1      25.306   2.798  17.070  0.00  0.00    +0.000 A 
ENDROOT
BRANCH   1  18
ATOM     14  C   UNL     1      27.238   6.819  16.535  0.00  0.00    +0.000 A 
ATOM     15  C   UNL     1      27.890   6.823  17.756  0.00  0.00    +0.000 A 
ATOM     16  C   UNL     1      27.468   5.948  18.757  0.00  0.00    +0.000 A 
ATOM     17  C   UNL     1      26.414   5.091  18.525  0.00  0.00    +0.000 A 
ATOM     18  C   UNL     1      25.804   5.095  17.364  0.00  0.00    +0.000 A 
ATOM     19  C   UNL     1      26.200   5.960  16.337  0.00  0.00    +0.000 A 
BRANCH  14  21
ATOM     20  C   UNL     1      28.752   7.438  14.698  0.00  0.00    +0.000 C 
ATOM     21  O   UNL     1      27.606   7.663  15.496  0.00  0.00    +0.000 OA
ENDBRANCH  14  21
ENDBRANCH   1  18
TORSDOF 2
ENDMDL
MODEL 6
REMARK VINA RESULT:      -6.5      2.722      4.272
REMARK  Name = 
REMARK  2 active torsions:
REMARK  status: ('A' for Active; 'I' for Inactive)
REMARK    1  A    between atoms: O_2  and  C_3
REMARK    2  A    between atoms: C_7  and  C_8
REMARK                            x       y       z     vdW  Elec       q    Type
REMARK                         _______ _______ _______ _____ _____    ______ ____
ROOT
ATOM      1  C   UNL     1      30.360  23.175  24.002  0.00  0.00    +0.000 C 
ATOM      2  C   UNL     1      29.398  24.233  23.292  0.00  0.00    +0.000 C 
ATOM      3  C   UNL     1      28.136  23.461  23.049  0.00  0.00    +0.000 C 
ATOM      4  O   UNL     1      27.739  23.142  21.937  0.00  0.00    +0.000 OA
ATOM      5  N   UNL     1      27.440  23.134  24.283  0.00  0.00    +0.000 NA
ATOM      6  C   UNL     1      28.286  22.932  25.418  0.00  0.00    +0.000 A 
ATOM      7  C   UNL     1      27.663  22.704  26.660  0.00  0.00    +0.000 A 
ATOM      8  C   UNL     1      28.418  22.581  27.800  0.00  0.00    +0.000 A 
ATOM      9  C   UNL     1      27.826  22.340  29.142  0.00  0.00    +0.000 C 
ATOM     10  C   UNL     1      29.788  22.683  27.714  0.00  0.00    +0.000 A 
ATOM     11  C   UNL     1      30.612  22.547  28.980  0.00  0.00    +0.000 C 
ATOM     12  C   UNL     1      30.364  22.902  26.504  0.00  0.00    +0.000 A 
ATOM     13  C   UNL     1      29.613  23.025  25.357  0.00  0.00    +0.000 A 
ENDROOT
BRANCH   1  18
ATOM     14  C   UNL     1      31.884  26.416  25.181  0.00  0.00    +0.000 A 
ATOM     15  C   UNL     1      33.225  26.106  25.334  0.00  0.00    +0.000 A 
ATOM     16  C   UNL     1      33.662  24.813  25.051  0.00  0.00    +0.000 A 
ATOM     17  C   UNL     1      32.765  23.858  24.623  0.00  0.00    +0.000 A 
ATOM     18  C   UNL     1      31.497  24.162  24.481  0.00  0.00    +0.000 A 
ATOM     19  C   UNL     1      31.022  25.450  24.756  0.00  0.00    +0.000 A 
BRANCH  14  21
ATOM     20  C   UNL     1      30.333  28.260  24.690  0.00  0.00    +0.000 C 
ATOM     21  O   UNL     1      31.381  27.682  25.444  0.00  0.00    +0.000 OA
ENDBRANCH  14  21
ENDBRANCH   1  18
TORSDOF 2
ENDMDL
MODEL 7
REMARK VINA RESULT:      -6.5      2.851      4.594
REMARK  Name = 
REMARK  2 active torsions:
REMARK  status: ('A' for Active; 'I' for Inactive)
REMARK    1  A    between atoms: O_2  and  C_3
REMARK    2  A    between atoms: C_7  and  C_8
REMARK                            x       y       z     vdW  Elec       q    Type
REMARK                         _______ _______ _______ _____ _____    ______ ____
ROOT
ATOM      1  C   UNL     1      30.441  23.231  24.115  0.00  0.00    +0.000 C 
ATOM      2  C   UNL     1      29.438  24.237  23.386  0.00  0.00    +0.000 C 
ATOM      3  C   UNL     1      28.215  23.404  23.140  0.00  0.00    +0.000 C 
ATOM      4  O   UNL     1      27.843  23.058  22.028  0.00  0.00    +0.000 OA
ATOM      5  N   UNL     1      27.523  23.058  24.371  0.00  0.00    +0.000 NA
ATOM      6  C   UNL     1      28.367  22.906  25.516  0.00  0.00    +0.000 A 
ATOM      7  C   UNL     1      27.744  22.661  26.754  0.00  0.00    +0.000 A 
ATOM      8  C   UNL     1      28.494  22.584  27.902  0.00  0.00    +0.000 A 
ATOM      9  C   UNL     1      27.901  22.328  29.240  0.00  0.00    +0.000 C 
ATOM     10  C   UNL     1      29.858  22.749  27.827  0.00  0.00    +0.000 A 
ATOM     11  C   UNL     1      30.675  22.663  29.101  0.00  0.00    +0.000 C 
ATOM     12  C   UNL     1      30.435  22.983  26.619  0.00  0.00    +0.000 A 
ATOM     13  C   UNL     1      29.690  23.059  25.465  0.00  0.00    +0.000 A 
ENDROOT
BRANCH   1  18
ATOM     14  C   UNL     1      33.884  24.578  24.860  0.00  0.00    +0.000 A 
ATOM     15  C   UNL     1      33.635  25.850  25.347  0.00  0.00    +0.000 A 
ATOM     16  C   UNL     1      32.317  26.298  25.442  0.00  0.00    +0.000 A 
ATOM     17  C   UNL     1      31.280  25.478  25.054  0.00  0.00    +0.000 A 
ATOM     18  C   UNL     1      31.526  24.275  24.594  0.00  0.00    +0.000 A 
ATOM     19  C   UNL     1      32.836  23.792  24.485  0.00  0.00    +0.000 A 
BRANCH  14  21
ATOM     20  C   UNL     1      36.249  24.833  24.237  0.00  0.00    +0.000 C 
ATOM     21  O   UNL     1      35.169  24.069  24.739  0.00  0.00    +0.000 OA
ENDBRANCH  14  21
ENDBRANCH   1  18
TORSDOF 2
ENDMDL
MODEL 8
REMARK VINA RESULT:      -6.4     32.997     35.608
REMARK  Name = 
REMARK  2 active torsions:
REMARK  status: ('A' for Active; 'I' for Inactive)
REMARK    1  A    between atoms: O_2  and  C_3
REMARK    2  A    between atoms: C_7  and  C_8
REMARK                            x       y       z     vdW  Elec       q    Type
REMARK                         _______ _______ _______ _____ _____    ______ ____
ROOT
ATOM      1  C   UNL     1      18.548  -7.528  27.669  0.00  0.00    +0.000 C 
ATOM      2  C   UNL     1      17.753  -6.728  26.538  0.00  0.00    +0.000 C 
ATOM      3  C   UNL     1      18.636  -5.552  26.246  0.00  0.00    +0.000 C 
ATOM      4  O   UNL     1      18.345  -4.398  26.529  0.00  0.00    +0.000 OA
ATOM      5  N   UNL     1      19.875  -5.938  25.590  0.00  0.00    +0.000 NA
ATOM      6  C   UNL     1      20.371  -7.230  25.948  0.00  0.00    +0.000 A 
ATOM      7  C   UNL     1      21.517  -7.696  25.277  0.00  0.00    +0.000 A 
ATOM      8  C   UNL     1      21.996  -8.960  25.519  0.00  0.00    +0.000 A 
ATOM      9  C   UNL     1      23.199  -9.513  24.845  0.00  0.00    +0.000 C 
ATOM     10  C   UNL     1      21.343  -9.764  26.425  0.00  0.00    +0.000 A 
ATOM     11  C   UNL     1      21.880 -11.158  26.685  0.00  0.00    +0.000 C 
ATOM     12  C   UNL     1      20.240  -9.290  27.062  0.00  0.00    +0.000 A 
ATOM     13  C   UNL     1      19.756  -8.024  26.824  0.00  0.00    +0.000 A 
ENDROOT
BRANCH   1  18
ATOM     14  C   UNL     1      16.879 -10.598  29.083  0.00  0.00    +0.000 A 
ATOM     15  C   UNL     1      16.299 -11.192  27.974  0.00  0.00    +0.000 A 
ATOM     16  C   UNL     1      16.445 -10.589  26.725  0.00  0.00    +0.000 A 
ATOM     17  C   UNL     1      17.160  -9.417  26.602  0.00  0.00    +0.000 A 
ATOM     18  C   UNL     1      17.706  -8.864  27.659  0.00  0.00    +0.000 A 
ATOM     19  C   UNL     1      17.579  -9.441  28.929  0.00  0.00    +0.000 A 
BRANCH  14  21
ATOM     20  C   UNL     1      16.677 -10.348  31.521  0.00  0.00    +0.000 C 
ATOM     21  O   UNL     1      16.773 -11.143  30.355  0.00  0.00    +0.000 OA
ENDBRANCH  14  21
ENDBRANCH   1  18
TORSDOF 2
ENDMDL
MODEL 9
REMARK VINA RESULT:      -6.4     20.583     21.884
REMARK  Name = 
REMARK  2 active torsions:
REMARK  status: ('A' for Active; 'I' for Inactive)
REMARK    1  A    between atoms: O_2  and  C_3
REMARK    2  A    between atoms: C_7  and  C_8
REMARK                            x       y       z     vdW  Elec       q    Type
REMARK                         _______ _______ _______ _____ _____    ______ ____
ROOT
ATOM      1  C   UNL     1      21.191  10.083  38.217  0.00  0.00    +0.000 C 
ATOM      2  C   UNL     1      20.287   9.776  36.937  0.00  0.00    +0.000 C 
ATOM      3  C   UNL     1      18.890  10.034  37.416  0.00  0.00    +0.000 C 
ATOM      4  O   UNL     1      18.051   9.157  37.567  0.00  0.00    +0.000 OA
ATOM      5  N   UNL     1      18.647  11.443  37.680  0.00  0.00    +0.000 NA
ATOM      6  C   UNL     1      19.787  12.179  38.131  0.00  0.00    +0.000 A 
ATOM      7  C   UNL     1      19.634  13.566  38.315  0.00  0.00    +0.000 A 
ATOM      8  C   UNL     1      20.711  14.340  38.670  0.00  0.00    +0.000 A 
ATOM      9  C   UNL     1      20.619  15.808  38.880  0.00  0.00    +0.000 C 
ATOM     10  C   UNL     1      21.939  13.744  38.843  0.00  0.00    +0.000 A 
ATOM     11  C   UNL     1      23.122  14.608  39.234  0.00  0.00    +0.000 C 
ATOM     12  C   UNL     1      22.060  12.403  38.661  0.00  0.00    +0.000 A 
ATOM     13  C   UNL     1      20.984  11.622  38.307  0.00  0.00    +0.000 A 
ENDROOT
BRANCH   1  18
ATOM     14  C   UNL     1      24.925   9.650  37.918  0.00  0.00    +0.000 A 
ATOM     15  C   UNL     1      25.186   9.995  36.603  0.00  0.00    +0.000 A 
ATOM     16  C   UNL     1      24.131  10.382  35.777  0.00  0.00    +0.000 A 
ATOM     17  C   UNL     1      22.845  10.418  36.271  0.00  0.00    +0.000 A 
ATOM     18  C   UNL     1      22.608  10.089  37.518  0.00  0.00    +0.000 A 
ATOM     19  C   UNL     1      23.642   9.696  38.376  0.00  0.00    +0.000 A 
BRANCH  14  21
ATOM     20  C   UNL     1      27.228   8.912  38.361  0.00  0.00    +0.000 C 
ATOM     21  O   UNL     1      25.926   9.256  38.794  0.00  0.00    +0.000 OA
ENDBRANCH  14  21
ENDBRANCH   1  18
TORSDOF 2
ENDMDL
MODEL 10
REMARK VINA RESULT:      -6.4     32.872     35.423
REMARK  Name = 
REMARK  2 active torsions:
REMARK  status: ('A' for Active; 'I' for Inactive)
REMARK    1  A    between atoms: O_2  and  C_3
REMARK    2  A    between atoms: C_7  and  C_8
REMARK                            x       y       z     vdW  Elec       q    Type
REMARK                         _______ _______ _______ _____ _____    ______ ____
ROOT
ATOM      1  C   UNL     1      18.459  -7.478  27.734  0.00  0.00    +0.000 C 
ATOM      2  C   UNL     1      17.699  -6.675  26.583  0.00  0.00    +0.000 C 
ATOM      3  C   UNL     1      18.624  -5.537  26.270  0.00  0.00    +0.000 C 
ATOM      4  O   UNL     1      18.374  -4.368  26.526  0.00  0.00    +0.000 OA
ATOM      5  N   UNL     1      19.851  -5.982  25.628  0.00  0.00    +0.000 NA
ATOM      6  C   UNL     1      20.299  -7.283  26.017  0.00  0.00    +0.000 A 
ATOM      7  C   UNL     1      21.431  -7.803  25.361  0.00  0.00    +0.000 A 
ATOM      8  C   UNL     1      21.863  -9.078  25.634  0.00  0.00    +0.000 A 
ATOM      9  C   UNL     1      23.048  -9.689  24.977  0.00  0.00    +0.000 C 
ATOM     10  C   UNL     1      21.177  -9.839  26.553  0.00  0.00    +0.000 A 
ATOM     11  C   UNL     1      21.663 -11.245  26.845  0.00  0.00    +0.000 C 
ATOM     12  C   UNL     1      20.089  -9.312  27.174  0.00  0.00    +0.000 A 
ATOM     13  C   UNL     1      19.652  -8.035  26.906  0.00  0.00    +0.000 A 
ENDROOT
BRANCH   1  18
ATOM     14  C   UNL     1      15.981 -10.014  26.453  0.00  0.00    +0.000 A 
ATOM     15  C   UNL     1      15.919 -10.950  27.472  0.00  0.00    +0.000 A 
ATOM     16  C   UNL     1      16.699 -10.766  28.613  0.00  0.00    +0.000 A 
ATOM     17  C   UNL     1      17.519  -9.664  28.720  0.00  0.00    +0.000 A 
ATOM     18  C   UNL     1      17.569  -8.783  27.749  0.00  0.00    +0.000 A 
ATOM     19  C   UNL     1      16.801  -8.935  26.589  0.00  0.00    +0.000 A 
BRANCH  14  21
ATOM     20  C   UNL     1      14.228  -9.207  24.929  0.00  0.00    +0.000 C 
ATOM     21  O   UNL     1      15.233 -10.135  25.290  0.00  0.00    +0.000 OA
ENDBRANCH  14  21
ENDBRANCH   1  18
TORSDOF 2
ENDMDL
