
     RDKit          3D

 17 18  0  0  0  0  0  0  0  0999 V2000
    5.3406   -1.0585    0.0481 O   0  0  0  0  0  0  0  0  0  0  0  0
    3.9579   -0.8288    0.0569 C   0  0  0  0  0  0  0  0  0  0  0  0
    3.1670   -1.3386    1.0642 C   0  0  0  0  0  0  0  0  0  0  0  0
    1.8068   -1.1107    1.0698 C   0  0  0  0  0  0  0  0  0  0  0  0
    1.1785   -0.3742    0.0856 C   0  0  0  0  0  0  0  0  0  0  0  0
   -0.2537   -0.1080    0.0506 C   0  0  0  0  0  0  0  0  0  0  0  0
   -1.1651   -1.1143    0.2951 C   0  0  0  0  0  0  0  0  0  0  0  0
   -2.5258   -0.8821    0.2665 C   0  0  0  0  0  0  0  0  0  0  0  0
   -3.6865   -2.1648    0.5781 Cl  0  0  0  0  0  0  0  0  0  0  0  0
   -3.0412    0.3678   -0.0080 C   0  0  0  0  0  0  0  0  0  0  0  0
   -4.7756    0.6506   -0.0415 Cl  0  0  0  0  0  0  0  0  0  0  0  0
   -2.1348    1.3789   -0.2536 C   0  0  0  0  0  0  0  0  0  0  0  0
   -2.7902    2.9711   -0.6033 Cl  0  0  0  0  0  0  0  0  0  0  0  0
   -0.7764    1.1384   -0.2230 C   0  0  0  0  0  0  0  0  0  0  0  0
    0.3503    2.4394   -0.5383 Cl  0  0  0  0  0  0  0  0  0  0  0  0
    1.9934    0.1233   -0.9089 C   0  0  0  0  0  0  0  0  0  0  0  0
    3.3547   -0.0895   -0.9383 C   0  0  0  0  0  0  0  0  0  0  0  0
  1  2  1  0
  2  3  2  0
  3  4  1  0
  4  5  2  0
  5  6  1  0
  6  7  2  0
  7  8  1  0
  8  9  1  0
  8 10  2  0
 10 11  1  0
 10 12  1  0
 12 13  1  0
 12 14  2  0
 14 15  1  0
  5 16  1  0
 16 17  2  0
 17  2  1  0
 14  6  1  0
M  END
>  <zinc_id>  (1) 
ZINC000002526173

>  <smiles>  (1) 
Oc1ccc(-c2cc(Cl)c(Cl)c(Cl)c2Cl)cc1

$$$$
