
     RDKit          3D

 20 23  0  0  0  0  0  0  0  0999 V2000
    2.3148    0.5681   -1.6068 C   0  0  0  0  0  0  0  0  0  0  0  0
    2.2656   -0.4376   -0.5879 C   0  0  2  0  0  0  0  0  0  0  0  0
    1.3933   -1.5438   -0.5877 C   0  0  0  0  0  0  0  0  0  0  0  0
    0.3662   -1.8134    0.3482 C   0  0  0  0  0  0  0  0  0  0  0  0
   -0.3382   -0.5783    1.0519 C   0  0  2  0  0  0  0  0  0  0  0  0
   -1.5856   -0.4660   -0.0951 C   0  0  1  0  0  0  0  0  0  0  0  0
   -2.6074   -1.4336    0.7002 C   0  0  0  0  0  0  0  0  0  0  0  0
   -3.7666   -1.4293   -0.3372 C   0  0  0  0  0  0  0  0  0  0  0  0
   -3.9514   -0.0009   -0.8026 C   0  0  0  0  0  0  0  0  0  0  0  0
   -4.5618    0.1815   -1.8656 O   0  0  0  0  0  0  0  0  0  0  0  0
   -3.3737    1.0018    0.0803 C   0  0  0  0  0  0  0  0  0  0  0  0
   -2.1379    0.8714    0.5234 C   0  0  0  0  0  0  0  0  0  0  0  0
   -1.4310    1.7323    1.3741 C   0  0  0  0  0  0  0  0  0  0  0  0
    0.0463    1.7002    1.4616 C   0  0  0  0  0  0  0  0  0  0  0  0
    0.4331    0.6933    0.2867 C   0  0  1  0  0  0  0  0  0  0  0  0
    1.9231    0.2120    0.8742 C   0  0  2  0  0  0  0  0  0  0  0  0
    2.8019    1.5056    0.5097 C   0  0  0  0  0  0  0  0  0  0  0  0
    4.0944    0.8898    0.0133 C   0  0  0  0  0  0  0  0  0  0  0  0
    3.7450   -0.7153    0.0203 C   0  0  2  0  0  0  0  0  0  0  0  0
    4.3699   -0.9377   -1.3610 O   0  0  0  0  0  0  0  0  0  0  0  0
  2  1  1  6
  2  3  1  0
  3  4  1  0
  5  4  1  6
  5  6  1  0
  6  7  1  1
  7  8  1  0
  8  9  1  0
  9 10  2  0
  9 11  1  0
 11 12  2  0
 12 13  1  0
 13 14  1  0
 15 14  1  1
 15 16  1  0
 16 17  1  6
 17 18  1  0
 18 19  1  0
 19 20  1  6
 16  2  1  0
 19  2  1  0
 15  5  1  0
 12  6  1  0
M  END
>  <zinc_id>  (1) 
ZINC000003814379

>  <smiles>  (1) 
C[C@]12CC[C@@H]3[C@H]4CCC(=O)C=C4CC[C@H]3[C@@H]1CC[C@@H]2O

$$$$
