
     RDKit          3D

 23 26  0  0  0  0  0  0  0  0999 V2000
    4.3571    0.8926    2.2261 C   0  0  0  0  0  0  0  0  0  0  0  0
    4.1071    0.3130    1.1945 C   0  0  0  0  0  0  0  0  0  0  0  0
    3.7965   -0.4147   -0.0492 C   0  0  2  0  0  0  0  0  0  0  0  0
    4.6899   -1.4356   -0.1716 O   0  0  0  0  0  0  0  0  0  0  0  0
    3.9096    0.6313   -1.1524 C   0  0  0  0  0  0  0  0  0  0  0  0
    2.5262    1.2957   -1.2258 C   0  0  0  0  0  0  0  0  0  0  0  0
    1.8944    0.7837    0.1725 C   0  0  1  0  0  0  0  0  0  0  0  0
    0.3645    0.4901   -0.4449 C   0  0  2  0  0  0  0  0  0  0  0  0
   -0.1778    1.9649   -0.1686 C   0  0  0  0  0  0  0  0  0  0  0  0
   -1.5277    1.8242   -0.8971 C   0  0  0  0  0  0  0  0  0  0  0  0
   -2.2219    0.7351   -0.1623 C   0  0  0  0  0  0  0  0  0  0  0  0
   -3.5996    0.6430   -0.4419 C   0  0  0  0  0  0  0  0  0  0  0  0
   -4.3794   -0.3046    0.1514 C   0  0  0  0  0  0  0  0  0  0  0  0
   -5.7571   -0.4166   -0.1115 O   0  0  0  0  0  0  0  0  0  0  0  0
   -6.3592    0.4873   -1.0260 C   0  0  0  0  0  0  0  0  0  0  0  0
   -3.7917   -1.1784    1.0369 C   0  0  0  0  0  0  0  0  0  0  0  0
   -2.4084   -1.0805    1.3131 C   0  0  0  0  0  0  0  0  0  0  0  0
   -1.6456   -0.1245    0.7083 C   0  0  0  0  0  0  0  0  0  0  0  0
   -0.1429   -0.1005    1.0780 C   0  0  1  0  0  0  0  0  0  0  0  0
    0.2231   -1.6250    0.6561 C   0  0  0  0  0  0  0  0  0  0  0  0
    1.7491   -1.6008    0.8494 C   0  0  0  0  0  0  0  0  0  0  0  0
    2.3740   -0.7536   -0.1430 C   0  0  2  0  0  0  0  0  0  0  0  0
    2.0197   -1.0260   -1.5803 C   0  0  0  0  0  0  0  0  0  0  0  0
  1  2  3  0
  2  3  1  0
  3  4  1  6
  3  5  1  0
  5  6  1  0
  7  6  1  6
  7  8  1  0
  8  9  1  1
  9 10  1  0
 10 11  1  0
 11 12  2  0
 12 13  1  0
 13 14  1  0
 14 15  1  0
 13 16  2  0
 16 17  1  0
 17 18  2  0
 18 19  1  0
 19 20  1  6
 20 21  1  0
 21 22  1  0
 22 23  1  6
 22  3  1  0
 22  7  1  0
 19  8  1  0
 18 11  1  0
M  END
>  <zinc_id>  (1) 
ZINC000003815424

>  <smiles>  (1) 
C#C[C@]1(O)CC[C@H]2[C@@H]3CCc4cc(OC)ccc4[C@H]3CC[C@@]21C

$$$$
