
     RDKit          3D

 18 20  0  0  0  0  0  0  0  0999 V2000
    5.8105    0.5182    0.5914 O   0  0  0  0  0  0  0  0  0  0  0  0
    4.4638    0.1564    0.4817 C   0  0  0  0  0  0  0  0  0  0  0  0
    3.4879    1.1043    0.4049 C   0  0  0  0  0  0  0  0  0  0  0  0
    2.1697    0.7361    0.2976 C   0  0  0  0  0  0  0  0  0  0  0  0
    1.8317   -0.5273    0.2675 C   0  0  0  0  0  0  0  0  0  0  0  0
    0.3530   -1.1053    0.1468 C   0  0  2  0  0  0  0  0  0  0  0  0
    0.1150   -0.5167   -1.3610 C   0  0  0  0  0  0  0  0  0  0  0  0
   -0.7315    0.5692   -1.3487 O   0  0  0  0  0  0  0  0  0  0  0  0
   -1.9632    0.4079   -0.7460 C   0  0  0  0  0  0  0  0  0  0  0  0
   -3.2042    0.5100   -1.3309 C   0  0  0  0  0  0  0  0  0  0  0  0
   -4.3311    0.3163   -0.5553 C   0  0  0  0  0  0  0  0  0  0  0  0
   -5.6163    0.4034   -1.0743 O   0  0  0  0  0  0  0  0  0  0  0  0
   -4.1782    0.0255    0.7843 C   0  0  0  0  0  0  0  0  0  0  0  0
   -2.9087   -0.0765    1.3707 C   0  0  0  0  0  0  0  0  0  0  0  0
   -1.7933    0.1173    0.5948 C   0  0  0  0  0  0  0  0  0  0  0  0
   -0.4048    0.0612    1.0284 C   0  0  0  0  0  0  0  0  0  0  0  0
    2.7707   -1.5242    0.3412 C   0  0  0  0  0  0  0  0  0  0  0  0
    4.1289   -1.1756    0.4517 C   0  0  0  0  0  0  0  0  0  0  0  0
  1  2  1  0
  2  3  2  0
  3  4  1  0
  4  5  2  0
  6  5  1  1
  6  7  1  0
  7  8  1  0
  8  9  1  0
  9 10  2  0
 10 11  1  0
 11 12  1  0
 11 13  2  0
 13 14  1  0
 14 15  2  0
 15 16  1  0
  5 17  1  0
 17 18  2  0
 18  2  1  0
 16  6  1  0
 15  9  1  0
M  END
>  <zinc_id>  (1) 
ZINC000000388660

>  <smiles>  (1) 
Oc1ccc([C@@H]2COc3cc(O)ccc3C2)cc1

$$$$
