
     RDKit          3D

 21 24  0  0  0  0  0  0  0  0999 V2000
    4.5185    2.0141    0.1804 C   0  0  0  0  0  0  0  0  0  0  0  0
    3.4687    0.9602    0.0035 C   0  0  0  0  0  0  0  0  0  0  0  0
    2.1970    1.3580   -0.2406 C   0  0  0  0  0  0  0  0  0  0  0  0
    1.1987    0.3607   -0.4089 C   0  0  0  0  0  0  0  0  0  0  0  0
    1.4626   -0.9041   -0.3375 C   0  0  0  0  0  0  0  0  0  0  0  0
    2.7421   -1.3142   -0.0916 C   0  0  0  0  0  0  0  0  0  0  0  0
    3.7848   -0.3842    0.0864 C   0  0  0  0  0  0  0  0  0  0  0  0
    5.0831   -0.7405    0.3349 O   0  0  0  0  0  0  0  0  0  0  0  0
    0.4356   -1.9117   -0.5221 C   0  0  0  0  0  0  0  0  0  0  0  0
   -0.3835   -1.2790   -1.6214 C   0  0  0  0  0  0  0  0  0  0  0  0
   -1.2438   -0.0888   -1.0495 C   0  0  1  0  0  0  0  0  0  0  0  0
   -1.5173   -0.7524    0.4840 C   0  0  2  0  0  0  0  0  0  0  0  0
   -2.5970   -1.8602    0.0736 C   0  0  0  0  0  0  0  0  0  0  0  0
   -3.3606   -1.1264   -0.8489 C   0  0  0  0  0  0  0  0  0  0  0  0
   -3.9688    0.1069    0.1380 C   0  0  2  0  0  0  0  0  0  0  0  0
   -3.6832    1.1891   -0.9297 O   0  0  0  0  0  0  0  0  0  0  0  0
   -2.5914    0.3174    0.9912 C   0  0  1  0  0  0  0  0  0  0  0  0
   -2.8955   -0.0422    2.4019 C   0  0  0  0  0  0  0  0  0  0  0  0
   -1.9878    1.6068    0.7312 C   0  0  0  0  0  0  0  0  0  0  0  0
   -0.4958    1.3770    0.9217 C   0  0  0  0  0  0  0  0  0  0  0  0
   -0.1661    1.1134   -0.6665 C   0  0  1  0  0  0  0  0  0  0  0  0
  1  2  1  0
  2  3  2  0
  3  4  1  0
  4  5  2  0
  5  6  1  0
  6  7  2  0
  7  8  1  0
  5  9  1  0
  9 10  1  0
 11 10  1  6
 11 12  1  0
 12 13  1  6
 13 14  1  0
 14 15  1  0
 15 16  1  6
 15 17  1  0
 17 18  1  1
 17 19  1  0
 19 20  1  0
 21 20  1  1
  7  2  1  0
 21 11  1  0
 21  4  1  0
 17 12  1  0
M  END
>  <zinc_id>  (1) 
ZINC000003815437

>  <smiles>  (1) 
Cc1cc2c(cc1O)CC[C@H]1[C@@H]3CC[C@H](O)[C@]3(C)CC[C@@H]21

$$$$
