
     RDKit          3D

 20 21  0  0  0  0  0  0  0  0999 V2000
   -4.8061   -2.6651    0.1126 C   0  0  0  0  0  0  0  0  0  0  0  0
   -4.2689   -1.5828   -0.6222 O   0  0  0  0  0  0  0  0  0  0  0  0
   -3.1198   -0.9244   -0.2066 C   0  0  0  0  0  0  0  0  0  0  0  0
   -2.5033   -1.3485    0.9487 C   0  0  0  0  0  0  0  0  0  0  0  0
   -1.3399   -0.7034    1.3952 C   0  0  0  0  0  0  0  0  0  0  0  0
   -0.8352    0.3411    0.6715 C   0  0  0  0  0  0  0  0  0  0  0  0
    0.4834    1.0122    1.2370 C   0  0  1  0  0  0  0  0  0  0  0  0
    1.5223    0.1989    0.3785 C   0  0  0  0  0  0  0  0  0  0  0  0
    2.1279    0.6046   -0.7101 C   0  0  0  0  0  0  0  0  0  0  0  0
    3.0184   -0.1813   -1.3865 C   0  0  0  0  0  0  0  0  0  0  0  0
    3.3074   -1.4420   -0.9338 C   0  0  0  0  0  0  0  0  0  0  0  0
    4.2291   -2.2715   -1.6232 O   0  0  0  0  0  0  0  0  0  0  0  0
    2.6895   -1.9029    0.2082 C   0  0  0  0  0  0  0  0  0  0  0  0
    1.7963   -1.0760    0.8609 C   0  0  0  0  0  0  0  0  0  0  0  0
    0.4444    2.3946    0.3841 C   0  0  0  0  0  0  0  0  0  0  0  0
    0.4626    2.1620   -1.3093 Cl  0  0  0  0  0  0  0  0  0  0  0  0
   -1.0726    3.1255    0.9619 Cl  0  0  0  0  0  0  0  0  0  0  0  0
    1.8387    3.3430    0.9867 Cl  0  0  0  0  0  0  0  0  0  0  0  0
   -1.4060    0.7886   -0.4637 C   0  0  0  0  0  0  0  0  0  0  0  0
   -2.5682    0.1276   -0.8899 C   0  0  0  0  0  0  0  0  0  0  0  0
  1  2  1  0
  2  3  1  0
  3  4  2  0
  4  5  1  0
  5  6  2  0
  6  7  1  0
  7  8  1  0
  8  9  2  0
  9 10  1  0
 10 11  2  0
 11 12  1  0
 11 13  1  0
 13 14  2  0
  7 15  1  6
 15 16  1  0
 15 17  1  0
 15 18  1  0
  6 19  1  0
 19 20  2  0
 20  3  1  0
 14  8  1  0
M  END
>  <zinc_id>  (1) 
ZINC000003815428

>  <smiles>  (1) 
COc1ccc([C@@H](c2ccc(O)cc2)C(Cl)(Cl)Cl)cc1

$$$$
