
     RDKit          3D

 24 27  0  0  0  0  0  0  0  0999 V2000
   -2.5527   -5.2762    0.0353 O   0  0  0  0  0  0  0  0  0  0  0  0
   -2.2191   -3.9168    0.0239 C   0  0  0  0  0  0  0  0  0  0  0  0
   -2.6210   -3.0782   -0.9931 C   0  0  0  0  0  0  0  0  0  0  0  0
   -2.2665   -1.7235   -0.9677 C   0  0  0  0  0  0  0  0  0  0  0  0
   -1.5155   -1.1869    0.0570 C   0  0  0  0  0  0  0  0  0  0  0  0
   -1.1630    0.2288    0.0517 C   0  0  0  0  0  0  0  0  0  0  0  0
   -1.9450    1.2775    0.0710 O   0  0  0  0  0  0  0  0  0  0  0  0
   -1.2691    2.4046    0.0580 C   0  0  0  0  0  0  0  0  0  0  0  0
   -1.6253    3.7428    0.0684 C   0  0  0  0  0  0  0  0  0  0  0  0
   -0.6925    4.7441    0.0495 C   0  0  0  0  0  0  0  0  0  0  0  0
   -1.0706    6.1002    0.0604 O   0  0  0  0  0  0  0  0  0  0  0  0
    0.6417    4.3971    0.0192 C   0  0  0  0  0  0  0  0  0  0  0  0
    1.0459    3.0617    0.0076 C   0  0  0  0  0  0  0  0  0  0  0  0
    0.0679    2.0888    0.0276 C   0  0  0  0  0  0  0  0  0  0  0  0
    0.1387    0.7109    0.0235 C   0  0  0  0  0  0  0  0  0  0  0  0
    1.3232   -0.1375   -0.0047 C   0  0  0  0  0  0  0  0  0  0  0  0
    2.1871   -0.0555   -1.0748 C   0  0  0  0  0  0  0  0  0  0  0  0
    3.3323   -0.8292   -1.1732 C   0  0  0  0  0  0  0  0  0  0  0  0
    3.6157   -1.7211   -0.1494 C   0  0  0  0  0  0  0  0  0  0  0  0
    4.7679   -2.5268   -0.2074 O   0  0  0  0  0  0  0  0  0  0  0  0
    2.7737   -1.8244    0.9285 C   0  0  0  0  0  0  0  0  0  0  0  0
    1.6482   -1.0365    0.9841 C   0  0  0  0  0  0  0  0  0  0  0  0
   -1.1290   -2.0505    1.0589 C   0  0  0  0  0  0  0  0  0  0  0  0
   -1.4731   -3.3932    1.0458 C   0  0  0  0  0  0  0  0  0  0  0  0
  1  2  1  0
  2  3  2  0
  3  4  1  0
  4  5  2  0
  5  6  1  0
  6  7  1  0
  7  8  1  0
  8  9  2  0
  9 10  1  0
 10 11  1  0
 10 12  2  0
 12 13  1  0
 13 14  2  0
 14 15  1  0
 15 16  1  0
 16 17  2  0
 17 18  1  0
 18 19  2  0
 19 20  1  0
 19 21  1  0
 21 22  2  0
  5 23  1  0
 23 24  2  0
 24  2  1  0
 15  6  2  0
 22 16  1  0
 14  8  1  0
M  END
>  <zinc_id>  (1) 
ZINC000003815445

>  <smiles>  (1) 
Oc1ccc(-c2oc3cc(O)ccc3c2-c2ccc(O)cc2)cc1

$$$$
