
     RDKit          3D

 20 21  0  0  0  0  0  0  0  0999 V2000
   -0.2194    0.4005    2.2175 C   0  0  0  0  0  0  0  0  0  0  0  0
    0.0785    1.4386    1.2225 C   0  0  0  0  0  0  0  0  0  0  0  0
   -0.2548    0.9287   -0.2638 C   0  0  2  0  0  0  0  0  0  0  0  0
   -1.7661    0.6339   -0.0952 C   0  0  0  0  0  0  0  0  0  0  0  0
   -2.2668   -0.3244   -0.9415 C   0  0  0  0  0  0  0  0  0  0  0  0
   -3.6272   -0.6858   -0.8904 C   0  0  0  0  0  0  0  0  0  0  0  0
   -4.4633   -0.0711    0.0184 C   0  0  0  0  0  0  0  0  0  0  0  0
   -5.9272   -0.4427    0.0916 C   0  0  0  0  0  0  0  0  0  0  0  0
   -3.9390    0.8885    0.8586 C   0  0  0  0  0  0  0  0  0  0  0  0
   -2.5783    1.2296    0.7861 C   0  0  0  0  0  0  0  0  0  0  0  0
    0.2491   -0.6492    0.0422 C   0  0  1  0  0  0  0  0  0  0  0  0
   -0.0847   -1.1657   -1.4511 C   0  0  0  0  0  0  0  0  0  0  0  0
    0.3301   -2.6277   -1.3343 C   0  0  0  0  0  0  0  0  0  0  0  0
    1.7631   -0.3113   -0.1460 C   0  0  0  0  0  0  0  0  0  0  0  0
    2.3864   -0.1110   -1.2961 C   0  0  0  0  0  0  0  0  0  0  0  0
    3.7245    0.1802   -1.3315 C   0  0  0  0  0  0  0  0  0  0  0  0
    4.4573    0.2727   -0.1743 C   0  0  0  0  0  0  0  0  0  0  0  0
    5.8387    0.5742   -0.2266 O   0  0  0  0  0  0  0  0  0  0  0  0
    3.8341    0.0691    1.0337 C   0  0  0  0  0  0  0  0  0  0  0  0
    2.4648   -0.2271    1.0373 C   0  0  0  0  0  0  0  0  0  0  0  0
  1  2  1  0
  3  2  1  1
  3  4  1  0
  4  5  2  0
  5  6  1  0
  6  7  2  0
  7  8  1  0
  7  9  1  0
  9 10  2  0
  3 11  1  0
 11 12  1  6
 12 13  1  0
 11 14  1  0
 14 15  2  0
 15 16  1  0
 16 17  2  0
 17 18  1  0
 17 19  1  0
 19 20  2  0
 10  4  1  0
 20 14  1  0
M  END
>  <zinc_id>  (1) 
ZINC000002048444

>  <smiles>  (1) 
CC[C@H](c1ccc(C)cc1)[C@@H](CC)c1ccc(O)cc1

$$$$
