
     RDKit          3D

 22 25  0  0  0  0  0  0  0  0999 V2000
   -5.4208    0.2711    1.1347 C   0  0  0  0  0  0  0  0  0  0  0  0
   -4.3838    0.5380    0.5522 C   0  0  0  0  0  0  0  0  0  0  0  0
   -3.1211    0.8499   -0.1305 C   0  0  2  0  0  0  0  0  0  0  0  0
   -3.1010    2.1908   -0.4182 O   0  0  0  0  0  0  0  0  0  0  0  0
   -3.0064    0.0552   -1.3736 C   0  0  0  0  0  0  0  0  0  0  0  0
   -2.2868   -1.1576   -1.1318 C   0  0  0  0  0  0  0  0  0  0  0  0
   -1.6860   -1.0710    0.3668 C   0  0  1  0  0  0  0  0  0  0  0  0
   -0.0957   -1.1142   -0.2212 C   0  0  1  0  0  0  0  0  0  0  0  0
   -0.0560    0.2134   -1.0772 C   0  0  0  0  0  0  0  0  0  0  0  0
    1.2605    0.8450   -1.1168 C   0  0  0  0  0  0  0  0  0  0  0  0
    2.3544    0.0910   -0.4806 C   0  0  0  0  0  0  0  0  0  0  0  0
    3.6150    0.1600   -1.0389 C   0  0  0  0  0  0  0  0  0  0  0  0
    4.6315   -0.5496   -0.4401 C   0  0  0  0  0  0  0  0  0  0  0  0
    5.9443   -0.5170   -0.9677 O   0  0  0  0  0  0  0  0  0  0  0  0
    4.3491   -1.2902    0.6792 C   0  0  0  0  0  0  0  0  0  0  0  0
    3.0842   -1.3406    1.2138 C   0  0  0  0  0  0  0  0  0  0  0  0
    2.0875   -0.6390    0.6186 C   0  0  0  0  0  0  0  0  0  0  0  0
    0.6379   -0.6964    1.2360 C   0  0  1  0  0  0  0  0  0  0  0  0
    0.4100    0.8922    1.2829 C   0  0  0  0  0  0  0  0  0  0  0  0
   -0.8547    1.3233    0.8474 C   0  0  0  0  0  0  0  0  0  0  0  0
   -1.9239    0.4746    0.6428 C   0  0  1  0  0  0  0  0  0  0  0  0
   -2.4383    0.4709    2.1115 C   0  0  0  0  0  0  0  0  0  0  0  0
  1  2  3  0
  2  3  1  0
  3  4  1  6
  3  5  1  0
  5  6  1  0
  7  6  1  6
  7  8  1  0
  8  9  1  6
  9 10  1  0
 10 11  1  0
 11 12  2  0
 12 13  1  0
 13 14  1  0
 13 15  2  0
 15 16  1  0
 16 17  2  0
 17 18  1  0
 18 19  1  6
 19 20  1  0
 20 21  1  0
 21 22  1  1
 21  3  1  0
 21  7  1  0
 18  8  1  0
 17 11  1  0
M  END
>  <zinc_id>  (1) 
ZINC000001686128

>  <smiles>  (1) 
C#C[C@]1(O)CC[C@H]2[C@H]3CCc4cc(O)ccc4[C@H]3CC[C@]21C

$$$$
