
     RDKit          3D

 22 26  0  0  0  0  0  0  0  0999 V2000
    2.2745    2.2297   -0.5522 C   0  0  0  0  0  0  0  0  0  0  0  0
    2.1579    0.9345    0.2631 C   0  0  1  0  0  0  0  0  0  0  0  0
    1.5080    1.2650    1.5476 C   0  0  0  0  0  0  0  0  0  0  0  0
    0.0538    0.9817    1.5234 C   0  0  0  0  0  0  0  0  0  0  0  0
   -0.3942    0.9540   -0.0203 C   0  0  2  0  0  0  0  0  0  0  0  0
   -1.8583    0.4950    0.2496 C   0  0  0  0  0  0  0  0  0  0  0  0
   -2.5283    0.9205    1.3693 C   0  0  0  0  0  0  0  0  0  0  0  0
   -3.8505    0.5183    1.6077 C   0  0  0  0  0  0  0  0  0  0  0  0
   -4.4602   -0.3134    0.6924 C   0  0  0  0  0  0  0  0  0  0  0  0
   -5.7692   -0.6968    0.9521 O   0  0  0  0  0  0  0  0  0  0  0  0
   -3.7572   -0.7211   -0.4210 C   0  0  0  0  0  0  0  0  0  0  0  0
   -2.4357   -0.3168   -0.6562 C   0  0  0  0  0  0  0  0  0  0  0  0
   -1.7220   -0.7689   -1.8622 C   0  0  0  0  0  0  0  0  0  0  0  0
   -0.2713   -0.7119   -1.7809 C   0  0  0  0  0  0  0  0  0  0  0  0
    0.2156   -0.6005   -0.2535 C   0  0  1  0  0  0  0  0  0  0  0  0
    1.6953   -0.1316   -0.5487 C   0  0  1  0  0  0  0  0  0  0  0  0
    2.0612    0.0554   -1.9565 C   0  0  0  0  0  0  0  0  0  0  0  0
    3.5073    0.3349   -1.7654 C   0  0  0  0  0  0  0  0  0  0  0  0
    3.9490   -0.5748   -0.5217 C   0  0  2  0  0  0  0  0  0  0  0  0
    2.5466   -1.3102   -0.2388 C   0  0  0  0  0  0  0  0  0  0  0  0
    3.6961    0.6326    0.6426 C   0  0  2  0  0  0  0  0  0  0  0  0
    3.3817   -0.3567    1.7294 O   0  0  0  0  0  0  0  0  0  0  0  0
  2  1  1  6
  2  3  1  0
  3  4  1  0
  5  4  1  1
  5  6  1  0
  6  7  2  0
  7  8  1  0
  8  9  2  0
  9 10  1  0
  9 11  1  0
 11 12  2  0
 12 13  1  0
 13 14  1  0
 15 14  1  6
 15 16  1  0
 16 17  1  6
 17 18  1  0
 19 18  1  6
 19 20  1  0
 19 21  1  0
 21 22  1  1
 16  2  1  0
 21  2  1  0
 15  5  1  0
 20 16  1  0
 12  6  1  0
M  END
>  <zinc_id>  (1) 
ZINC000003815441

>  <smiles>  (1) 
C[C@@]12CC[C@@H]3c4ccc(O)cc4CC[C@H]3[C@@]13CC[C@H](C3)[C@@H]2O

$$$$
