
     RDKit          3D

 20 21  0  0  0  0  0  0  0  0999 V2000
   -2.6964   -0.1020    3.3224 C   0  0  0  0  0  0  0  0  0  0  0  0
   -1.4522   -0.1599    2.4837 C   0  0  0  0  0  0  0  0  0  0  0  0
   -1.9800    0.4275    1.0157 C   0  0  1  0  0  0  0  0  0  0  0  0
   -0.5534    0.2761    0.3291 C   0  0  0  0  0  0  0  0  0  0  0  0
   -0.3548   -0.4592   -0.7559 C   0  0  0  0  0  0  0  0  0  0  0  0
    0.8805   -0.5723   -1.3320 C   0  0  0  0  0  0  0  0  0  0  0  0
    1.9261    0.1045   -0.7508 C   0  0  0  0  0  0  0  0  0  0  0  0
    3.2069    0.0192   -1.3038 C   0  0  0  0  0  0  0  0  0  0  0  0
    4.2487    0.6994   -0.7166 C   0  0  0  0  0  0  0  0  0  0  0  0
    5.5375    0.6292   -1.2517 O   0  0  0  0  0  0  0  0  0  0  0  0
    4.0376    1.4522    0.3969 C   0  0  0  0  0  0  0  0  0  0  0  0
    2.7872    1.5586    0.9689 C   0  0  0  0  0  0  0  0  0  0  0  0
    1.7534    0.8811    0.3825 C   0  0  0  0  0  0  0  0  0  0  0  0
    0.4715    0.9621    0.9302 C   0  0  0  0  0  0  0  0  0  0  0  0
   -2.6358   -0.9805    0.5355 C   0  0  0  0  0  0  0  0  0  0  0  0
   -1.6413   -2.0332    0.4583 C   0  0  0  0  0  0  0  0  0  0  0  0
   -3.8736   -1.2419    1.2975 C   0  0  0  0  0  0  0  0  0  0  0  0
   -3.0597   -0.6343   -0.8501 C   0  0  0  0  0  0  0  0  0  0  0  0
   -2.6971   -1.2747   -1.8661 O   0  0  0  0  0  0  0  0  0  0  0  0
   -3.9052    0.4479   -1.0966 O   0  0  0  0  0  0  0  0  0  0  0  0
  1  2  1  0
  3  2  1  1
  3  4  1  0
  4  5  2  0
  5  6  1  0
  6  7  2  0
  7  8  1  0
  8  9  2  0
  9 10  1  0
  9 11  1  0
 11 12  2  0
 12 13  1  0
 13 14  2  0
  3 15  1  0
 15 16  1  0
 15 17  1  0
 15 18  1  0
 18 19  2  0
 18 20  1  0
 14  4  1  0
 13  7  1  0
M  END
>  <zinc_id>  (1) 
ZINC000002035359

>  <smiles>  (1) 
CC[C@@H](c1ccc2cc(O)ccc2c1)C(C)(C)C(=O)O

$$$$
