
     RDKit          3D

 17 18  0  0  0  0  0  0  0  0999 V2000
    0.1125   -1.6345    2.1589 C   0  0  0  0  0  0  0  0  0  0  0  0
   -0.1064   -1.2903    0.6844 C   0  0  0  0  0  0  0  0  0  0  0  0
   -0.4859   -2.5921    0.0109 C   0  0  0  0  0  0  0  0  0  0  0  0
   -1.2055   -0.3292    0.6158 C   0  0  0  0  0  0  0  0  0  0  0  0
   -1.1332    0.8530    1.3218 C   0  0  0  0  0  0  0  0  0  0  0  0
   -2.2013    1.7251    1.2203 C   0  0  0  0  0  0  0  0  0  0  0  0
   -3.3219    1.4760    0.4584 C   0  0  0  0  0  0  0  0  0  0  0  0
   -4.3984    2.3425    0.3495 O   0  0  0  0  0  0  0  0  0  0  0  0
   -3.3783    0.2916   -0.2398 C   0  0  0  0  0  0  0  0  0  0  0  0
   -2.3104   -0.5856   -0.1415 C   0  0  0  0  0  0  0  0  0  0  0  0
    1.1303   -0.7257    0.1015 C   0  0  0  0  0  0  0  0  0  0  0  0
    1.2225   -0.3882   -1.2225 C   0  0  0  0  0  0  0  0  0  0  0  0
    2.3590    0.1439   -1.8151 C   0  0  0  0  0  0  0  0  0  0  0  0
    3.4636    0.3425   -1.0089 C   0  0  0  0  0  0  0  0  0  0  0  0
    4.5994    0.8764   -1.6095 O   0  0  0  0  0  0  0  0  0  0  0  0
    3.4018    0.0137    0.3223 C   0  0  0  0  0  0  0  0  0  0  0  0
    2.2523   -0.5191    0.8991 C   0  0  0  0  0  0  0  0  0  0  0  0
  1  2  1  0
  2  3  1  0
  2  4  1  0
  4  5  2  0
  5  6  1  0
  6  7  2  0
  7  8  1  0
  7  9  1  0
  9 10  2  0
  2 11  1  0
 11 12  2  0
 12 13  1  0
 13 14  2  0
 14 15  1  0
 14 16  1  0
 16 17  2  0
 10  4  1  0
 17 11  1  0
M  END
>  <zinc_id>  (1) 
ZINC000000056434

>  <smiles>  (1) 
CC(C)(c1ccc(O)cc1)c1ccc(O)cc1

$$$$
