
     RDKit          3D

 24 27  0  0  0  0  0  0  0  0999 V2000
   -3.8232   -0.2799    2.5657 C   0  0  0  0  0  0  0  0  0  0  0  0
   -3.6177    0.2121    1.4793 C   0  0  0  0  0  0  0  0  0  0  0  0
   -3.3744    0.8243    0.1795 C   0  0  2  0  0  0  0  0  0  0  0  0
   -3.8759    2.1095    0.1189 O   0  0  0  0  0  0  0  0  0  0  0  0
   -3.8466   -0.0633   -0.9496 C   0  0  0  0  0  0  0  0  0  0  0  0
   -2.6706   -0.9345   -1.3523 C   0  0  0  0  0  0  0  0  0  0  0  0
   -1.8220   -0.7594    0.0246 C   0  0  1  0  0  0  0  0  0  0  0  0
   -0.2874   -0.7081   -0.6935 C   0  0  2  0  0  0  0  0  0  0  0  0
   -0.0579   -2.2910   -0.5950 C   0  0  0  0  0  0  0  0  0  0  0  0
    1.3039   -2.4429   -1.2298 C   0  0  0  0  0  0  0  0  0  0  0  0
    2.2422   -1.4979   -0.5782 C   0  0  0  0  0  0  0  0  0  0  0  0
    3.6049   -1.5330   -0.8899 C   0  0  0  0  0  0  0  0  0  0  0  0
    4.5266   -0.6885   -0.3091 C   0  0  0  0  0  0  0  0  0  0  0  0
    5.8547   -0.7791   -0.6639 O   0  0  0  0  0  0  0  0  0  0  0  0
    4.1399    0.2471    0.6229 C   0  0  0  0  0  0  0  0  0  0  0  0
    2.8027    0.2753    0.9225 C   0  0  0  0  0  0  0  0  0  0  0  0
    1.8912   -0.5699    0.3393 C   0  0  0  0  0  0  0  0  0  0  0  0
    0.3930   -0.4343    0.8054 C   0  0  1  0  0  0  0  0  0  0  0  0
    0.4098    1.2622    0.8257 C   0  0  1  0  0  0  0  0  0  0  0  0
    0.5152    1.5305   -0.6592 O   0  0  0  0  0  0  0  0  0  0  0  0
    0.5285    2.9080   -0.6386 C   0  0  0  0  0  0  0  0  0  0  0  0
   -1.2097    1.4985    0.9425 C   0  0  0  0  0  0  0  0  0  0  0  0
   -1.9172    0.8803   -0.0957 C   0  0  2  0  0  0  0  0  0  0  0  0
   -1.7101    1.2340   -1.5153 C   0  0  0  0  0  0  0  0  0  0  0  0
  1  2  3  0
  2  3  1  0
  3  4  1  1
  3  5  1  0
  5  6  1  0
  7  6  1  6
  7  8  1  0
  8  9  1  1
  9 10  1  0
 10 11  1  0
 11 12  2  0
 12 13  1  0
 13 14  1  0
 13 15  2  0
 15 16  1  0
 16 17  2  0
 18 17  1  6
 18 19  1  0
 19 20  1  6
 20 21  1  0
 19 22  1  0
 22 23  1  0
 23 24  1  6
 23  3  1  0
 23  7  1  0
 18  8  1  0
 17 11  1  0
M  END
>  <zinc_id>  (1) 
ZINC000003815417

>  <smiles>  (1) 
C#C[C@]1(O)CC[C@H]2[C@@H]3CCc4cc(O)ccc4[C@H]3[C@@H](OC)C[C@@]21C

$$$$
