
     RDKit          3D

 19 21  0  0  0  0  0  0  0  0999 V2000
   -0.4094   -2.3726    1.8476 C   0  0  0  0  0  0  0  0  0  0  0  0
    0.2006   -1.0068    2.1545 C   0  0  0  0  0  0  0  0  0  0  0  0
    0.5950   -0.3202    0.8502 C   0  0  0  0  0  0  0  0  0  0  0  0
   -0.3765    0.2329    0.0718 C   0  0  0  0  0  0  0  0  0  0  0  0
   -1.8238    0.2898    0.2751 C   0  0  0  0  0  0  0  0  0  0  0  0
   -2.6082    0.9151   -0.6706 C   0  0  0  0  0  0  0  0  0  0  0  0
   -3.9884    0.9826   -0.5004 C   0  0  0  0  0  0  0  0  0  0  0  0
   -4.6101    0.4418    0.5909 C   0  0  0  0  0  0  0  0  0  0  0  0
   -5.9825    0.4788    0.8136 O   0  0  0  0  0  0  0  0  0  0  0  0
   -3.8300   -0.1860    1.5419 C   0  0  0  0  0  0  0  0  0  0  0  0
   -2.4473   -0.2544    1.3729 C   0  0  0  0  0  0  0  0  0  0  0  0
    0.4900    0.8690   -1.2419 S   0  0  0  0  0  0  0  0  0  0  0  0
    2.0731    0.4209   -0.7792 C   0  0  0  0  0  0  0  0  0  0  0  0
    3.3443    0.5952   -1.3579 C   0  0  0  0  0  0  0  0  0  0  0  0
    4.4783    0.1076   -0.7312 C   0  0  0  0  0  0  0  0  0  0  0  0
    5.7096    0.2877   -1.3117 O   0  0  0  0  0  0  0  0  0  0  0  0
    4.2655   -0.5355    0.4572 C   0  0  0  0  0  0  0  0  0  0  0  0
    3.0437   -0.7220    1.0473 C   0  0  0  0  0  0  0  0  0  0  0  0
    1.8758   -0.2239    0.4087 C   0  0  0  0  0  0  0  0  0  0  0  0
  1  2  1  0
  2  3  1  0
  3  4  2  0
  4  5  1  0
  5  6  2  0
  6  7  1  0
  7  8  2  0
  8  9  1  0
  8 10  1  0
 10 11  2  0
  4 12  1  0
 12 13  1  0
 13 14  2  0
 14 15  1  0
 15 16  1  0
 15 17  2  0
 17 18  1  0
 18 19  2  0
 19  3  1  0
 11  5  1  0
 19 13  1  0
M  END
>  <zinc_id>  (1) 
ZINC000003815446

>  <smiles>  (1) 
CCc1c(-c2ccc(O)cc2)sc2cc(O)ccc12

$$$$
