
     RDKit          3D

 20 23  0  0  0  0  0  0  0  0999 V2000
   -3.6273   -1.5614    0.9994 C   0  0  0  0  0  0  0  0  0  0  0  0
   -2.3241   -0.7805    0.7335 C   0  0  1  0  0  0  0  0  0  0  0  0
   -1.4547   -0.9007    1.7933 C   0  0  0  0  0  0  0  0  0  0  0  0
   -0.1527   -0.2770    1.4627 C   0  0  0  0  0  0  0  0  0  0  0  0
    0.3217   -1.3395    0.3460 C   0  0  2  0  0  0  0  0  0  0  0  0
    1.6708   -0.5746    0.0533 C   0  0  0  0  0  0  0  0  0  0  0  0
    2.7906   -1.1658    0.6092 C   0  0  0  0  0  0  0  0  0  0  0  0
    4.0491   -0.6307    0.4528 C   0  0  0  0  0  0  0  0  0  0  0  0
    4.1670    0.5298   -0.2849 C   0  0  0  0  0  0  0  0  0  0  0  0
    5.4163    1.1270   -0.4830 O   0  0  0  0  0  0  0  0  0  0  0  0
    3.0237    1.0825   -0.8193 C   0  0  0  0  0  0  0  0  0  0  0  0
    1.7572    0.5397   -0.6592 C   0  0  0  0  0  0  0  0  0  0  0  0
    0.6224    1.2923   -1.3228 C   0  0  0  0  0  0  0  0  0  0  0  0
   -0.6577    0.7622   -0.7036 C   0  0  0  0  0  0  0  0  0  0  0  0
   -0.4612   -0.7812   -1.0217 C   0  0  2  0  0  0  0  0  0  0  0  0
   -1.9807   -1.4053   -0.6828 C   0  0  2  0  0  0  0  0  0  0  0  0
   -2.7500   -0.3242   -1.6162 C   0  0  0  0  0  0  0  0  0  0  0  0
   -3.8765    0.1418   -0.7075 C   0  0  0  0  0  0  0  0  0  0  0  0
   -2.7724    0.7261    0.3569 C   0  0  1  0  0  0  0  0  0  0  0  0
   -3.7618    0.8449    1.4939 O   0  0  0  0  0  0  0  0  0  0  0  0
  2  1  1  1
  2  3  1  0
  3  4  1  0
  5  4  1  1
  5  6  1  0
  6  7  2  0
  7  8  1  0
  8  9  2  0
  9 10  1  0
  9 11  1  0
 11 12  2  0
 12 13  1  0
 13 14  1  0
 15 14  1  1
 15 16  1  0
 16 17  1  6
 17 18  1  0
 18 19  1  0
 19 20  1  1
 16  2  1  0
 19  2  1  0
 15  5  1  0
 12  6  1  0
M  END
>  <zinc_id>  (1) 
ZINC000001070102

>  <smiles>  (1) 
C[C@@]12CC[C@@H]3c4ccc(O)cc4CC[C@@H]3[C@@H]1CC[C@H]2O

$$$$
