
     RDKit          3D

 21 24  0  0  0  0  0  0  0  0999 V2000
   -2.5684    1.4333    1.9850 C   0  0  0  0  0  0  0  0  0  0  0  0
   -2.2851    0.4618    0.8125 C   0  0  1  0  0  0  0  0  0  0  0  0
   -1.5560    1.1416   -0.1113 C   0  0  0  0  0  0  0  0  0  0  0  0
   -0.1925    1.4714    0.2508 C   0  0  0  0  0  0  0  0  0  0  0  0
    0.3194    0.5553    1.4688 C   0  0  2  0  0  0  0  0  0  0  0  0
    1.7777    0.3382    0.9051 C   0  0  0  0  0  0  0  0  0  0  0  0
    2.8262    0.6769    1.7144 C   0  0  0  0  0  0  0  0  0  0  0  0
    4.0956    0.4850    1.2166 C   0  0  0  0  0  0  0  0  0  0  0  0
    4.3416   -0.0238   -0.0380 C   0  0  0  0  0  0  0  0  0  0  0  0
    5.6644   -0.2039   -0.5080 O   0  0  0  0  0  0  0  0  0  0  0  0
    3.2554   -0.3492   -0.8140 C   0  0  0  0  0  0  0  0  0  0  0  0
    1.9868   -0.1578   -0.3173 C   0  0  0  0  0  0  0  0  0  0  0  0
    0.8594   -0.5278   -1.2019 C   0  0  0  0  0  0  0  0  0  0  0  0
   -0.3889   -0.8633   -0.5448 C   0  0  0  0  0  0  0  0  0  0  0  0
   -0.1829   -0.9814    1.0125 C   0  0  2  0  0  0  0  0  0  0  0  0
   -1.7547   -0.8060    1.5917 C   0  0  2  0  0  0  0  0  0  0  0  0
   -2.4001   -1.9793    0.7040 C   0  0  0  0  0  0  0  0  0  0  0  0
   -2.5820   -1.7142   -0.6676 C   0  0  0  0  0  0  0  0  0  0  0  0
   -3.3880   -0.5536   -1.0567 C   0  0  0  0  0  0  0  0  0  0  0  0
   -3.8068    0.1181    0.3795 C   0  0  2  0  0  0  0  0  0  0  0  0
   -4.0212    1.4788   -0.2453 O   0  0  0  0  0  0  0  0  0  0  0  0
  2  1  1  1
  2  3  1  0
  3  4  1  0
  5  4  1  6
  5  6  1  0
  6  7  2  0
  7  8  1  0
  8  9  2  0
  9 10  1  0
  9 11  1  0
 11 12  2  0
 12 13  1  0
 13 14  1  0
 15 14  1  6
 15 16  1  0
 16 17  1  6
 17 18  1  0
 18 19  1  0
 19 20  1  0
 20 21  1  6
 16  2  1  0
 20  2  1  0
 15  5  1  0
 12  6  1  0
M  END
>  <zinc_id>  (1) 
ZINC000003815442

>  <smiles>  (1) 
C[C@@]12CC[C@@H]3c4ccc(O)cc4CC[C@@H]3[C@@H]1CCC[C@@H]2O

$$$$
