
     RDKit          3D

 19 22  0  0  0  0  0  0  0  0999 V2000
    2.2760    0.4769   -1.3093 C   0  0  0  0  0  0  0  0  0  0  0  0
    2.3335   -0.8575   -0.7206 C   0  0  1  0  0  0  0  0  0  0  0  0
    3.7975   -1.2258   -0.5953 C   0  0  0  0  0  0  0  0  0  0  0  0
    4.2902   -0.0457    0.2546 C   0  0  0  0  0  0  0  0  0  0  0  0
    3.1139    0.4543    1.0380 C   0  0  0  0  0  0  0  0  0  0  0  0
    2.0751   -0.7756    0.8665 C   0  0  1  0  0  0  0  0  0  0  0  0
    0.6083    0.0040    0.9751 C   0  0  1  0  0  0  0  0  0  0  0  0
    0.9334    1.5157    0.5995 C   0  0  0  0  0  0  0  0  0  0  0  0
   -0.4235    2.1195    0.4047 C   0  0  0  0  0  0  0  0  0  0  0  0
   -1.5461    1.1712    0.4219 C   0  0  0  0  0  0  0  0  0  0  0  0
   -2.7619    1.5484    0.9496 C   0  0  0  0  0  0  0  0  0  0  0  0
   -3.8068    0.6114    0.9452 C   0  0  0  0  0  0  0  0  0  0  0  0
   -5.0459    0.9347    1.4607 O   0  0  0  0  0  0  0  0  0  0  0  0
   -3.6279   -0.6568    0.4271 C   0  0  0  0  0  0  0  0  0  0  0  0
   -2.3985   -1.0356   -0.1055 C   0  0  0  0  0  0  0  0  0  0  0  0
   -1.4614   -0.1292   -0.0775 C   0  0  0  0  0  0  0  0  0  0  0  0
    0.0134   -0.2849   -0.6070 C   0  0  2  0  0  0  0  0  0  0  0  0
    0.1617   -1.8927   -0.4430 C   0  0  0  0  0  0  0  0  0  0  0  0
    1.4692   -1.9324   -1.2743 C   0  0  0  0  0  0  0  0  0  0  0  0
  2  1  1  6
  2  3  1  0
  3  4  1  0
  4  5  1  0
  6  5  1  1
  6  7  1  0
  7  8  1  6
  8  9  1  0
  9 10  1  0
 10 11  2  0
 11 12  1  0
 12 13  1  0
 12 14  2  0
 14 15  1  0
 15 16  2  0
 16 17  1  0
 17 18  1  1
 18 19  1  0
  6  2  1  0
 17  7  1  0
 19  2  1  0
 16 10  1  0
M  END
>  <zinc_id>  (1) 
ZINC000003815427

>  <smiles>  (1) 
C[C@@]12CCC[C@H]1[C@H]1CCc3cc(O)ccc3[C@@H]1CC2

$$$$
