
     RDKit          3D

 20 23  0  0  0  0  0  0  0  0999 V2000
    1.9413    1.9099   -0.0017 C   0  0  0  0  0  0  0  0  0  0  0  0
    2.3677    0.5639   -0.3412 C   0  0  2  0  0  0  0  0  0  0  0  0
    1.9292   -0.1288   -1.4983 C   0  0  0  0  0  0  0  0  0  0  0  0
    0.4080   -0.0275   -1.4276 C   0  0  0  0  0  0  0  0  0  0  0  0
   -0.0486   -1.0044   -0.2081 C   0  0  2  0  0  0  0  0  0  0  0  0
   -1.5481   -0.5338   -0.1574 C   0  0  0  0  0  0  0  0  0  0  0  0
   -2.1831   -0.5031   -1.3693 C   0  0  0  0  0  0  0  0  0  0  0  0
   -3.5203   -0.1091   -1.4123 C   0  0  0  0  0  0  0  0  0  0  0  0
   -4.1443    0.2334   -0.2253 C   0  0  0  0  0  0  0  0  0  0  0  0
   -5.4873    0.6359   -0.2180 O   0  0  0  0  0  0  0  0  0  0  0  0
   -3.4403    0.1817    0.9831 C   0  0  0  0  0  0  0  0  0  0  0  0
   -2.1137   -0.2095    1.0254 C   0  0  0  0  0  0  0  0  0  0  0  0
   -1.4423   -0.2441    2.3542 C   0  0  0  0  0  0  0  0  0  0  0  0
   -0.0075   -0.7816    2.1896 C   0  0  0  0  0  0  0  0  0  0  0  0
    0.4347    0.1489    0.9684 C   0  0  1  0  0  0  0  0  0  0  0  0
    2.0032   -0.4589    0.8752 C   0  0  2  0  0  0  0  0  0  0  0  0
    2.6846    0.5867    1.9276 C   0  0  0  0  0  0  0  0  0  0  0  0
    3.9789   -0.0260    1.4134 C   0  0  0  0  0  0  0  0  0  0  0  0
    3.9936    0.5755   -0.1422 C   0  0  1  0  0  0  0  0  0  0  0  0
    4.1945   -0.8090   -0.7710 O   0  0  0  0  0  0  0  0  0  0  0  0
  2  1  1  1
  2  3  1  0
  3  4  1  0
  5  4  1  6
  5  6  1  0
  6  7  2  0
  7  8  1  0
  8  9  2  0
  9 10  1  0
  9 11  1  0
 11 12  2  0
 12 13  1  0
 13 14  1  0
 15 14  1  1
 15 16  1  0
 16 17  1  1
 17 18  1  0
 18 19  1  0
 19 20  1  6
 16  2  1  0
 19  2  1  0
 15  5  1  0
 12  6  1  0
M  END
>  <zinc_id>  (1) 
ZINC000003815415

>  <smiles>  (1) 
C[C@]12CC[C@@H]3c4ccc(O)cc4CC[C@H]3[C@@H]1CC[C@H]2O

$$$$
