
     RDKit          3D

 22 24  0  0  0  0  0  0  0  0999 V2000
   -0.3468   -2.7439    0.0237 C   0  0  0  0  0  0  0  0  0  0  0  0
   -0.6406   -1.6313   -0.9745 C   0  0  0  0  0  0  0  0  0  0  0  0
   -0.8668   -0.3601   -0.2126 C   0  0  0  0  0  0  0  0  0  0  0  0
    0.2176    0.3193    0.3169 C   0  0  0  0  0  0  0  0  0  0  0  0
    1.5651   -0.1775    0.1466 C   0  0  0  0  0  0  0  0  0  0  0  0
    2.2547    0.0797   -1.0199 C   0  0  0  0  0  0  0  0  0  0  0  0
    3.5280   -0.3488   -1.2691 C   0  0  0  0  0  0  0  0  0  0  0  0
    4.1743   -1.0949   -0.2816 C   0  0  0  0  0  0  0  0  0  0  0  0
    5.4686   -1.5330   -0.5288 O   0  0  0  0  0  0  0  0  0  0  0  0
    6.1158   -1.2325   -1.7488 C   0  0  0  0  0  0  0  0  0  0  0  0
    3.5073   -1.3641    0.8895 C   0  0  0  0  0  0  0  0  0  0  0  0
    2.2215   -0.9175    1.1121 C   0  0  0  0  0  0  0  0  0  0  0  0
   -0.0845    1.4910    1.0112 C   0  0  0  0  0  0  0  0  0  0  0  0
    0.8538    2.1558    1.5168 O   0  0  0  0  0  0  0  0  0  0  0  0
   -1.3133    1.9267    1.1570 O   0  0  0  0  0  0  0  0  0  0  0  0
   -2.3657    1.3090    0.6688 C   0  0  0  0  0  0  0  0  0  0  0  0
   -3.6515    1.8037    0.8458 C   0  0  0  0  0  0  0  0  0  0  0  0
   -4.7373    1.1345    0.3231 C   0  0  0  0  0  0  0  0  0  0  0  0
   -6.0479    1.6202    0.4920 O   0  0  0  0  0  0  0  0  0  0  0  0
   -4.4908   -0.0321   -0.3734 C   0  0  0  0  0  0  0  0  0  0  0  0
   -3.2255   -0.5477   -0.5655 C   0  0  0  0  0  0  0  0  0  0  0  0
   -2.1359    0.1436   -0.0290 C   0  0  0  0  0  0  0  0  0  0  0  0
  1  2  1  0
  2  3  1  0
  3  4  2  0
  4  5  1  0
  5  6  2  0
  6  7  1  0
  7  8  2  0
  8  9  1  0
  9 10  1  0
  8 11  1  0
 11 12  2  0
  4 13  1  0
 13 14  2  0
 13 15  1  0
 15 16  1  0
 16 17  2  0
 17 18  1  0
 18 19  1  0
 18 20  2  0
 20 21  1  0
 21 22  2  0
 22  3  1  0
 12  5  1  0
 22 16  1  0
M  END
>  <zinc_id>  (1) 
ZINC000001631270

>  <smiles>  (1) 
CCc1c(-c2ccc(OC)cc2)c(=O)oc2cc(O)ccc12

$$$$
