
     RDKit          3D

 21 24  0  0  0  0  0  0  0  0999 V2000
   -1.0080    3.1294   -0.1371 C   0  0  0  0  0  0  0  0  0  0  0  0
   -0.0896    1.8215   -0.5124 C   0  0  1  0  0  0  0  0  0  0  0  0
    1.1559    2.3234    0.3853 C   0  0  0  0  0  0  0  0  0  0  0  0
    1.9650    1.0728    0.1146 C   0  0  0  0  0  0  0  0  0  0  0  0
    3.0697    0.9964   -0.6896 C   0  0  0  0  0  0  0  0  0  0  0  0
    3.6562   -0.2540   -0.8179 C   0  0  0  0  0  0  0  0  0  0  0  0
    4.7855   -0.4563   -1.6093 O   0  0  0  0  0  0  0  0  0  0  0  0
    3.1628   -1.3742   -0.1738 C   0  0  0  0  0  0  0  0  0  0  0  0
    2.0205   -1.2048    0.6357 C   0  0  0  0  0  0  0  0  0  0  0  0
    1.4357    0.0051    0.7732 C   0  0  0  0  0  0  0  0  0  0  0  0
    0.2212    0.3581    1.6172 C   0  0  2  0  0  0  0  0  0  0  0  0
   -0.3148   -1.1475    1.8800 C   0  0  0  0  0  0  0  0  0  0  0  0
   -1.7556   -1.2408    1.6266 C   0  0  0  0  0  0  0  0  0  0  0  0
   -2.0801   -1.2050    0.2042 C   0  0  2  0  0  0  0  0  0  0  0  0
   -2.4887   -2.3728   -0.5172 C   0  0  0  0  0  0  0  0  0  0  0  0
   -0.8070   -0.5040   -0.4962 C   0  0  1  0  0  0  0  0  0  0  0  0
   -1.5709    0.2031   -1.7212 C   0  0  0  0  0  0  0  0  0  0  0  0
   -2.9634   -0.1391   -1.6363 C   0  0  0  0  0  0  0  0  0  0  0  0
   -3.1342    0.0242   -0.0133 C   0  0  1  0  0  0  0  0  0  0  0  0
   -4.3610   -0.8623    0.0330 O   0  0  0  0  0  0  0  0  0  0  0  0
   -0.8992    0.8268    0.5069 C   0  0  2  0  0  0  0  0  0  0  0  0
  2  1  1  1
  2  3  1  0
  3  4  1  0
  4  5  2  0
  5  6  1  0
  6  7  1  0
  6  8  2  0
  8  9  1  0
  9 10  2  0
 10 11  1  0
 11 12  1  6
 12 13  1  0
 13 14  1  0
 14 15  1  6
 14 16  1  0
 16 17  1  6
 17 18  1  0
 18 19  1  0
 19 20  1  6
 16 21  1  0
 21  2  1  6
 10  4  1  0
 21 11  1  0
 19 14  1  0
M  END
>  <zinc_id>  (1) 
ZINC000003815438

>  <smiles>  (1) 
C[C@H]1Cc2cc(O)ccc2[C@@H]2CC[C@]3(C)[C@@H](CC[C@H]3O)[C@H]12

$$$$
