MODEL 1
REMARK VINA RESULT:      -7.8      0.000      0.000
REMARK  Name = 
REMARK  7 active torsions:
REMARK  status: ('A' for Active; 'I' for Inactive)
REMARK    1  A    between atoms: O_2  and  C_3
REMARK    2  A    between atoms: C_6  and  N_7
REMARK    3  A    between atoms: C_8  and  C_10
REMARK    4  A    between atoms: C_10  and  N_17
REMARK    5  A    between atoms: C_11  and  C_12
REMARK    6  A    between atoms: C_18  and  C_20
REMARK    7  A    between atoms: C_23  and  C_24
REMARK                            x       y       z     vdW  Elec       q    Type
REMARK                         _______ _______ _______ _____ _____    ______ ____
ROOT
ATOM      1  C   UNL     1      39.339   1.480  14.266  0.00  0.00    +0.000 C 
ATOM      2  C   UNL     1      40.058   1.278  13.262  0.00  0.00    +0.000 C 
ENDROOT
BRANCH   2   3
ATOM      3  C   UNL     1      40.094   0.167  12.325  0.00  0.00    +0.000 A 
ATOM      4  C   UNL     1      39.854   0.295  10.945  0.00  0.00    +0.000 A 
ATOM      5  C   UNL     1      39.947  -0.794  10.216  0.00  0.00    +0.000 A 
ATOM      6  C   UNL     1      40.258  -1.989  10.837  0.00  0.00    +0.000 A 
ATOM      7  S   UNL     1      40.421  -1.493  12.468  0.00  0.00    +0.000 S 
ENDBRANCH   2   3
BRANCH   1   9
ATOM      8  N   UNL     1      38.337  -0.515  15.611  0.00  0.00    +0.000 NA
ATOM      9  C   UNL     1      38.323   0.521  14.672  0.00  0.00    +0.000 C 
ATOM     10  O   UNL     1      37.194   0.620  14.044  0.00  0.00    +0.000 OA
BRANCH   8  14
ATOM     11  C   UNL     1      34.846  -2.894  15.787  0.00  0.00    +0.000 A 
ATOM     12  C   UNL     1      35.869  -3.183  14.898  0.00  0.00    +0.000 A 
ATOM     13  C   UNL     1      37.013  -2.418  14.860  0.00  0.00    +0.000 A 
ATOM     14  C   UNL     1      37.128  -1.342  15.740  0.00  0.00    +0.000 A 
ATOM     15  C   UNL     1      36.153  -1.051  16.606  0.00  0.00    +0.000 A 
ATOM     16  C   UNL     1      34.956  -1.821  16.668  0.00  0.00    +0.000 A 
BRANCH  11  18
ATOM     17  C   UNL     1      33.481  -4.540  14.646  0.00  0.00    +0.000 C 
ATOM     18  O   UNL     1      33.680  -3.697  15.785  0.00  0.00    +0.000 OA
ENDBRANCH  11  18
ENDBRANCH   8  14
ENDBRANCH   1   9
BRANCH   1  19
ATOM     19  N   UNL     1      39.459   2.599  15.104  0.00  0.00    +0.000 NA
ATOM     20  C   UNL     1      38.727   3.771  15.205  0.00  0.00    +0.000 C 
ATOM     21  O   UNL     1      37.774   3.917  14.443  0.00  0.00    +0.000 OA
BRANCH  20  22
ATOM     22  C   UNL     1      39.159   4.779  16.235  0.00  0.00    +0.000 A 
ATOM     23  C   UNL     1      40.054   5.756  16.043  0.00  0.00    +0.000 A 
ATOM     24  C   UNL     1      40.449   6.552  17.130  0.00  0.00    +0.000 A 
ATOM     25  C   UNL     1      39.941   6.359  18.381  0.00  0.00    +0.000 A 
ATOM     26  C   UNL     1      39.017   5.346  18.527  0.00  0.00    +0.000 A 
ATOM     27  C   UNL     1      38.617   4.566  17.522  0.00  0.00    +0.000 A 
BRANCH  25  28
ATOM     28  C   UNL     1      40.368   7.157  19.572  0.00  0.00    +0.000 C 
ATOM     29  C   UNL     1      41.239   6.355  20.471  0.00  0.00    +0.000 C 
ATOM     30  C   UNL     1      41.091   8.406  19.134  0.00  0.00    +0.000 C 
ATOM     31  C   UNL     1      39.139   7.571  20.396  0.00  0.00    +0.000 C 
ENDBRANCH  25  28
ENDBRANCH  20  22
ENDBRANCH   1  19
TORSDOF 7
ENDMDL
MODEL 2
REMARK VINA RESULT:      -7.5     24.658     28.209
REMARK  Name = 
REMARK  7 active torsions:
REMARK  status: ('A' for Active; 'I' for Inactive)
REMARK    1  A    between atoms: O_2  and  C_3
REMARK    2  A    between atoms: C_6  and  N_7
REMARK    3  A    between atoms: C_8  and  C_10
REMARK    4  A    between atoms: C_10  and  N_17
REMARK    5  A    between atoms: C_11  and  C_12
REMARK    6  A    between atoms: C_18  and  C_20
REMARK    7  A    between atoms: C_23  and  C_24
REMARK                            x       y       z     vdW  Elec       q    Type
REMARK                         _______ _______ _______ _____ _____    ______ ____
ROOT
ATOM      1  C   UNL     1      13.874   0.356  28.711  0.00  0.00    +0.000 C 
ATOM      2  C   UNL     1      13.910   0.015  29.915  0.00  0.00    +0.000 C 
ENDROOT
BRANCH   2   3
ATOM      3  C   UNL     1      12.869  -0.013  30.928  0.00  0.00    +0.000 A 
ATOM      4  C   UNL     1      12.496   1.101  31.703  0.00  0.00    +0.000 A 
ATOM      5  C   UNL     1      11.518   0.934  32.563  0.00  0.00    +0.000 A 
ATOM      6  C   UNL     1      10.926  -0.311  32.667  0.00  0.00    +0.000 A 
ATOM      7  S   UNL     1      11.801  -1.204  31.498  0.00  0.00    +0.000 S 
ENDBRANCH   2   3
BRANCH   1   9
ATOM      8  N   UNL     1      12.140   2.100  27.849  0.00  0.00    +0.000 NA
ATOM      9  C   UNL     1      12.640   0.817  28.095  0.00  0.00    +0.000 C 
ATOM     10  O   UNL     1      11.833  -0.122  27.713  0.00  0.00    +0.000 OA
BRANCH   8  14
ATOM     11  C   UNL     1       8.238   2.306  26.233  0.00  0.00    +0.000 A 
ATOM     12  C   UNL     1       8.461   2.438  27.594  0.00  0.00    +0.000 A 
ATOM     13  C   UNL     1       9.735   2.391  28.113  0.00  0.00    +0.000 A 
ATOM     14  C   UNL     1      10.808   2.213  27.238  0.00  0.00    +0.000 A 
ATOM     15  C   UNL     1      10.612   2.089  25.923  0.00  0.00    +0.000 A 
ATOM     16  C   UNL     1       9.305   2.128  25.355  0.00  0.00    +0.000 A 
BRANCH  11  18
ATOM     17  C   UNL     1       6.628   1.547  24.589  0.00  0.00    +0.000 C 
ATOM     18  O   UNL     1       6.912   2.346  25.742  0.00  0.00    +0.000 OA
ENDBRANCH  11  18
ENDBRANCH   8  14
ENDBRANCH   1   9
BRANCH   1  19
ATOM     19  N   UNL     1      14.993   0.366  27.865  0.00  0.00    +0.000 NA
ATOM     20  C   UNL     1      15.314  -0.369  26.735  0.00  0.00    +0.000 C 
ATOM     21  O   UNL     1      14.501  -1.205  26.346  0.00  0.00    +0.000 OA
BRANCH  20  22
ATOM     22  C   UNL     1      16.637  -0.093  26.073  0.00  0.00    +0.000 A 
ATOM     23  C   UNL     1      17.166   1.119  25.865  0.00  0.00    +0.000 A 
ATOM     24  C   UNL     1      18.356   1.234  25.128  0.00  0.00    +0.000 A 
ATOM     25  C   UNL     1      18.991   0.140  24.618  0.00  0.00    +0.000 A 
ATOM     26  C   UNL     1      18.411  -1.086  24.865  0.00  0.00    +0.000 A 
ATOM     27  C   UNL     1      17.282  -1.238  25.558  0.00  0.00    +0.000 A 
BRANCH  25  28
ATOM     28  C   UNL     1      20.235   0.224  23.791  0.00  0.00    +0.000 C 
ATOM     29  C   UNL     1      20.149   1.331  22.804  0.00  0.00    +0.000 C 
ATOM     30  C   UNL     1      21.440   0.416  24.678  0.00  0.00    +0.000 C 
ATOM     31  C   UNL     1      20.423  -1.074  22.991  0.00  0.00    +0.000 C 
ENDBRANCH  25  28
ENDBRANCH  20  22
ENDBRANCH   1  19
TORSDOF 7
ENDMDL
MODEL 3
REMARK VINA RESULT:      -7.4      3.283      9.411
REMARK  Name = 
REMARK  7 active torsions:
REMARK  status: ('A' for Active; 'I' for Inactive)
REMARK    1  A    between atoms: O_2  and  C_3
REMARK    2  A    between atoms: C_6  and  N_7
REMARK    3  A    between atoms: C_8  and  C_10
REMARK    4  A    between atoms: C_10  and  N_17
REMARK    5  A    between atoms: C_11  and  C_12
REMARK    6  A    between atoms: C_18  and  C_20
REMARK    7  A    between atoms: C_23  and  C_24
REMARK                            x       y       z     vdW  Elec       q    Type
REMARK                         _______ _______ _______ _____ _____    ______ ____
ROOT
ATOM      1  C   UNL     1      36.937   4.098  15.033  0.00  0.00    +0.000 C 
ATOM      2  C   UNL     1      36.342   4.876  14.254  0.00  0.00    +0.000 C 
ENDROOT
BRANCH   2   3
ATOM      3  C   UNL     1      36.503   6.301  14.025  0.00  0.00    +0.000 A 
ATOM      4  C   UNL     1      35.566   7.272  14.423  0.00  0.00    +0.000 A 
ATOM      5  C   UNL     1      35.859   8.528  14.173  0.00  0.00    +0.000 A 
ATOM      6  C   UNL     1      37.047   8.821  13.531  0.00  0.00    +0.000 A 
ATOM      7  S   UNL     1      37.715   7.259  13.320  0.00  0.00    +0.000 S 
ENDBRANCH   2   3
BRANCH   1   9
ATOM      8  N   UNL     1      38.146   5.757  16.639  0.00  0.00    +0.000 NA
ATOM      9  C   UNL     1      37.997   4.574  15.910  0.00  0.00    +0.000 C 
ATOM     10  O   UNL     1      39.006   3.771  16.036  0.00  0.00    +0.000 OA
BRANCH   8  14
ATOM     11  C   UNL     1      41.623   6.408  18.955  0.00  0.00    +0.000 A 
ATOM     12  C   UNL     1      40.404   6.128  19.551  0.00  0.00    +0.000 A 
ATOM     13  C   UNL     1      39.279   5.895  18.792  0.00  0.00    +0.000 A 
ATOM     14  C   UNL     1      39.389   5.943  17.401  0.00  0.00    +0.000 A 
ATOM     15  C   UNL     1      40.557   6.207  16.810  0.00  0.00    +0.000 A 
ATOM     16  C   UNL     1      41.738   6.457  17.568  0.00  0.00    +0.000 A 
BRANCH  11  18
ATOM     17  C   UNL     1      42.733   6.085  21.085  0.00  0.00    +0.000 C 
ATOM     18  O   UNL     1      42.752   6.654  19.772  0.00  0.00    +0.000 OA
ENDBRANCH  11  18
ENDBRANCH   8  14
ENDBRANCH   1   9
BRANCH   1  19
ATOM     19  N   UNL     1      36.630   2.736  15.168  0.00  0.00    +0.000 NA
ATOM     20  C   UNL     1      35.617   2.071  15.840  0.00  0.00    +0.000 C 
ATOM     21  O   UNL     1      34.794   2.750  16.451  0.00  0.00    +0.000 OA
BRANCH  20  22
ATOM     22  C   UNL     1      35.603   0.568  15.775  0.00  0.00    +0.000 A 
ATOM     23  C   UNL     1      35.009  -0.245  16.657  0.00  0.00    +0.000 A 
ATOM     24  C   UNL     1      35.178  -1.633  16.536  0.00  0.00    +0.000 A 
ATOM     25  C   UNL     1      35.931  -2.180  15.539  0.00  0.00    +0.000 A 
ATOM     26  C   UNL     1      36.517  -1.302  14.651  0.00  0.00    +0.000 A 
ATOM     27  C   UNL     1      36.384   0.022  14.732  0.00  0.00    +0.000 A 
BRANCH  25  28
ATOM     28  C   UNL     1      36.171  -3.650  15.403  0.00  0.00    +0.000 C 
ATOM     29  C   UNL     1      34.890  -4.394  15.284  0.00  0.00    +0.000 C 
ATOM     30  C   UNL     1      37.042  -3.929  14.203  0.00  0.00    +0.000 C 
ATOM     31  C   UNL     1      36.883  -4.186  16.654  0.00  0.00    +0.000 C 
ENDBRANCH  25  28
ENDBRANCH  20  22
ENDBRANCH   1  19
TORSDOF 7
ENDMDL
MODEL 4
REMARK VINA RESULT:      -7.3      3.288      4.974
REMARK  Name = 
REMARK  7 active torsions:
REMARK  status: ('A' for Active; 'I' for Inactive)
REMARK    1  A    between atoms: O_2  and  C_3
REMARK    2  A    between atoms: C_6  and  N_7
REMARK    3  A    between atoms: C_8  and  C_10
REMARK    4  A    between atoms: C_10  and  N_17
REMARK    5  A    between atoms: C_11  and  C_12
REMARK    6  A    between atoms: C_18  and  C_20
REMARK    7  A    between atoms: C_23  and  C_24
REMARK                            x       y       z     vdW  Elec       q    Type
REMARK                         _______ _______ _______ _____ _____    ______ ____
ROOT
ATOM      1  C   UNL     1      38.253   5.654  15.672  0.00  0.00    +0.000 C 
ATOM      2  C   UNL     1      37.868   6.479  14.814  0.00  0.00    +0.000 C 
ENDROOT
BRANCH   2   3
ATOM      3  C   UNL     1      36.845   6.377  13.786  0.00  0.00    +0.000 A 
ATOM      4  C   UNL     1      35.541   6.888  13.922  0.00  0.00    +0.000 A 
ATOM      5  C   UNL     1      34.731   6.745  12.898  0.00  0.00    +0.000 A 
ATOM      6  C   UNL     1      35.192   6.100  11.766  0.00  0.00    +0.000 A 
ATOM      7  S   UNL     1      36.802   5.729  12.218  0.00  0.00    +0.000 S 
ENDBRANCH   2   3
BRANCH   1   9
ATOM      8  N   UNL     1      36.397   3.845  15.399  0.00  0.00    +0.000 NA
ATOM      9  C   UNL     1      37.654   4.331  15.769  0.00  0.00    +0.000 C 
ATOM     10  O   UNL     1      38.407   3.427  16.313  0.00  0.00    +0.000 OA
BRANCH   8  14
ATOM     11  C   UNL     1      35.490  -0.235  16.038  0.00  0.00    +0.000 A 
ATOM     12  C   UNL     1      36.325   0.163  15.007  0.00  0.00    +0.000 A 
ATOM     13  C   UNL     1      36.635   1.491  14.816  0.00  0.00    +0.000 A 
ATOM     14  C   UNL     1      36.093   2.436  15.688  0.00  0.00    +0.000 A 
ATOM     15  C   UNL     1      35.288   2.070  16.689  0.00  0.00    +0.000 A 
ATOM     16  C   UNL     1      34.945   0.704  16.911  0.00  0.00    +0.000 A 
BRANCH  11  18
ATOM     17  C   UNL     1      35.826  -2.293  17.272  0.00  0.00    +0.000 C 
ATOM     18  O   UNL     1      35.186  -1.609  16.191  0.00  0.00    +0.000 OA
ENDBRANCH  11  18
ENDBRANCH   8  14
ENDBRANCH   1   9
BRANCH   1  19
ATOM     19  N   UNL     1      39.297   5.893  16.577  0.00  0.00    +0.000 NA
ATOM     20  C   UNL     1      39.312   6.368  17.879  0.00  0.00    +0.000 C 
ATOM     21  O   UNL     1      38.233   6.647  18.398  0.00  0.00    +0.000 OA
BRANCH  20  22
ATOM     22  C   UNL     1      40.648   6.512  18.557  0.00  0.00    +0.000 A 
ATOM     23  C   UNL     1      41.826   6.648  17.936  0.00  0.00    +0.000 A 
ATOM     24  C   UNL     1      43.007   6.654  18.695  0.00  0.00    +0.000 A 
ATOM     25  C   UNL     1      42.988   6.525  20.052  0.00  0.00    +0.000 A 
ATOM     26  C   UNL     1      41.750   6.395  20.646  0.00  0.00    +0.000 A 
ATOM     27  C   UNL     1      40.606   6.382  19.962  0.00  0.00    +0.000 A 
BRANCH  25  28
ATOM     28  C   UNL     1      44.226   6.482  20.891  0.00  0.00    +0.000 C 
ATOM     29  C   UNL     1      44.229   5.295  21.784  0.00  0.00    +0.000 C 
ATOM     30  C   UNL     1      45.453   6.469  20.013  0.00  0.00    +0.000 C 
ATOM     31  C   UNL     1      44.291   7.722  21.797  0.00  0.00    +0.000 C 
ENDBRANCH  25  28
ENDBRANCH  20  22
ENDBRANCH   1  19
TORSDOF 7
ENDMDL
MODEL 5
REMARK VINA RESULT:      -7.1     23.389     27.087
REMARK  Name = 
REMARK  7 active torsions:
REMARK  status: ('A' for Active; 'I' for Inactive)
REMARK    1  A    between atoms: O_2  and  C_3
REMARK    2  A    between atoms: C_6  and  N_7
REMARK    3  A    between atoms: C_8  and  C_10
REMARK    4  A    between atoms: C_10  and  N_17
REMARK    5  A    between atoms: C_11  and  C_12
REMARK    6  A    between atoms: C_18  and  C_20
REMARK    7  A    between atoms: C_23  and  C_24
REMARK                            x       y       z     vdW  Elec       q    Type
REMARK                         _______ _______ _______ _____ _____    ______ ____
ROOT
ATOM      1  C   UNL     1      14.249  -0.181  27.580  0.00  0.00    +0.000 C 
ATOM      2  C   UNL     1      14.161   0.134  28.788  0.00  0.00    +0.000 C 
ENDROOT
BRANCH   2   3
ATOM      3  C   UNL     1      13.026   0.120  29.695  0.00  0.00    +0.000 A 
ATOM      4  C   UNL     1      12.719  -0.951  30.554  0.00  0.00    +0.000 A 
ATOM      5  C   UNL     1      11.675  -0.811  31.339  0.00  0.00    +0.000 A 
ATOM      6  C   UNL     1      10.940   0.357  31.271  0.00  0.00    +0.000 A 
ATOM      7  S   UNL     1      11.798   1.230  30.073  0.00  0.00    +0.000 S 
ENDBRANCH   2   3
BRANCH   1   9
ATOM      8  N   UNL     1      12.511  -1.931  26.737  0.00  0.00    +0.000 NA
ATOM      9  C   UNL     1      13.092  -0.664  26.841  0.00  0.00    +0.000 C 
ATOM     10  O   UNL     1      12.486   0.231  26.125  0.00  0.00    +0.000 OA
BRANCH   8  14
ATOM     11  C   UNL     1       9.288  -2.310  24.026  0.00  0.00    +0.000 A 
ATOM     12  C   UNL     1      10.553  -2.777  23.709  0.00  0.00    +0.000 A 
ATOM     13  C   UNL     1      11.594  -2.670  24.603  0.00  0.00    +0.000 A 
ATOM     14  C   UNL     1      11.351  -2.084  25.846  0.00  0.00    +0.000 A 
ATOM     15  C   UNL     1      10.136  -1.633  26.170  0.00  0.00    +0.000 A 
ATOM     16  C   UNL     1       9.040  -1.724  25.265  0.00  0.00    +0.000 A 
BRANCH  11  18
ATOM     17  C   UNL     1       8.475  -1.822  21.796  0.00  0.00    +0.000 C 
ATOM     18  O   UNL     1       8.249  -2.427  23.072  0.00  0.00    +0.000 OA
ENDBRANCH  11  18
ENDBRANCH   8  14
ENDBRANCH   1   9
BRANCH   1  19
ATOM     19  N   UNL     1      15.424  -0.069  26.823  0.00  0.00    +0.000 NA
ATOM     20  C   UNL     1      16.752   0.098  27.183  0.00  0.00    +0.000 C 
ATOM     21  O   UNL     1      17.016   0.163  28.382  0.00  0.00    +0.000 OA
BRANCH  20  22
ATOM     22  C   UNL     1      17.770   0.192  26.079  0.00  0.00    +0.000 A 
ATOM     23  C   UNL     1      18.189   1.324  25.500  0.00  0.00    +0.000 A 
ATOM     24  C   UNL     1      19.058   1.253  24.399  0.00  0.00    +0.000 A 
ATOM     25  C   UNL     1      19.490   0.059  23.902  0.00  0.00    +0.000 A 
ATOM     26  C   UNL     1      19.036  -1.079  24.537  0.00  0.00    +0.000 A 
ATOM     27  C   UNL     1      18.210  -1.055  25.583  0.00  0.00    +0.000 A 
BRANCH  25  28
ATOM     28  C   UNL     1      20.379  -0.060  22.705  0.00  0.00    +0.000 C 
ATOM     29  C   UNL     1      21.706   0.559  22.959  0.00  0.00    +0.000 C 
ATOM     30  C   UNL     1      20.551  -1.508  22.322  0.00  0.00    +0.000 C 
ATOM     31  C   UNL     1      19.759   0.687  21.514  0.00  0.00    +0.000 C 
ENDBRANCH  25  28
ENDBRANCH  20  22
ENDBRANCH   1  19
TORSDOF 7
ENDMDL
MODEL 6
REMARK VINA RESULT:      -6.9      3.853      9.473
REMARK  Name = 
REMARK  7 active torsions:
REMARK  status: ('A' for Active; 'I' for Inactive)
REMARK    1  A    between atoms: O_2  and  C_3
REMARK    2  A    between atoms: C_6  and  N_7
REMARK    3  A    between atoms: C_8  and  C_10
REMARK    4  A    between atoms: C_10  and  N_17
REMARK    5  A    between atoms: C_11  and  C_12
REMARK    6  A    between atoms: C_18  and  C_20
REMARK    7  A    between atoms: C_23  and  C_24
REMARK                            x       y       z     vdW  Elec       q    Type
REMARK                         _______ _______ _______ _____ _____    ______ ____
ROOT
ATOM      1  C   UNL     1      37.569   3.870  16.303  0.00  0.00    +0.000 C 
ATOM      2  C   UNL     1      38.187   4.276  17.313  0.00  0.00    +0.000 C 
ENDROOT
BRANCH   2   3
ATOM      3  C   UNL     1      38.771   5.572  17.615  0.00  0.00    +0.000 A 
ATOM      4  C   UNL     1      40.153   5.801  17.744  0.00  0.00    +0.000 A 
ATOM      5  C   UNL     1      40.536   7.032  17.992  0.00  0.00    +0.000 A 
ATOM      6  C   UNL     1      39.577   8.018  18.124  0.00  0.00    +0.000 A 
ATOM      7  S   UNL     1      38.137   7.127  17.868  0.00  0.00    +0.000 S 
ENDBRANCH   2   3
BRANCH   1   9
ATOM      8  N   UNL     1      36.245   5.587  14.857  0.00  0.00    +0.000 NA
ATOM      9  C   UNL     1      37.318   4.747  15.170  0.00  0.00    +0.000 C 
ATOM     10  O   UNL     1      38.244   4.749  14.263  0.00  0.00    +0.000 OA
BRANCH   8  14
ATOM     11  C   UNL     1      36.319   7.837  11.278  0.00  0.00    +0.000 A 
ATOM     12  C   UNL     1      36.863   8.334  12.451  0.00  0.00    +0.000 A 
ATOM     13  C   UNL     1      36.856   7.589  13.608  0.00  0.00    +0.000 A 
ATOM     14  C   UNL     1      36.291   6.313  13.579  0.00  0.00    +0.000 A 
ATOM     15  C   UNL     1      35.766   5.816  12.456  0.00  0.00    +0.000 A 
ATOM     16  C   UNL     1      35.754   6.564  11.243  0.00  0.00    +0.000 A 
BRANCH  11  18
ATOM     17  C   UNL     1      35.069   9.104   9.633  0.00  0.00    +0.000 C 
ATOM     18  O   UNL     1      36.335   8.641  10.113  0.00  0.00    +0.000 OA
ENDBRANCH  11  18
ENDBRANCH   8  14
ENDBRANCH   1   9
BRANCH   1  19
ATOM     19  N   UNL     1      37.100   2.558  16.146  0.00  0.00    +0.000 NA
ATOM     20  C   UNL     1      35.829   2.008  16.204  0.00  0.00    +0.000 C 
ATOM     21  O   UNL     1      34.888   2.766  16.431  0.00  0.00    +0.000 OA
BRANCH  20  22
ATOM     22  C   UNL     1      35.698   0.524  15.992  0.00  0.00    +0.000 A 
ATOM     23  C   UNL     1      35.020  -0.319  16.779  0.00  0.00    +0.000 A 
ATOM     24  C   UNL     1      35.081  -1.699  16.525  0.00  0.00    +0.000 A 
ATOM     25  C   UNL     1      35.813  -2.206  15.492  0.00  0.00    +0.000 A 
ATOM     26  C   UNL     1      36.489  -1.297  14.705  0.00  0.00    +0.000 A 
ATOM     27  C   UNL     1      36.459   0.020  14.914  0.00  0.00    +0.000 A 
BRANCH  25  28
ATOM     28  C   UNL     1      35.939  -3.671  15.216  0.00  0.00    +0.000 C 
ATOM     29  C   UNL     1      36.378  -4.410  16.428  0.00  0.00    +0.000 C 
ATOM     30  C   UNL     1      34.626  -4.224  14.722  0.00  0.00    +0.000 C 
ATOM     31  C   UNL     1      37.005  -3.912  14.136  0.00  0.00    +0.000 C 
ENDBRANCH  25  28
ENDBRANCH  20  22
ENDBRANCH   1  19
TORSDOF 7
ENDMDL
MODEL 7
REMARK VINA RESULT:      -6.9     23.640     27.306
REMARK  Name = 
REMARK  7 active torsions:
REMARK  status: ('A' for Active; 'I' for Inactive)
REMARK    1  A    between atoms: O_2  and  C_3
REMARK    2  A    between atoms: C_6  and  N_7
REMARK    3  A    between atoms: C_8  and  C_10
REMARK    4  A    between atoms: C_10  and  N_17
REMARK    5  A    between atoms: C_11  and  C_12
REMARK    6  A    between atoms: C_18  and  C_20
REMARK    7  A    between atoms: C_23  and  C_24
REMARK                            x       y       z     vdW  Elec       q    Type
REMARK                         _______ _______ _______ _____ _____    ______ ____
ROOT
ATOM      1  C   UNL     1      13.568   0.269  27.094  0.00  0.00    +0.000 C 
ATOM      2  C   UNL     1      13.037   1.268  27.629  0.00  0.00    +0.000 C 
ENDROOT
BRANCH   2   3
ATOM      3  C   UNL     1      11.726   1.441  28.232  0.00  0.00    +0.000 A 
ATOM      4  C   UNL     1      11.494   1.454  29.620  0.00  0.00    +0.000 A 
ATOM      5  C   UNL     1      10.259   1.646  30.020  0.00  0.00    +0.000 A 
ATOM      6  C   UNL     1       9.266   1.811  29.072  0.00  0.00    +0.000 A 
ATOM      7  S   UNL     1      10.163   1.694  27.618  0.00  0.00    +0.000 S 
ENDBRANCH   2   3
BRANCH   1   9
ATOM      8  N   UNL     1      12.681  -2.040  27.915  0.00  0.00    +0.000 NA
ATOM      9  C   UNL     1      12.862  -1.000  26.998  0.00  0.00    +0.000 C 
ATOM     10  O   UNL     1      12.307  -1.233  25.851  0.00  0.00    +0.000 OA
BRANCH   8  14
ATOM     11  C   UNL     1      10.657  -5.460  26.471  0.00  0.00    +0.000 A 
ATOM     12  C   UNL     1      12.040  -5.382  26.453  0.00  0.00    +0.000 A 
ATOM     13  C   UNL     1      12.696  -4.275  26.944  0.00  0.00    +0.000 A 
ATOM     14  C   UNL     1      11.938  -3.227  27.468  0.00  0.00    +0.000 A 
ATOM     15  C   UNL     1      10.604  -3.288  27.497  0.00  0.00    +0.000 A 
ATOM     16  C   UNL     1       9.896  -4.417  26.993  0.00  0.00    +0.000 A 
BRANCH  11  18
ATOM     17  C   UNL     1      10.242  -7.842  26.638  0.00  0.00    +0.000 C 
ATOM     18  O   UNL     1      10.022  -6.610  25.944  0.00  0.00    +0.000 OA
ENDBRANCH  11  18
ENDBRANCH   8  14
ENDBRANCH   1   9
BRANCH   1  19
ATOM     19  N   UNL     1      14.844   0.277  26.512  0.00  0.00    +0.000 NA
ATOM     20  C   UNL     1      16.117   0.226  27.056  0.00  0.00    +0.000 C 
ATOM     21  O   UNL     1      16.214   0.155  28.280  0.00  0.00    +0.000 OA
BRANCH  20  22
ATOM     22  C   UNL     1      17.285   0.266  26.109  0.00  0.00    +0.000 A 
ATOM     23  C   UNL     1      17.894   1.375  25.669  0.00  0.00    +0.000 A 
ATOM     24  C   UNL     1      18.898   1.267  24.694  0.00  0.00    +0.000 A 
ATOM     25  C   UNL     1      19.274   0.061  24.181  0.00  0.00    +0.000 A 
ATOM     26  C   UNL     1      18.623  -1.052  24.671  0.00  0.00    +0.000 A 
ATOM     27  C   UNL     1      17.664  -0.994  25.595  0.00  0.00    +0.000 A 
BRANCH  25  28
ATOM     28  C   UNL     1      20.308  -0.090  23.110  0.00  0.00    +0.000 C 
ATOM     29  C   UNL     1      20.407  -1.501  22.655  0.00  0.00    +0.000 C 
ATOM     30  C   UNL     1      19.986   0.807  21.942  0.00  0.00    +0.000 C 
ATOM     31  C   UNL     1      21.691   0.300  23.655  0.00  0.00    +0.000 C 
ENDBRANCH  25  28
ENDBRANCH  20  22
ENDBRANCH   1  19
TORSDOF 7
ENDMDL
MODEL 8
REMARK VINA RESULT:      -6.9      6.981     11.515
REMARK  Name = 
REMARK  7 active torsions:
REMARK  status: ('A' for Active; 'I' for Inactive)
REMARK    1  A    between atoms: O_2  and  C_3
REMARK    2  A    between atoms: C_6  and  N_7
REMARK    3  A    between atoms: C_8  and  C_10
REMARK    4  A    between atoms: C_10  and  N_17
REMARK    5  A    between atoms: C_11  and  C_12
REMARK    6  A    between atoms: C_18  and  C_20
REMARK    7  A    between atoms: C_23  and  C_24
REMARK                            x       y       z     vdW  Elec       q    Type
REMARK                         _______ _______ _______ _____ _____    ______ ____
ROOT
ATOM      1  C   UNL     1      44.420   7.108  22.719  0.00  0.00    +0.000 C 
ATOM      2  C   UNL     1      45.496   7.711  22.505  0.00  0.00    +0.000 C 
ENDROOT
BRANCH   2   3
ATOM      3  C   UNL     1      46.069   8.227  21.274  0.00  0.00    +0.000 A 
ATOM      4  C   UNL     1      46.144   9.596  20.955  0.00  0.00    +0.000 A 
ATOM      5  C   UNL     1      46.714   9.916  19.816  0.00  0.00    +0.000 A 
ATOM      6  C   UNL     1      47.191   8.907  19.000  0.00  0.00    +0.000 A 
ATOM      7  S   UNL     1      46.808   7.515  19.921  0.00  0.00    +0.000 S 
ENDBRANCH   2   3
BRANCH   1   9
ATOM      8  N   UNL     1      42.674   7.639  20.859  0.00  0.00    +0.000 NA
ATOM      9  C   UNL     1      43.492   6.815  21.637  0.00  0.00    +0.000 C 
ATOM     10  O   UNL     1      43.376   5.560  21.339  0.00  0.00    +0.000 OA
BRANCH   8  14
ATOM     11  C   UNL     1      40.225   5.937  17.862  0.00  0.00    +0.000 A 
ATOM     12  C   UNL     1      41.521   6.340  17.587  0.00  0.00    +0.000 A 
ATOM     13  C   UNL     1      42.322   6.874  18.572  0.00  0.00    +0.000 A 
ATOM     14  C   UNL     1      41.804   6.999  19.861  0.00  0.00    +0.000 A 
ATOM     15  C   UNL     1      40.557   6.612  20.144  0.00  0.00    +0.000 A 
ATOM     16  C   UNL     1      39.702   6.060  19.147  0.00  0.00    +0.000 A 
BRANCH  11  18
ATOM     17  C   UNL     1      38.311   4.602  17.206  0.00  0.00    +0.000 C 
ATOM     18  O   UNL     1      39.430   5.405  16.818  0.00  0.00    +0.000 OA
ENDBRANCH  11  18
ENDBRANCH   8  14
ENDBRANCH   1   9
BRANCH   1  19
ATOM     19  N   UNL     1      44.025   6.630  23.977  0.00  0.00    +0.000 NA
ATOM     20  C   UNL     1      44.456   5.560  24.745  0.00  0.00    +0.000 C 
ATOM     21  O   UNL     1      45.358   4.858  24.293  0.00  0.00    +0.000 OA
BRANCH  20  22
ATOM     22  C   UNL     1      43.783   5.335  26.072  0.00  0.00    +0.000 A 
ATOM     23  C   UNL     1      43.558   4.144  26.639  0.00  0.00    +0.000 A 
ATOM     24  C   UNL     1      42.813   4.077  27.827  0.00  0.00    +0.000 A 
ATOM     25  C   UNL     1      42.311   5.197  28.423  0.00  0.00    +0.000 A 
ATOM     26  C   UNL     1      42.576   6.400  27.804  0.00  0.00    +0.000 A 
ATOM     27  C   UNL     1      43.276   6.507  26.675  0.00  0.00    +0.000 A 
BRANCH  25  28
ATOM     28  C   UNL     1      41.476   5.163  29.664  0.00  0.00    +0.000 C 
ATOM     29  C   UNL     1      41.211   3.766  30.095  0.00  0.00    +0.000 C 
ATOM     30  C   UNL     1      42.157   5.924  30.774  0.00  0.00    +0.000 C 
ATOM     31  C   UNL     1      40.110   5.814  29.396  0.00  0.00    +0.000 C 
ENDBRANCH  25  28
ENDBRANCH  20  22
ENDBRANCH   1  19
TORSDOF 7
ENDMDL
MODEL 9
REMARK VINA RESULT:      -6.8     18.349     22.352
REMARK  Name = 
REMARK  7 active torsions:
REMARK  status: ('A' for Active; 'I' for Inactive)
REMARK    1  A    between atoms: O_2  and  C_3
REMARK    2  A    between atoms: C_6  and  N_7
REMARK    3  A    between atoms: C_8  and  C_10
REMARK    4  A    between atoms: C_10  and  N_17
REMARK    5  A    between atoms: C_11  and  C_12
REMARK    6  A    between atoms: C_18  and  C_20
REMARK    7  A    between atoms: C_23  and  C_24
REMARK                            x       y       z     vdW  Elec       q    Type
REMARK                         _______ _______ _______ _____ _____    ______ ____
ROOT
ATOM      1  C   UNL     1      26.929  18.879  20.366  0.00  0.00    +0.000 C 
ATOM      2  C   UNL     1      27.390  19.268  21.463  0.00  0.00    +0.000 C 
ENDROOT
BRANCH   2   3
ATOM      3  C   UNL     1      28.749  19.268  21.977  0.00  0.00    +0.000 A 
ATOM      4  C   UNL     1      29.393  20.406  22.497  0.00  0.00    +0.000 A 
ATOM      5  C   UNL     1      30.615  20.249  22.951  0.00  0.00    +0.000 A 
ATOM      6  C   UNL     1      31.198  18.998  22.884  0.00  0.00    +0.000 A 
ATOM      7  S   UNL     1      29.943  18.076  22.172  0.00  0.00    +0.000 S 
ENDBRANCH   2   3
BRANCH   1   9
ATOM      8  N   UNL     1      28.580  18.911  18.351  0.00  0.00    +0.000 NA
ATOM      9  C   UNL     1      27.794  18.316  19.341  0.00  0.00    +0.000 C 
ATOM     10  O   UNL     1      27.843  17.021  19.315  0.00  0.00    +0.000 OA
BRANCH   8  14
ATOM     11  C   UNL     1      30.835  16.489  15.719  0.00  0.00    +0.000 A 
ATOM     12  C   UNL     1      31.371  16.947  16.911  0.00  0.00    +0.000 A 
ATOM     13  C   UNL     1      30.626  17.717  17.775  0.00  0.00    +0.000 A 
ATOM     14  C   UNL     1      29.310  18.028  17.429  0.00  0.00    +0.000 A 
ATOM     15  C   UNL     1      28.776  17.592  16.285  0.00  0.00    +0.000 A 
ATOM     16  C   UNL     1      29.523  16.796  15.368  0.00  0.00    +0.000 A 
BRANCH  11  18
ATOM     17  C   UNL     1      31.117  15.456  13.545  0.00  0.00    +0.000 C 
ATOM     18  O   UNL     1      31.639  15.711  14.852  0.00  0.00    +0.000 OA
ENDBRANCH  11  18
ENDBRANCH   8  14
ENDBRANCH   1   9
BRANCH   1  19
ATOM     19  N   UNL     1      25.566  18.908  20.034  0.00  0.00    +0.000 NA
ATOM     20  C   UNL     1      24.504  18.091  20.385  0.00  0.00    +0.000 C 
ATOM     21  O   UNL     1      24.735  17.142  21.132  0.00  0.00    +0.000 OA
BRANCH  20  22
ATOM     22  C   UNL     1      23.149  18.422  19.821  0.00  0.00    +0.000 A 
ATOM     23  C   UNL     1      21.974  18.068  20.355  0.00  0.00    +0.000 A 
ATOM     24  C   UNL     1      20.789  18.345  19.656  0.00  0.00    +0.000 A 
ATOM     25  C   UNL     1      20.800  18.971  18.444  0.00  0.00    +0.000 A 
ATOM     26  C   UNL     1      22.035  19.323  17.939  0.00  0.00    +0.000 A 
ATOM     27  C   UNL     1      23.183  19.076  18.569  0.00  0.00    +0.000 A 
BRANCH  25  28
ATOM     28  C   UNL     1      19.563  19.245  17.649  0.00  0.00    +0.000 C 
ATOM     29  C   UNL     1      19.855  19.265  16.192  0.00  0.00    +0.000 C 
ATOM     30  C   UNL     1      18.509  18.209  17.949  0.00  0.00    +0.000 C 
ATOM     31  C   UNL     1      19.001  20.628  18.010  0.00  0.00    +0.000 C 
ENDBRANCH  25  28
ENDBRANCH  20  22
ENDBRANCH   1  19
TORSDOF 7
ENDMDL
MODEL 10
REMARK VINA RESULT:      -6.8      6.576     10.100
REMARK  Name = 
REMARK  7 active torsions:
REMARK  status: ('A' for Active; 'I' for Inactive)
REMARK    1  A    between atoms: O_2  and  C_3
REMARK    2  A    between atoms: C_6  and  N_7
REMARK    3  A    between atoms: C_8  and  C_10
REMARK    4  A    between atoms: C_10  and  N_17
REMARK    5  A    between atoms: C_11  and  C_12
REMARK    6  A    between atoms: C_18  and  C_20
REMARK    7  A    between atoms: C_23  and  C_24
REMARK                            x       y       z     vdW  Elec       q    Type
REMARK                         _______ _______ _______ _____ _____    ______ ____
ROOT
ATOM      1  C   UNL     1      34.951   6.711  13.549  0.00  0.00    +0.000 C 
ATOM      2  C   UNL     1      35.028   7.750  14.241  0.00  0.00    +0.000 C 
ENDROOT
BRANCH   2   3
ATOM      3  C   UNL     1      35.024   9.152  13.858  0.00  0.00    +0.000 A 
ATOM      4  C   UNL     1      33.908   9.999  13.988  0.00  0.00    +0.000 A 
ATOM      5  C   UNL     1      34.060  11.252  13.624  0.00  0.00    +0.000 A 
ATOM      6  C   UNL     1      35.284  11.661  13.130  0.00  0.00    +0.000 A 
ATOM      7  S   UNL     1      36.189  10.210  13.221  0.00  0.00    +0.000 S 
ENDBRANCH   2   3
BRANCH   1   9
ATOM      8  N   UNL     1      35.781   6.815  11.081  0.00  0.00    +0.000 NA
ATOM      9  C   UNL     1      34.826   6.777  12.101  0.00  0.00    +0.000 C 
ATOM     10  O   UNL     1      33.610   6.829  11.657  0.00  0.00    +0.000 OA
BRANCH   8  14
ATOM     11  C   UNL     1      34.262   7.264   7.161  0.00  0.00    +0.000 A 
ATOM     12  C   UNL     1      34.394   8.351   8.009  0.00  0.00    +0.000 A 
ATOM     13  C   UNL     1      34.910   8.203   9.277  0.00  0.00    +0.000 A 
ATOM     14  C   UNL     1      35.304   6.931   9.695  0.00  0.00    +0.000 A 
ATOM     15  C   UNL     1      35.187   5.873   8.889  0.00  0.00    +0.000 A 
ATOM     16  C   UNL     1      34.653   5.992   7.573  0.00  0.00    +0.000 A 
BRANCH  11  18
ATOM     17  C   UNL     1      32.473   8.164   5.796  0.00  0.00    +0.000 C 
ATOM     18  O   UNL     1      33.714   7.457   5.870  0.00  0.00    +0.000 OA
ENDBRANCH  11  18
ENDBRANCH   8  14
ENDBRANCH   1   9
BRANCH   1  19
ATOM     19  N   UNL     1      35.013   5.412  14.074  0.00  0.00    +0.000 NA
ATOM     20  C   UNL     1      35.972   4.415  13.984  0.00  0.00    +0.000 C 
ATOM     21  O   UNL     1      36.987   4.655  13.334  0.00  0.00    +0.000 OA
BRANCH  20  22
ATOM     22  C   UNL     1      35.693   3.111  14.682  0.00  0.00    +0.000 A 
ATOM     23  C   UNL     1      34.913   2.955  15.759  0.00  0.00    +0.000 A 
ATOM     24  C   UNL     1      34.838   1.697  16.377  0.00  0.00    +0.000 A 
ATOM     25  C   UNL     1      35.538   0.624  15.909  0.00  0.00    +0.000 A 
ATOM     26  C   UNL     1      36.322   0.834  14.794  0.00  0.00    +0.000 A 
ATOM     27  C   UNL     1      36.423   2.012  14.178  0.00  0.00    +0.000 A 
BRANCH  25  28
ATOM     28  C   UNL     1      35.519  -0.720  16.565  0.00  0.00    +0.000 C 
ATOM     29  C   UNL     1      34.236  -0.950  17.280  0.00  0.00    +0.000 C 
ATOM     30  C   UNL     1      35.740  -1.805  15.542  0.00  0.00    +0.000 C 
ATOM     31  C   UNL     1      36.637  -0.808  17.616  0.00  0.00    +0.000 C 
ENDBRANCH  25  28
ENDBRANCH  20  22
ENDBRANCH   1  19
TORSDOF 7
ENDMDL
