MODEL 1
REMARK VINA RESULT:      -7.8      0.000      0.000
REMARK  Name = 
REMARK  10 active torsions:
REMARK  status: ('A' for Active; 'I' for Inactive)
REMARK    1  A    between atoms: C_2  and  N_4
REMARK    2  A    between atoms: N_4  and  C_5
REMARK    3  A    between atoms: N_4  and  C_11
REMARK    4  A    between atoms: C_14  and  N_15
REMARK    5  A    between atoms: C_16  and  C_18
REMARK    6  A    between atoms: C_18  and  O_19
REMARK    7  A    between atoms: O_19  and  C_20
REMARK    8  A    between atoms: C_20  and  C_22
REMARK    9  A    between atoms: C_22  and  C_23
REMARK   10  A    between atoms: C_23  and  C_24
REMARK                            x       y       z     vdW  Elec       q    Type
REMARK                         _______ _______ _______ _____ _____    ______ ____
ROOT
ATOM      1  C   UNL     1      25.712  15.936  37.409  0.00  0.00    +0.000 A 
ATOM      2  C   UNL     1      24.561  15.406  37.944  0.00  0.00    +0.000 A 
ATOM      3  C   UNL     1      24.570  14.514  39.000  0.00  0.00    +0.000 A 
ATOM      4  C   UNL     1      25.756  14.111  39.572  0.00  0.00    +0.000 A 
ATOM      5  C   UNL     1      26.918  14.636  39.044  0.00  0.00    +0.000 A 
ATOM      6  C   UNL     1      26.915  15.527  37.990  0.00  0.00    +0.000 A 
ENDROOT
BRANCH   4   7
ATOM      7  N   UNL     1      25.802  13.195  40.671  0.00  0.00    +0.000 NA
ATOM      8  C   UNL     1      25.581  13.756  41.965  0.00  0.00    +0.000 C 
ATOM      9  O   UNL     1      25.359  14.983  42.130  0.00  0.00    +0.000 OA
BRANCH   8  10
ATOM     10  C   UNL     1      25.619  12.840  43.131  0.00  0.00    +0.000 C 
BRANCH  10  11
ATOM     11  O   UNL     1      24.404  12.122  43.198  0.00  0.00    +0.000 OA
BRANCH  11  12
ATOM     12  C   UNL     1      24.468  10.713  43.208  0.00  0.00    +0.000 C 
ATOM     13  O   UNL     1      23.452  10.039  42.886  0.00  0.00    +0.000 OA
BRANCH  12  14
ATOM     14  C   UNL     1      25.755  10.029  43.607  0.00  0.00    +0.000 C 
BRANCH  14  15
ATOM     15  C   UNL     1      25.965   8.816  42.700  0.00  0.00    +0.000 C 
BRANCH  15  16
ATOM     16  C   UNL     1      27.311   8.936  42.053  0.00  0.00    +0.000 A 
ATOM     17  C   UNL     1      27.441   9.878  41.070  0.00  0.00    +0.000 A 
ATOM     18  C   UNL     1      28.635  10.051  40.429  0.00  0.00    +0.000 A 
ATOM     19  C   UNL     1      29.748   9.301  40.735  0.00  0.00    +0.000 A 
ATOM     20  C   UNL     1      29.588   8.342  41.746  0.00  0.00    +0.000 A 
ATOM     21  C   UNL     1      28.394   8.164  42.390  0.00  0.00    +0.000 A 
ENDBRANCH  15  16
ENDBRANCH  14  15
ENDBRANCH  12  14
ENDBRANCH  11  12
ENDBRANCH  10  11
ENDBRANCH   8  10
ENDBRANCH   4   7
BRANCH   1  22
ATOM     22  N   UNL     1      25.710  16.844  36.317  0.00  0.00    +0.000 N 
BRANCH  22  23
ATOM     23  C   UNL     1      25.529  16.306  35.009  0.00  0.00    +0.000 A 
ATOM     24  C   UNL     1      25.864  15.008  34.716  0.00  0.00    +0.000 A 
ATOM     25  C   UNL     1      25.663  14.469  33.444  0.00  0.00    +0.000 A 
ATOM     26  C   UNL     1      25.111  15.235  32.424  0.00  0.00    +0.000 A 
ATOM     27  C   UNL     1      24.775  16.535  32.717  0.00  0.00    +0.000 A 
ATOM     28  C   UNL     1      24.975  17.069  33.978  0.00  0.00    +0.000 A 
ENDBRANCH  22  23
BRANCH  22  30
ATOM     29  C   UNL     1      25.009  18.895  37.504  0.00  0.00    +0.000 C 
ATOM     30  C   UNL     1      25.865  18.267  36.442  0.00  0.00    +0.000 C 
ATOM     31  C   UNL     1      27.281  18.736  36.421  0.00  0.00    +0.000 C 
ENDBRANCH  22  30
ENDBRANCH   1  22
TORSDOF 10
ENDMDL
MODEL 2
REMARK VINA RESULT:      -7.7     24.503     27.340
REMARK  Name = 
REMARK  10 active torsions:
REMARK  status: ('A' for Active; 'I' for Inactive)
REMARK    1  A    between atoms: C_2  and  N_4
REMARK    2  A    between atoms: N_4  and  C_5
REMARK    3  A    between atoms: N_4  and  C_11
REMARK    4  A    between atoms: C_14  and  N_15
REMARK    5  A    between atoms: C_16  and  C_18
REMARK    6  A    between atoms: C_18  and  O_19
REMARK    7  A    between atoms: O_19  and  C_20
REMARK    8  A    between atoms: C_20  and  C_22
REMARK    9  A    between atoms: C_22  and  C_23
REMARK   10  A    between atoms: C_23  and  C_24
REMARK                            x       y       z     vdW  Elec       q    Type
REMARK                         _______ _______ _______ _____ _____    ______ ____
ROOT
ATOM      1  C   UNL     1      40.221   6.369  18.269  0.00  0.00    +0.000 A 
ATOM      2  C   UNL     1      40.506   6.236  16.930  0.00  0.00    +0.000 A 
ATOM      3  C   UNL     1      39.848   5.338  16.112  0.00  0.00    +0.000 A 
ATOM      4  C   UNL     1      38.858   4.522  16.614  0.00  0.00    +0.000 A 
ATOM      5  C   UNL     1      38.563   4.646  17.956  0.00  0.00    +0.000 A 
ATOM      6  C   UNL     1      39.217   5.540  18.777  0.00  0.00    +0.000 A 
ENDROOT
BRANCH   4   7
ATOM      7  N   UNL     1      38.151   3.586  15.793  0.00  0.00    +0.000 NA
ATOM      8  C   UNL     1      37.067   4.114  15.030  0.00  0.00    +0.000 C 
ATOM      9  O   UNL     1      36.751   5.331  15.076  0.00  0.00    +0.000 OA
BRANCH   8  10
ATOM     10  C   UNL     1      36.309   3.177  14.165  0.00  0.00    +0.000 C 
BRANCH  10  11
ATOM     11  O   UNL     1      35.957   2.033  14.915  0.00  0.00    +0.000 OA
BRANCH  11  12
ATOM     12  C   UNL     1      34.955   2.169  15.898  0.00  0.00    +0.000 C 
ATOM     13  O   UNL     1      34.009   2.983  15.719  0.00  0.00    +0.000 OA
BRANCH  12  14
ATOM     14  C   UNL     1      35.030   1.336  17.157  0.00  0.00    +0.000 C 
BRANCH  14  15
ATOM     15  C   UNL     1      35.019  -0.143  16.766  0.00  0.00    +0.000 C 
BRANCH  15  16
ATOM     16  C   UNL     1      36.129  -0.833  17.498  0.00  0.00    +0.000 A 
ATOM     17  C   UNL     1      37.157  -1.323  16.741  0.00  0.00    +0.000 A 
ATOM     18  C   UNL     1      38.207  -1.968  17.331  0.00  0.00    +0.000 A 
ATOM     19  C   UNL     1      38.284  -2.153  18.693  0.00  0.00    +0.000 A 
ATOM     20  C   UNL     1      37.217  -1.641  19.446  0.00  0.00    +0.000 A 
ATOM     21  C   UNL     1      36.163  -0.995  18.860  0.00  0.00    +0.000 A 
ENDBRANCH  15  16
ENDBRANCH  14  15
ENDBRANCH  12  14
ENDBRANCH  11  12
ENDBRANCH  10  11
ENDBRANCH   8  10
ENDBRANCH   4   7
BRANCH   1  22
ATOM     22  N   UNL     1      40.902   7.282  19.118  0.00  0.00    +0.000 N 
BRANCH  22  23
ATOM     23  C   UNL     1      42.170   6.885  19.635  0.00  0.00    +0.000 A 
ATOM     24  C   UNL     1      43.332   7.132  18.949  0.00  0.00    +0.000 A 
ATOM     25  C   UNL     1      44.578   6.771  19.464  0.00  0.00    +0.000 A 
ATOM     26  C   UNL     1      44.683   6.145  20.701  0.00  0.00    +0.000 A 
ATOM     27  C   UNL     1      43.520   5.897  21.389  0.00  0.00    +0.000 A 
ATOM     28  C   UNL     1      42.285   6.256  20.877  0.00  0.00    +0.000 A 
ENDBRANCH  22  23
BRANCH  22  30
ATOM     29  C   UNL     1      40.233   9.525  18.326  0.00  0.00    +0.000 C 
ATOM     30  C   UNL     1      40.405   8.580  19.480  0.00  0.00    +0.000 C 
ATOM     31  C   UNL     1      39.267   8.557  20.444  0.00  0.00    +0.000 C 
ENDBRANCH  22  30
ENDBRANCH   1  22
TORSDOF 10
ENDMDL
MODEL 3
REMARK VINA RESULT:      -7.5     24.183     26.997
REMARK  Name = 
REMARK  10 active torsions:
REMARK  status: ('A' for Active; 'I' for Inactive)
REMARK    1  A    between atoms: C_2  and  N_4
REMARK    2  A    between atoms: N_4  and  C_5
REMARK    3  A    between atoms: N_4  and  C_11
REMARK    4  A    between atoms: C_14  and  N_15
REMARK    5  A    between atoms: C_16  and  C_18
REMARK    6  A    between atoms: C_18  and  O_19
REMARK    7  A    between atoms: O_19  and  C_20
REMARK    8  A    between atoms: C_20  and  C_22
REMARK    9  A    between atoms: C_22  and  C_23
REMARK   10  A    between atoms: C_23  and  C_24
REMARK                            x       y       z     vdW  Elec       q    Type
REMARK                         _______ _______ _______ _____ _____    ______ ____
ROOT
ATOM      1  C   UNL     1      39.894   6.681  18.371  0.00  0.00    +0.000 A 
ATOM      2  C   UNL     1      39.555   7.070  17.097  0.00  0.00    +0.000 A 
ATOM      3  C   UNL     1      38.708   6.333  16.290  0.00  0.00    +0.000 A 
ATOM      4  C   UNL     1      38.159   5.153  16.739  0.00  0.00    +0.000 A 
ATOM      5  C   UNL     1      38.493   4.750  18.016  0.00  0.00    +0.000 A 
ATOM      6  C   UNL     1      39.337   5.483  18.825  0.00  0.00    +0.000 A 
ENDROOT
BRANCH   4   7
ATOM      7  N   UNL     1      37.272   4.368  15.934  0.00  0.00    +0.000 NA
ATOM      8  C   UNL     1      37.851   3.239  15.281  0.00  0.00    +0.000 C 
ATOM      9  O   UNL     1      39.069   2.949  15.405  0.00  0.00    +0.000 OA
BRANCH   8  10
ATOM     10  C   UNL     1      36.965   2.398  14.438  0.00  0.00    +0.000 C 
BRANCH  10  11
ATOM     11  O   UNL     1      35.667   2.389  14.993  0.00  0.00    +0.000 OA
BRANCH  11  12
ATOM     12  C   UNL     1      35.332   1.343  15.877  0.00  0.00    +0.000 C 
ATOM     13  O   UNL     1      34.597   1.578  16.874  0.00  0.00    +0.000 OA
BRANCH  12  14
ATOM     14  C   UNL     1      35.861  -0.049  15.617  0.00  0.00    +0.000 C 
BRANCH  14  15
ATOM     15  C   UNL     1      35.275  -0.997  16.665  0.00  0.00    +0.000 C 
BRANCH  15  16
ATOM     16  C   UNL     1      36.406  -1.626  17.419  0.00  0.00    +0.000 A 
ATOM     17  C   UNL     1      36.491  -1.344  18.754  0.00  0.00    +0.000 A 
ATOM     18  C   UNL     1      37.494  -1.877  19.514  0.00  0.00    +0.000 A 
ATOM     19  C   UNL     1      38.453  -2.710  18.983  0.00  0.00    +0.000 A 
ATOM     20  C   UNL     1      38.344  -2.983  17.612  0.00  0.00    +0.000 A 
ATOM     21  C   UNL     1      37.341  -2.452  16.847  0.00  0.00    +0.000 A 
ENDBRANCH  15  16
ENDBRANCH  14  15
ENDBRANCH  12  14
ENDBRANCH  11  12
ENDBRANCH  10  11
ENDBRANCH   8  10
ENDBRANCH   4   7
BRANCH   1  22
ATOM     22  N   UNL     1      40.773   7.428  19.200  0.00  0.00    +0.000 N 
BRANCH  22  23
ATOM     23  C   UNL     1      40.243   8.569  19.869  0.00  0.00    +0.000 A 
ATOM     24  C   UNL     1      40.984   9.712  20.033  0.00  0.00    +0.000 A 
ATOM     25  C   UNL     1      40.459  10.841  20.663  0.00  0.00    +0.000 A 
ATOM     26  C   UNL     1      39.156  10.846  21.148  0.00  0.00    +0.000 A 
ATOM     27  C   UNL     1      38.413   9.702  20.984  0.00  0.00    +0.000 A 
ATOM     28  C   UNL     1      38.934   8.582  20.360  0.00  0.00    +0.000 A 
ENDBRANCH  22  23
BRANCH  22  30
ATOM     29  C   UNL     1      42.411   6.247  20.625  0.00  0.00    +0.000 C 
ATOM     30  C   UNL     1      42.156   7.103  19.418  0.00  0.00    +0.000 C 
ATOM     31  C   UNL     1      42.892   6.688  18.189  0.00  0.00    +0.000 C 
ENDBRANCH  22  30
ENDBRANCH   1  22
TORSDOF 10
ENDMDL
MODEL 4
REMARK VINA RESULT:      -7.4     25.862     29.210
REMARK  Name = 
REMARK  10 active torsions:
REMARK  status: ('A' for Active; 'I' for Inactive)
REMARK    1  A    between atoms: C_2  and  N_4
REMARK    2  A    between atoms: N_4  and  C_5
REMARK    3  A    between atoms: N_4  and  C_11
REMARK    4  A    between atoms: C_14  and  N_15
REMARK    5  A    between atoms: C_16  and  C_18
REMARK    6  A    between atoms: C_18  and  O_19
REMARK    7  A    between atoms: O_19  and  C_20
REMARK    8  A    between atoms: C_20  and  C_22
REMARK    9  A    between atoms: C_22  and  C_23
REMARK   10  A    between atoms: C_23  and  C_24
REMARK                            x       y       z     vdW  Elec       q    Type
REMARK                         _______ _______ _______ _____ _____    ______ ____
ROOT
ATOM      1  C   UNL     1      37.428  -0.909  15.378  0.00  0.00    +0.000 A 
ATOM      2  C   UNL     1      38.581  -0.215  15.094  0.00  0.00    +0.000 A 
ATOM      3  C   UNL     1      38.581   1.124  14.751  0.00  0.00    +0.000 A 
ATOM      4  C   UNL     1      37.403   1.832  14.678  0.00  0.00    +0.000 A 
ATOM      5  C   UNL     1      36.239   1.147  14.960  0.00  0.00    +0.000 A 
ATOM      6  C   UNL     1      36.233  -0.189  15.303  0.00  0.00    +0.000 A 
ENDROOT
BRANCH   4   7
ATOM      7  N   UNL     1      37.368   3.222  14.334  0.00  0.00    +0.000 NA
ATOM      8  C   UNL     1      37.221   4.134  15.421  0.00  0.00    +0.000 C 
ATOM      9  O   UNL     1      37.127   3.741  16.613  0.00  0.00    +0.000 OA
BRANCH   8  10
ATOM     10  C   UNL     1      37.181   5.584  15.108  0.00  0.00    +0.000 C 
BRANCH  10  11
ATOM     11  O   UNL     1      38.266   6.227  15.743  0.00  0.00    +0.000 OA
BRANCH  11  12
ATOM     12  C   UNL     1      37.991   7.362  16.533  0.00  0.00    +0.000 C 
ATOM     13  O   UNL     1      37.478   8.384  16.003  0.00  0.00    +0.000 OA
BRANCH  12  14
ATOM     14  C   UNL     1      38.318   7.338  18.009  0.00  0.00    +0.000 C 
BRANCH  14  15
ATOM     15  C   UNL     1      38.964   5.993  18.344  0.00  0.00    +0.000 C 
BRANCH  15  16
ATOM     16  C   UNL     1      40.371   6.243  18.793  0.00  0.00    +0.000 A 
ATOM     17  C   UNL     1      41.310   6.414  17.814  0.00  0.00    +0.000 A 
ATOM     18  C   UNL     1      42.617   6.646  18.139  0.00  0.00    +0.000 A 
ATOM     19  C   UNL     1      43.047   6.718  19.444  0.00  0.00    +0.000 A 
ATOM     20  C   UNL     1      42.065   6.539  20.429  0.00  0.00    +0.000 A 
ATOM     21  C   UNL     1      40.755   6.306  20.109  0.00  0.00    +0.000 A 
ENDBRANCH  15  16
ENDBRANCH  14  15
ENDBRANCH  12  14
ENDBRANCH  11  12
ENDBRANCH  10  11
ENDBRANCH   8  10
ENDBRANCH   4   7
BRANCH   1  22
ATOM     22  N   UNL     1      37.420  -2.288  15.719  0.00  0.00    +0.000 N 
BRANCH  22  23
ATOM     23  C   UNL     1      37.778  -2.644  17.052  0.00  0.00    +0.000 A 
ATOM     24  C   UNL     1      37.372  -1.895  18.126  0.00  0.00    +0.000 A 
ATOM     25  C   UNL     1      37.698  -2.254  19.435  0.00  0.00    +0.000 A 
ATOM     26  C   UNL     1      38.449  -3.395  19.695  0.00  0.00    +0.000 A 
ATOM     27  C   UNL     1      38.857  -4.146  18.619  0.00  0.00    +0.000 A 
ATOM     28  C   UNL     1      38.534  -3.789  17.321  0.00  0.00    +0.000 A 
ENDBRANCH  22  23
BRANCH  22  30
ATOM     29  C   UNL     1      35.603  -3.699  14.814  0.00  0.00    +0.000 C 
ATOM     30  C   UNL     1      37.063  -3.346  14.814  0.00  0.00    +0.000 C 
ATOM     31  C   UNL     1      37.679  -3.233  13.460  0.00  0.00    +0.000 C 
ENDBRANCH  22  30
ENDBRANCH   1  22
TORSDOF 10
ENDMDL
MODEL 5
REMARK VINA RESULT:      -7.2      0.936      1.924
REMARK  Name = 
REMARK  10 active torsions:
REMARK  status: ('A' for Active; 'I' for Inactive)
REMARK    1  A    between atoms: C_2  and  N_4
REMARK    2  A    between atoms: N_4  and  C_5
REMARK    3  A    between atoms: N_4  and  C_11
REMARK    4  A    between atoms: C_14  and  N_15
REMARK    5  A    between atoms: C_16  and  C_18
REMARK    6  A    between atoms: C_18  and  O_19
REMARK    7  A    between atoms: O_19  and  C_20
REMARK    8  A    between atoms: C_20  and  C_22
REMARK    9  A    between atoms: C_22  and  C_23
REMARK   10  A    between atoms: C_23  and  C_24
REMARK                            x       y       z     vdW  Elec       q    Type
REMARK                         _______ _______ _______ _____ _____    ______ ____
ROOT
ATOM      1  C   UNL     1      26.048  15.900  37.365  0.00  0.00    +0.000 A 
ATOM      2  C   UNL     1      27.104  15.428  38.109  0.00  0.00    +0.000 A 
ATOM      3  C   UNL     1      26.935  14.610  39.210  0.00  0.00    +0.000 A 
ATOM      4  C   UNL     1      25.677  14.225  39.615  0.00  0.00    +0.000 A 
ATOM      5  C   UNL     1      24.609  14.692  38.877  0.00  0.00    +0.000 A 
ATOM      6  C   UNL     1      24.772  15.509  37.777  0.00  0.00    +0.000 A 
ENDROOT
BRANCH   4   7
ATOM      7  N   UNL     1      25.466  13.372  40.746  0.00  0.00    +0.000 NA
ATOM      8  C   UNL     1      25.332  14.023  42.008  0.00  0.00    +0.000 C 
ATOM      9  O   UNL     1      25.395  15.275  42.122  0.00  0.00    +0.000 OA
BRANCH   8  10
ATOM     10  C   UNL     1      25.110  13.175  43.204  0.00  0.00    +0.000 C 
BRANCH  10  11
ATOM     11  O   UNL     1      25.110  11.816  42.818  0.00  0.00    +0.000 OA
BRANCH  11  12
ATOM     12  C   UNL     1      26.214  11.022  43.190  0.00  0.00    +0.000 C 
ATOM     13  O   UNL     1      26.984  11.413  44.109  0.00  0.00    +0.000 OA
BRANCH  12  14
ATOM     14  C   UNL     1      26.461   9.711  42.480  0.00  0.00    +0.000 C 
BRANCH  14  15
ATOM     15  C   UNL     1      26.787  10.003  41.014  0.00  0.00    +0.000 C 
BRANCH  15  16
ATOM     16  C   UNL     1      28.271  10.156  40.882  0.00  0.00    +0.000 A 
ATOM     17  C   UNL     1      29.027   9.033  41.073  0.00  0.00    +0.000 A 
ATOM     18  C   UNL     1      30.389   9.087  40.972  0.00  0.00    +0.000 A 
ATOM     19  C   UNL     1      31.057  10.254  40.676  0.00  0.00    +0.000 A 
ATOM     20  C   UNL     1      30.259  11.391  40.484  0.00  0.00    +0.000 A 
ATOM     21  C   UNL     1      28.895  11.342  40.585  0.00  0.00    +0.000 A 
ENDBRANCH  15  16
ENDBRANCH  14  15
ENDBRANCH  12  14
ENDBRANCH  11  12
ENDBRANCH  10  11
ENDBRANCH   8  10
ENDBRANCH   4   7
BRANCH   1  22
ATOM     22  N   UNL     1      26.214  16.751  36.240  0.00  0.00    +0.000 N 
BRANCH  22  23
ATOM     23  C   UNL     1      25.820  16.250  34.965  0.00  0.00    +0.000 A 
ATOM     24  C   UNL     1      25.184  17.046  34.048  0.00  0.00    +0.000 A 
ATOM     25  C   UNL     1      24.821  16.567  32.788  0.00  0.00    +0.000 A 
ATOM     26  C   UNL     1      25.097  15.256  32.417  0.00  0.00    +0.000 A 
ATOM     27  C   UNL     1      25.735  14.457  33.336  0.00  0.00    +0.000 A 
ATOM     28  C   UNL     1      26.094  14.933  34.585  0.00  0.00    +0.000 A 
ENDBRANCH  22  23
BRANCH  22  30
ATOM     29  C   UNL     1      26.230  18.903  37.455  0.00  0.00    +0.000 C 
ATOM     30  C   UNL     1      26.740  18.087  36.303  0.00  0.00    +0.000 C 
ATOM     31  C   UNL     1      28.211  18.181  36.073  0.00  0.00    +0.000 C 
ENDBRANCH  22  30
ENDBRANCH   1  22
TORSDOF 10
ENDMDL
MODEL 6
REMARK VINA RESULT:      -7.0     25.519     27.337
REMARK  Name = 
REMARK  10 active torsions:
REMARK  status: ('A' for Active; 'I' for Inactive)
REMARK    1  A    between atoms: C_2  and  N_4
REMARK    2  A    between atoms: N_4  and  C_5
REMARK    3  A    between atoms: N_4  and  C_11
REMARK    4  A    between atoms: C_14  and  N_15
REMARK    5  A    between atoms: C_16  and  C_18
REMARK    6  A    between atoms: C_18  and  O_19
REMARK    7  A    between atoms: O_19  and  C_20
REMARK    8  A    between atoms: C_20  and  C_22
REMARK    9  A    between atoms: C_22  and  C_23
REMARK   10  A    between atoms: C_23  and  C_24
REMARK                            x       y       z     vdW  Elec       q    Type
REMARK                         _______ _______ _______ _____ _____    ______ ____
ROOT
ATOM      1  C   UNL     1      41.747   6.937  19.410  0.00  0.00    +0.000 A 
ATOM      2  C   UNL     1      41.985   6.625  18.092  0.00  0.00    +0.000 A 
ATOM      3  C   UNL     1      41.012   6.105  17.260  0.00  0.00    +0.000 A 
ATOM      4  C   UNL     1      39.737   5.873  17.726  0.00  0.00    +0.000 A 
ATOM      5  C   UNL     1      39.486   6.182  19.047  0.00  0.00    +0.000 A 
ATOM      6  C   UNL     1      40.454   6.701  19.882  0.00  0.00    +0.000 A 
ENDROOT
BRANCH   4   7
ATOM      7  N   UNL     1      38.703   5.343  16.889  0.00  0.00    +0.000 NA
ATOM      8  C   UNL     1      37.988   4.223  17.408  0.00  0.00    +0.000 C 
ATOM      9  O   UNL     1      38.251   3.729  18.535  0.00  0.00    +0.000 OA
BRANCH   8  10
ATOM     10  C   UNL     1      36.907   3.645  16.573  0.00  0.00    +0.000 C 
BRANCH  10  11
ATOM     11  O   UNL     1      36.766   2.273  16.877  0.00  0.00    +0.000 OA
BRANCH  11  12
ATOM     12  C   UNL     1      35.654   1.588  16.346  0.00  0.00    +0.000 C 
ATOM     13  O   UNL     1      35.115   2.000  15.283  0.00  0.00    +0.000 OA
BRANCH  12  14
ATOM     14  C   UNL     1      35.120   0.368  17.060  0.00  0.00    +0.000 C 
BRANCH  14  15
ATOM     15  C   UNL     1      35.694  -0.881  16.389  0.00  0.00    +0.000 C 
BRANCH  15  16
ATOM     16  C   UNL     1      36.645  -1.535  17.344  0.00  0.00    +0.000 A 
ATOM     17  C   UNL     1      37.632  -2.309  16.798  0.00  0.00    +0.000 A 
ATOM     18  C   UNL     1      38.540  -2.943  17.600  0.00  0.00    +0.000 A 
ATOM     19  C   UNL     1      38.509  -2.835  18.972  0.00  0.00    +0.000 A 
ATOM     20  C   UNL     1      37.488  -2.035  19.505  0.00  0.00    +0.000 A 
ATOM     21  C   UNL     1      36.576  -1.400  18.707  0.00  0.00    +0.000 A 
ENDBRANCH  15  16
ENDBRANCH  14  15
ENDBRANCH  12  14
ENDBRANCH  11  12
ENDBRANCH  10  11
ENDBRANCH   8  10
ENDBRANCH   4   7
BRANCH   1  22
ATOM     22  N   UNL     1      42.746   7.460  20.274  0.00  0.00    +0.000 N 
BRANCH  22  23
ATOM     23  C   UNL     1      43.804   6.589  20.667  0.00  0.00    +0.000 A 
ATOM     24  C   UNL     1      43.643   5.680  21.681  0.00  0.00    +0.000 A 
ATOM     25  C   UNL     1      44.667   4.806  22.052  0.00  0.00    +0.000 A 
ATOM     26  C   UNL     1      45.894   4.828  21.398  0.00  0.00    +0.000 A 
ATOM     27  C   UNL     1      46.056   5.738  20.381  0.00  0.00    +0.000 A 
ATOM     28  C   UNL     1      45.040   6.604  20.015  0.00  0.00    +0.000 A 
ENDBRANCH  22  23
BRANCH  22  30
ATOM     29  C   UNL     1      43.703   9.035  21.921  0.00  0.00    +0.000 C 
ATOM     30  C   UNL     1      42.769   8.809  20.767  0.00  0.00    +0.000 C 
ATOM     31  C   UNL     1      42.826   9.853  19.703  0.00  0.00    +0.000 C 
ENDBRANCH  22  30
ENDBRANCH   1  22
TORSDOF 10
ENDMDL
MODEL 7
REMARK VINA RESULT:      -6.9     25.003     27.871
REMARK  Name = 
REMARK  10 active torsions:
REMARK  status: ('A' for Active; 'I' for Inactive)
REMARK    1  A    between atoms: C_2  and  N_4
REMARK    2  A    between atoms: N_4  and  C_5
REMARK    3  A    between atoms: N_4  and  C_11
REMARK    4  A    between atoms: C_14  and  N_15
REMARK    5  A    between atoms: C_16  and  C_18
REMARK    6  A    between atoms: C_18  and  O_19
REMARK    7  A    between atoms: O_19  and  C_20
REMARK    8  A    between atoms: C_20  and  C_22
REMARK    9  A    between atoms: C_22  and  C_23
REMARK   10  A    between atoms: C_23  and  C_24
REMARK                            x       y       z     vdW  Elec       q    Type
REMARK                         _______ _______ _______ _____ _____    ______ ____
ROOT
ATOM      1  C   UNL     1      39.615   6.609  18.325  0.00  0.00    +0.000 A 
ATOM      2  C   UNL     1      39.262   6.968  17.045  0.00  0.00    +0.000 A 
ATOM      3  C   UNL     1      38.533   6.142  16.211  0.00  0.00    +0.000 A 
ATOM      4  C   UNL     1      38.121   4.898  16.635  0.00  0.00    +0.000 A 
ATOM      5  C   UNL     1      38.469   4.526  17.918  0.00  0.00    +0.000 A 
ATOM      6  C   UNL     1      39.197   5.346  18.754  0.00  0.00    +0.000 A 
ENDROOT
BRANCH   4   7
ATOM      7  N   UNL     1      37.358   4.020  15.801  0.00  0.00    +0.000 NA
ATOM      8  C   UNL     1      38.093   3.003  15.121  0.00  0.00    +0.000 C 
ATOM      9  O   UNL     1      39.339   2.885  15.248  0.00  0.00    +0.000 OA
BRANCH   8  10
ATOM     10  C   UNL     1      37.338   2.071  14.248  0.00  0.00    +0.000 C 
BRANCH  10  11
ATOM     11  O   UNL     1      37.539   0.747  14.697  0.00  0.00    +0.000 OA
BRANCH  11  12
ATOM     12  C   UNL     1      37.203  -0.306  13.821  0.00  0.00    +0.000 C 
ATOM     13  O   UNL     1      36.765  -0.045  12.668  0.00  0.00    +0.000 OA
BRANCH  12  14
ATOM     14  C   UNL     1      37.374  -1.737  14.278  0.00  0.00    +0.000 C 
BRANCH  14  15
ATOM     15  C   UNL     1      36.093  -2.178  14.988  0.00  0.00    +0.000 C 
BRANCH  15  16
ATOM     16  C   UNL     1      36.140  -1.683  16.401  0.00  0.00    +0.000 A 
ATOM     17  C   UNL     1      37.221  -2.059  17.151  0.00  0.00    +0.000 A 
ATOM     18  C   UNL     1      37.340  -1.651  18.449  0.00  0.00    +0.000 A 
ATOM     19  C   UNL     1      36.396  -0.854  19.058  0.00  0.00    +0.000 A 
ATOM     20  C   UNL     1      35.299  -0.482  18.267  0.00  0.00    +0.000 A 
ATOM     21  C   UNL     1      35.175  -0.888  16.966  0.00  0.00    +0.000 A 
ENDBRANCH  15  16
ENDBRANCH  14  15
ENDBRANCH  12  14
ENDBRANCH  11  12
ENDBRANCH  10  11
ENDBRANCH   8  10
ENDBRANCH   4   7
BRANCH   1  22
ATOM     22  N   UNL     1      40.374   7.448  19.182  0.00  0.00    +0.000 N 
BRANCH  22  23
ATOM     23  C   UNL     1      41.734   7.093  19.423  0.00  0.00    +0.000 A 
ATOM     24  C   UNL     1      42.693   7.232  18.452  0.00  0.00    +0.000 A 
ATOM     25  C   UNL     1      44.030   6.911  18.692  0.00  0.00    +0.000 A 
ATOM     26  C   UNL     1      44.438   6.439  19.935  0.00  0.00    +0.000 A 
ATOM     27  C   UNL     1      43.478   6.300  20.908  0.00  0.00    +0.000 A 
ATOM     28  C   UNL     1      42.152   6.618  20.669  0.00  0.00    +0.000 A 
ENDBRANCH  22  23
BRANCH  22  30
ATOM     29  C   UNL     1      39.995   9.882  18.985  0.00  0.00    +0.000 C 
ATOM     30  C   UNL     1      39.869   8.636  19.813  0.00  0.00    +0.000 C 
ATOM     31  C   UNL     1      38.547   8.463  20.483  0.00  0.00    +0.000 C 
ENDBRANCH  22  30
ENDBRANCH   1  22
TORSDOF 10
ENDMDL
MODEL 8
REMARK VINA RESULT:      -6.8     28.809     31.585
REMARK  Name = 
REMARK  10 active torsions:
REMARK  status: ('A' for Active; 'I' for Inactive)
REMARK    1  A    between atoms: C_2  and  N_4
REMARK    2  A    between atoms: N_4  and  C_5
REMARK    3  A    between atoms: N_4  and  C_11
REMARK    4  A    between atoms: C_14  and  N_15
REMARK    5  A    between atoms: C_16  and  C_18
REMARK    6  A    between atoms: C_18  and  O_19
REMARK    7  A    between atoms: O_19  and  C_20
REMARK    8  A    between atoms: C_20  and  C_22
REMARK    9  A    between atoms: C_22  and  C_23
REMARK   10  A    between atoms: C_23  and  C_24
REMARK                            x       y       z     vdW  Elec       q    Type
REMARK                         _______ _______ _______ _____ _____    ______ ____
ROOT
ATOM      1  C   UNL     1      41.681  -0.906  13.828  0.00  0.00    +0.000 A 
ATOM      2  C   UNL     1      40.814  -1.479  14.729  0.00  0.00    +0.000 A 
ATOM      3  C   UNL     1      39.648  -0.861  15.140  0.00  0.00    +0.000 A 
ATOM      4  C   UNL     1      39.299   0.379  14.653  0.00  0.00    +0.000 A 
ATOM      5  C   UNL     1      40.161   0.964  13.748  0.00  0.00    +0.000 A 
ATOM      6  C   UNL     1      41.326   0.352  13.336  0.00  0.00    +0.000 A 
ENDROOT
BRANCH   4   7
ATOM      7  N   UNL     1      38.094   1.044  15.050  0.00  0.00    +0.000 NA
ATOM      8  C   UNL     1      36.880   0.511  14.524  0.00  0.00    +0.000 C 
ATOM      9  O   UNL     1      36.867  -0.486  13.756  0.00  0.00    +0.000 OA
BRANCH   8  10
ATOM     10  C   UNL     1      35.609   1.170  14.913  0.00  0.00    +0.000 C 
BRANCH  10  11
ATOM     11  O   UNL     1      35.829   1.964  16.060  0.00  0.00    +0.000 OA
BRANCH  11  12
ATOM     12  C   UNL     1      35.904   1.315  17.309  0.00  0.00    +0.000 C 
ATOM     13  O   UNL     1      36.713   1.732  18.182  0.00  0.00    +0.000 OA
BRANCH  12  14
ATOM     14  C   UNL     1      35.013   0.126  17.585  0.00  0.00    +0.000 C 
BRANCH  14  15
ATOM     15  C   UNL     1      35.607  -0.669  18.750  0.00  0.00    +0.000 C 
BRANCH  15  16
ATOM     16  C   UNL     1      36.538  -1.702  18.191  0.00  0.00    +0.000 A 
ATOM     17  C   UNL     1      37.685  -1.943  18.894  0.00  0.00    +0.000 A 
ATOM     18  C   UNL     1      38.588  -2.869  18.452  0.00  0.00    +0.000 A 
ATOM     19  C   UNL     1      38.391  -3.593  17.298  0.00  0.00    +0.000 A 
ATOM     20  C   UNL     1      37.207  -3.326  16.596  0.00  0.00    +0.000 A 
ATOM     21  C   UNL     1      36.300  -2.400  17.034  0.00  0.00    +0.000 A 
ENDBRANCH  15  16
ENDBRANCH  14  15
ENDBRANCH  12  14
ENDBRANCH  11  12
ENDBRANCH  10  11
ENDBRANCH   8  10
ENDBRANCH   4   7
BRANCH   1  22
ATOM     22  N   UNL     1      42.887  -1.530  13.412  0.00  0.00    +0.000 N 
BRANCH  22  23
ATOM     23  C   UNL     1      44.014  -1.440  14.281  0.00  0.00    +0.000 A 
ATOM     24  C   UNL     1      44.238  -0.326  15.050  0.00  0.00    +0.000 A 
ATOM     25  C   UNL     1      45.324  -0.244  15.922  0.00  0.00    +0.000 A 
ATOM     26  C   UNL     1      46.223  -1.298  16.043  0.00  0.00    +0.000 A 
ATOM     27  C   UNL     1      46.000  -2.415  15.273  0.00  0.00    +0.000 A 
ATOM     28  C   UNL     1      44.922  -2.495  14.408  0.00  0.00    +0.000 A 
ENDBRANCH  22  23
BRANCH  22  30
ATOM     29  C   UNL     1      41.866  -3.109  11.809  0.00  0.00    +0.000 C 
ATOM     30  C   UNL     1      43.044  -2.256  12.182  0.00  0.00    +0.000 C 
ATOM     31  C   UNL     1      43.616  -1.454  11.062  0.00  0.00    +0.000 C 
ENDBRANCH  22  30
ENDBRANCH   1  22
TORSDOF 10
ENDMDL
MODEL 9
REMARK VINA RESULT:      -6.8     24.625     27.669
REMARK  Name = 
REMARK  10 active torsions:
REMARK  status: ('A' for Active; 'I' for Inactive)
REMARK    1  A    between atoms: C_2  and  N_4
REMARK    2  A    between atoms: N_4  and  C_5
REMARK    3  A    between atoms: N_4  and  C_11
REMARK    4  A    between atoms: C_14  and  N_15
REMARK    5  A    between atoms: C_16  and  C_18
REMARK    6  A    between atoms: C_18  and  O_19
REMARK    7  A    between atoms: O_19  and  C_20
REMARK    8  A    between atoms: C_20  and  C_22
REMARK    9  A    between atoms: C_22  and  C_23
REMARK   10  A    between atoms: C_23  and  C_24
REMARK                            x       y       z     vdW  Elec       q    Type
REMARK                         _______ _______ _______ _____ _____    ______ ____
ROOT
ATOM      1  C   UNL     1      40.270   6.427  18.345  0.00  0.00    +0.000 A 
ATOM      2  C   UNL     1      40.569   6.535  17.007  0.00  0.00    +0.000 A 
ATOM      3  C   UNL     1      39.980   5.738  16.043  0.00  0.00    +0.000 A 
ATOM      4  C   UNL     1      39.049   4.784  16.391  0.00  0.00    +0.000 A 
ATOM      5  C   UNL     1      38.742   4.666  17.731  0.00  0.00    +0.000 A 
ATOM      6  C   UNL     1      39.327   5.458  18.696  0.00  0.00    +0.000 A 
ENDROOT
BRANCH   4   7
ATOM      7  N   UNL     1      38.413   3.948  15.418  0.00  0.00    +0.000 NA
ATOM      8  C   UNL     1      37.268   4.499  14.769  0.00  0.00    +0.000 C 
ATOM      9  O   UNL     1      36.842   5.652  15.036  0.00  0.00    +0.000 OA
BRANCH   8  10
ATOM     10  C   UNL     1      36.581   3.664  13.753  0.00  0.00    +0.000 C 
BRANCH  10  11
ATOM     11  O   UNL     1      36.580   2.318  14.180  0.00  0.00    +0.000 OA
BRANCH  11  12
ATOM     12  C   UNL     1      36.994   1.332  13.260  0.00  0.00    +0.000 C 
ATOM     13  O   UNL     1      37.043   1.605  12.031  0.00  0.00    +0.000 OA
BRANCH  12  14
ATOM     14  C   UNL     1      37.374  -0.042  13.763  0.00  0.00    +0.000 C 
BRANCH  14  15
ATOM     15  C   UNL     1      37.483   0.009  15.287  0.00  0.00    +0.000 C 
BRANCH  15  16
ATOM     16  C   UNL     1      36.341  -0.768  15.869  0.00  0.00    +0.000 A 
ATOM     17  C   UNL     1      35.507  -0.096  16.719  0.00  0.00    +0.000 A 
ATOM     18  C   UNL     1      34.442  -0.732  17.293  0.00  0.00    +0.000 A 
ATOM     19  C   UNL     1      34.159  -2.057  17.048  0.00  0.00    +0.000 A 
ATOM     20  C   UNL     1      35.030  -2.723  16.173  0.00  0.00    +0.000 A 
ATOM     21  C   UNL     1      36.098  -2.091  15.596  0.00  0.00    +0.000 A 
ENDBRANCH  15  16
ENDBRANCH  14  15
ENDBRANCH  12  14
ENDBRANCH  11  12
ENDBRANCH  10  11
ENDBRANCH   8  10
ENDBRANCH   4   7
BRANCH   1  22
ATOM     22  N   UNL     1      40.882   7.234  19.341  0.00  0.00    +0.000 N 
BRANCH  22  23
ATOM     23  C   UNL     1      40.112   8.297  19.898  0.00  0.00    +0.000 A 
ATOM     24  C   UNL     1      38.774   8.151  20.160  0.00  0.00    +0.000 A 
ATOM     25  C   UNL     1      38.022   9.179  20.730  0.00  0.00    +0.000 A 
ATOM     26  C   UNL     1      38.611  10.396  21.056  0.00  0.00    +0.000 A 
ATOM     27  C   UNL     1      39.952  10.544  20.794  0.00  0.00    +0.000 A 
ATOM     28  C   UNL     1      40.696   9.523  20.228  0.00  0.00    +0.000 A 
ENDBRANCH  22  23
BRANCH  22  30
ATOM     29  C   UNL     1      42.347   5.979  20.886  0.00  0.00    +0.000 C 
ATOM     30  C   UNL     1      42.218   7.043  19.834  0.00  0.00    +0.000 C 
ATOM     31  C   UNL     1      43.266   7.004  18.773  0.00  0.00    +0.000 C 
ENDBRANCH  22  30
ENDBRANCH   1  22
TORSDOF 10
ENDMDL
MODEL 10
REMARK VINA RESULT:      -6.8     26.128     29.278
REMARK  Name = 
REMARK  10 active torsions:
REMARK  status: ('A' for Active; 'I' for Inactive)
REMARK    1  A    between atoms: C_2  and  N_4
REMARK    2  A    between atoms: N_4  and  C_5
REMARK    3  A    between atoms: N_4  and  C_11
REMARK    4  A    between atoms: C_14  and  N_15
REMARK    5  A    between atoms: C_16  and  C_18
REMARK    6  A    between atoms: C_18  and  O_19
REMARK    7  A    between atoms: O_19  and  C_20
REMARK    8  A    between atoms: C_20  and  C_22
REMARK    9  A    between atoms: C_22  and  C_23
REMARK   10  A    between atoms: C_23  and  C_24
REMARK                            x       y       z     vdW  Elec       q    Type
REMARK                         _______ _______ _______ _____ _____    ______ ____
ROOT
ATOM      1  C   UNL     1      36.490   0.105  16.033  0.00  0.00    +0.000 A 
ATOM      2  C   UNL     1      37.756   0.424  15.602  0.00  0.00    +0.000 A 
ATOM      3  C   UNL     1      38.030   1.560  14.865  0.00  0.00    +0.000 A 
ATOM      4  C   UNL     1      37.026   2.438  14.524  0.00  0.00    +0.000 A 
ATOM      5  C   UNL     1      35.750   2.129  14.950  0.00  0.00    +0.000 A 
ATOM      6  C   UNL     1      35.471   0.996  15.685  0.00  0.00    +0.000 A 
ENDROOT
BRANCH   4   7
ATOM      7  N   UNL     1      37.275   3.629  13.768  0.00  0.00    +0.000 NA
ATOM      8  C   UNL     1      37.449   4.827  14.523  0.00  0.00    +0.000 C 
ATOM      9  O   UNL     1      37.387   4.837  15.780  0.00  0.00    +0.000 OA
BRANCH   8  10
ATOM     10  C   UNL     1      37.712   6.082  13.778  0.00  0.00    +0.000 C 
BRANCH  10  11
ATOM     11  O   UNL     1      38.479   6.951  14.585  0.00  0.00    +0.000 OA
BRANCH  11  12
ATOM     12  C   UNL     1      39.884   6.864  14.502  0.00  0.00    +0.000 C 
ATOM     13  O   UNL     1      40.521   7.688  13.792  0.00  0.00    +0.000 OA
BRANCH  12  14
ATOM     14  C   UNL     1      40.609   5.779  15.266  0.00  0.00    +0.000 C 
BRANCH  14  15
ATOM     15  C   UNL     1      41.839   6.393  15.936  0.00  0.00    +0.000 C 
BRANCH  15  16
ATOM     16  C   UNL     1      41.613   6.405  17.417  0.00  0.00    +0.000 A 
ATOM     17  C   UNL     1      40.353   6.097  17.852  0.00  0.00    +0.000 A 
ATOM     18  C   UNL     1      40.064   6.087  19.187  0.00  0.00    +0.000 A 
ATOM     19  C   UNL     1      41.008   6.379  20.146  0.00  0.00    +0.000 A 
ATOM     20  C   UNL     1      42.291   6.691  19.673  0.00  0.00    +0.000 A 
ATOM     21  C   UNL     1      42.586   6.703  18.337  0.00  0.00    +0.000 A 
ENDBRANCH  15  16
ENDBRANCH  14  15
ENDBRANCH  12  14
ENDBRANCH  11  12
ENDBRANCH  10  11
ENDBRANCH   8  10
ENDBRANCH   4   7
BRANCH   1  22
ATOM     22  N   UNL     1      36.199  -1.067  16.780  0.00  0.00    +0.000 N 
BRANCH  22  23
ATOM     23  C   UNL     1      35.682  -2.192  16.073  0.00  0.00    +0.000 A 
ATOM     24  C   UNL     1      36.438  -2.868  15.150  0.00  0.00    +0.000 A 
ATOM     25  C   UNL     1      35.945  -3.986  14.476  0.00  0.00    +0.000 A 
ATOM     26  C   UNL     1      34.660  -4.458  14.722  0.00  0.00    +0.000 A 
ATOM     27  C   UNL     1      33.901  -3.781  15.648  0.00  0.00    +0.000 A 
ATOM     28  C   UNL     1      34.391  -2.672  16.315  0.00  0.00    +0.000 A 
ENDBRANCH  22  23
BRANCH  22  30
ATOM     29  C   UNL     1      37.727  -1.796  18.581  0.00  0.00    +0.000 C 
ATOM     30  C   UNL     1      36.404  -1.200  18.196  0.00  0.00    +0.000 C 
ATOM     31  C   UNL     1      36.002  -0.003  18.991  0.00  0.00    +0.000 C 
ENDBRANCH  22  30
ENDBRANCH   1  22
TORSDOF 10
ENDMDL
