MODEL 1
REMARK VINA RESULT:      -5.8      0.000      0.000
REMARK  Name = 
REMARK  3 active torsions:
REMARK  status: ('A' for Active; 'I' for Inactive)
REMARK    1  A    between atoms: C_2  and  C_5
REMARK    2  A    between atoms: N_9  and  C_10
REMARK    3  A    between atoms: C_13  and  N_14
REMARK                            x       y       z     vdW  Elec       q    Type
REMARK                         _______ _______ _______ _____ _____    ______ ____
ROOT
ATOM      1  C   UNL     1      27.076  23.581  25.952  0.00  0.00    +0.000 A 
ATOM      2  C   UNL     1      26.175  22.922  25.154  0.00  0.00    +0.000 A 
ATOM      3  C   UNL     1      26.358  23.404  23.853  0.00  0.00    +0.000 A 
ATOM      4  N   UNL     1      25.624  22.992  22.680  0.00  0.00    +0.000 NA
ATOM      5  N   UNL     1      27.327  24.299  23.911  0.00  0.00    +0.000 N 
ATOM      6  N   UNL     1      27.766  24.414  25.168  0.00  0.00    +0.000 NA
ENDROOT
BRANCH   5   7
ATOM      7  C   UNL     1      27.862  25.045  22.820  0.00  0.00    +0.000 A 
ATOM      8  C   UNL     1      28.824  24.491  21.998  0.00  0.00    +0.000 A 
ATOM      9  C   UNL     1      29.364  25.215  20.959  0.00  0.00    +0.000 A 
ATOM     10  C   UNL     1      28.986  26.519  20.680  0.00  0.00    +0.000 A 
ATOM     11  C   UNL     1      28.023  27.067  21.503  0.00  0.00    +0.000 A 
ATOM     12  C   UNL     1      27.479  26.343  22.547  0.00  0.00    +0.000 A 
BRANCH  10  13
ATOM     13  N   UNL     1      29.581  27.245  19.597  0.00  0.00    +0.000 N 
ATOM     14  O   UNL     1      29.159  28.381  19.317  0.00  0.00    +0.000 OA
ATOM     15  O   UNL     1      30.588  26.726  18.864  0.00  0.00    +0.000 OA
ENDBRANCH  10  13
ENDBRANCH   5   7
BRANCH   1  17
ATOM     16  C   UNL     1      26.016  23.674  28.174  0.00  0.00    +0.000 C 
ATOM     17  C   UNL     1      27.337  23.469  27.424  0.00  0.00    +0.000 C 
ATOM     18  C   UNL     1      28.304  24.609  27.779  0.00  0.00    +0.000 C 
ATOM     19  C   UNL     1      27.970  22.145  27.761  0.00  0.00    +0.000 C 
ENDBRANCH   1  17
TORSDOF 3
ENDMDL
MODEL 2
REMARK VINA RESULT:      -5.8     22.677     25.412
REMARK  Name = 
REMARK  3 active torsions:
REMARK  status: ('A' for Active; 'I' for Inactive)
REMARK    1  A    between atoms: C_2  and  C_5
REMARK    2  A    between atoms: N_9  and  C_10
REMARK    3  A    between atoms: C_13  and  N_14
REMARK                            x       y       z     vdW  Elec       q    Type
REMARK                         _______ _______ _______ _____ _____    ______ ____
ROOT
ATOM      1  C   UNL     1      33.559   0.774  35.002  0.00  0.00    +0.000 A 
ATOM      2  C   UNL     1      33.435   1.062  33.666  0.00  0.00    +0.000 A 
ATOM      3  C   UNL     1      33.705   2.428  33.521  0.00  0.00    +0.000 A 
ATOM      4  N   UNL     1      33.693   3.173  32.284  0.00  0.00    +0.000 NA
ATOM      5  N   UNL     1      33.973   2.894  34.727  0.00  0.00    +0.000 N 
ATOM      6  N   UNL     1      33.887   1.908  35.625  0.00  0.00    +0.000 NA
ENDROOT
BRANCH   5   7
ATOM      7  C   UNL     1      34.317   4.236  35.063  0.00  0.00    +0.000 A 
ATOM      8  C   UNL     1      33.363   5.234  35.025  0.00  0.00    +0.000 A 
ATOM      9  C   UNL     1      33.693   6.537  35.322  0.00  0.00    +0.000 A 
ATOM     10  C   UNL     1      34.979   6.921  35.670  0.00  0.00    +0.000 A 
ATOM     11  C   UNL     1      35.929   5.920  35.709  0.00  0.00    +0.000 A 
ATOM     12  C   UNL     1      35.600   4.611  35.410  0.00  0.00    +0.000 A 
BRANCH  10  13
ATOM     13  N   UNL     1      35.288   8.290  35.961  0.00  0.00    +0.000 N 
ATOM     14  O   UNL     1      36.439   8.594  36.321  0.00  0.00    +0.000 OA
ATOM     15  O   UNL     1      34.359   9.263  35.859  0.00  0.00    +0.000 OA
ENDBRANCH  10  13
ENDBRANCH   5   7
BRANCH   1  17
ATOM     16  C   UNL     1      34.590  -1.425  35.420  0.00  0.00    +0.000 C 
ATOM     17  C   UNL     1      33.391  -0.523  35.737  0.00  0.00    +0.000 C 
ATOM     18  C   UNL     1      32.111  -1.169  35.185  0.00  0.00    +0.000 C 
ATOM     19  C   UNL     1      33.244  -0.290  37.217  0.00  0.00    +0.000 C 
ENDBRANCH   1  17
TORSDOF 3
ENDMDL
MODEL 3
REMARK VINA RESULT:      -5.8     29.169     31.626
REMARK  Name = 
REMARK  3 active torsions:
REMARK  status: ('A' for Active; 'I' for Inactive)
REMARK    1  A    between atoms: C_2  and  C_5
REMARK    2  A    between atoms: N_9  and  C_10
REMARK    3  A    between atoms: C_13  and  N_14
REMARK                            x       y       z     vdW  Elec       q    Type
REMARK                         _______ _______ _______ _____ _____    ______ ____
ROOT
ATOM      1  C   UNL     1      33.205  -2.076  33.997  0.00  0.00    +0.000 A 
ATOM      2  C   UNL     1      32.328  -2.917  34.633  0.00  0.00    +0.000 A 
ATOM      3  C   UNL     1      32.482  -4.180  34.049  0.00  0.00    +0.000 A 
ATOM      4  N   UNL     1      31.759  -5.379  34.404  0.00  0.00    +0.000 NA
ATOM      5  N   UNL     1      33.412  -4.059  33.120  0.00  0.00    +0.000 N 
ATOM      6  N   UNL     1      33.853  -2.797  33.080  0.00  0.00    +0.000 NA
ENDROOT
BRANCH   5   7
ATOM      7  C   UNL     1      33.908  -5.093  32.273  0.00  0.00    +0.000 A 
ATOM      8  C   UNL     1      33.437  -5.226  30.981  0.00  0.00    +0.000 A 
ATOM      9  C   UNL     1      33.892  -6.238  30.167  0.00  0.00    +0.000 A 
ATOM     10  C   UNL     1      34.830  -7.169  30.584  0.00  0.00    +0.000 A 
ATOM     11  C   UNL     1      35.299  -7.031  31.875  0.00  0.00    +0.000 A 
ATOM     12  C   UNL     1      34.844  -6.016  32.695  0.00  0.00    +0.000 A 
BRANCH  10  13
ATOM     13  N   UNL     1      35.270  -8.217  29.711  0.00  0.00    +0.000 N 
ATOM     14  O   UNL     1      34.866  -8.245  28.535  0.00  0.00    +0.000 OA
ATOM     15  O   UNL     1      36.110  -9.186  30.133  0.00  0.00    +0.000 OA
ENDBRANCH  10  13
ENDBRANCH   5   7
BRANCH   1  17
ATOM     16  C   UNL     1      34.211  -0.073  32.975  0.00  0.00    +0.000 C 
ATOM     17  C   UNL     1      33.480  -0.617  34.208  0.00  0.00    +0.000 C 
ATOM     18  C   UNL     1      34.409  -0.525  35.429  0.00  0.00    +0.000 C 
ATOM     19  C   UNL     1      32.207   0.139  34.481  0.00  0.00    +0.000 C 
ENDBRANCH   1  17
TORSDOF 3
ENDMDL
MODEL 4
REMARK VINA RESULT:      -5.7     20.038     22.591
REMARK  Name = 
REMARK  3 active torsions:
REMARK  status: ('A' for Active; 'I' for Inactive)
REMARK    1  A    between atoms: C_2  and  C_5
REMARK    2  A    between atoms: N_9  and  C_10
REMARK    3  A    between atoms: C_13  and  N_14
REMARK                            x       y       z     vdW  Elec       q    Type
REMARK                         _______ _______ _______ _____ _____    ______ ____
ROOT
ATOM      1  C   UNL     1      17.382   9.585  39.804  0.00  0.00    +0.000 A 
ATOM      2  C   UNL     1      16.816  10.220  38.728  0.00  0.00    +0.000 A 
ATOM      3  C   UNL     1      17.867  10.643  37.908  0.00  0.00    +0.000 A 
ATOM      4  N   UNL     1      17.742  11.358  36.659  0.00  0.00    +0.000 NA
ATOM      5  N   UNL     1      18.987  10.261  38.495  0.00  0.00    +0.000 N 
ATOM      6  N   UNL     1      18.706   9.624  39.637  0.00  0.00    +0.000 NA
ENDROOT
BRANCH   5   7
ATOM      7  C   UNL     1      20.313  10.467  38.015  0.00  0.00    +0.000 A 
ATOM      8  C   UNL     1      21.108  11.457  38.556  0.00  0.00    +0.000 A 
ATOM      9  C   UNL     1      22.380  11.679  38.079  0.00  0.00    +0.000 A 
ATOM     10  C   UNL     1      22.931  10.938  37.044  0.00  0.00    +0.000 A 
ATOM     11  C   UNL     1      22.132   9.948  36.508  0.00  0.00    +0.000 A 
ATOM     12  C   UNL     1      20.855   9.723  36.985  0.00  0.00    +0.000 A 
BRANCH  10  13
ATOM     13  N   UNL     1      24.254  11.207  36.565  0.00  0.00    +0.000 N 
ATOM     14  O   UNL     1      24.803  12.283  36.856  0.00  0.00    +0.000 OA
ATOM     15  O   UNL     1      24.923  10.321  35.797  0.00  0.00    +0.000 OA
ENDBRANCH  10  13
ENDBRANCH   5   7
BRANCH   1  17
ATOM     16  C   UNL     1      15.246   9.243  40.982  0.00  0.00    +0.000 C 
ATOM     17  C   UNL     1      16.746   8.928  40.992  0.00  0.00    +0.000 C 
ATOM     18  C   UNL     1      17.390   9.566  42.234  0.00  0.00    +0.000 C 
ATOM     19  C   UNL     1      17.005   7.445  40.993  0.00  0.00    +0.000 C 
ENDBRANCH   1  17
TORSDOF 3
ENDMDL
MODEL 5
REMARK VINA RESULT:      -5.7      4.440      7.183
REMARK  Name = 
REMARK  3 active torsions:
REMARK  status: ('A' for Active; 'I' for Inactive)
REMARK    1  A    between atoms: C_2  and  C_5
REMARK    2  A    between atoms: N_9  and  C_10
REMARK    3  A    between atoms: C_13  and  N_14
REMARK                            x       y       z     vdW  Elec       q    Type
REMARK                         _______ _______ _______ _____ _____    ______ ____
ROOT
ATOM      1  C   UNL     1      27.784  25.360  22.662  0.00  0.00    +0.000 A 
ATOM      2  C   UNL     1      26.841  24.468  22.218  0.00  0.00    +0.000 A 
ATOM      3  C   UNL     1      26.401  23.754  23.338  0.00  0.00    +0.000 A 
ATOM      4  N   UNL     1      25.407  22.706  23.346  0.00  0.00    +0.000 NA
ATOM      5  N   UNL     1      27.067  24.224  24.376  0.00  0.00    +0.000 N 
ATOM      6  N   UNL     1      27.902  25.191  23.980  0.00  0.00    +0.000 NA
ENDROOT
BRANCH   5   7
ATOM      7  C   UNL     1      26.938  23.803  25.732  0.00  0.00    +0.000 A 
ATOM      8  C   UNL     1      25.975  24.360  26.550  0.00  0.00    +0.000 A 
ATOM      9  C   UNL     1      25.862  23.977  27.867  0.00  0.00    +0.000 A 
ATOM     10  C   UNL     1      26.693  23.028  28.444  0.00  0.00    +0.000 A 
ATOM     11  C   UNL     1      27.652  22.473  27.622  0.00  0.00    +0.000 A 
ATOM     12  C   UNL     1      27.768  22.856  26.298  0.00  0.00    +0.000 A 
BRANCH  10  13
ATOM     13  N   UNL     1      26.554  22.665  29.823  0.00  0.00    +0.000 N 
ATOM     14  O   UNL     1      27.054  21.602  30.229  0.00  0.00    +0.000 OA
ATOM     15  O   UNL     1      25.884  23.445  30.698  0.00  0.00    +0.000 OA
ENDBRANCH  10  13
ENDBRANCH   5   7
BRANCH   1  17
ATOM     16  C   UNL     1      29.407  25.665  20.833  0.00  0.00    +0.000 C 
ATOM     17  C   UNL     1      28.587  26.381  21.912  0.00  0.00    +0.000 C 
ATOM     18  C   UNL     1      29.541  27.016  22.936  0.00  0.00    +0.000 C 
ATOM     19  C   UNL     1      27.696  27.442  21.323  0.00  0.00    +0.000 C 
ENDBRANCH   1  17
TORSDOF 3
ENDMDL
MODEL 6
REMARK VINA RESULT:      -5.6     12.391     14.647
REMARK  Name = 
REMARK  3 active torsions:
REMARK  status: ('A' for Active; 'I' for Inactive)
REMARK    1  A    between atoms: C_2  and  C_5
REMARK    2  A    between atoms: N_9  and  C_10
REMARK    3  A    between atoms: C_13  and  N_14
REMARK                            x       y       z     vdW  Elec       q    Type
REMARK                         _______ _______ _______ _____ _____    ______ ____
ROOT
ATOM      1  C   UNL     1      34.903  20.600  10.843  0.00  0.00    +0.000 A 
ATOM      2  C   UNL     1      34.753  20.942   9.523  0.00  0.00    +0.000 A 
ATOM      3  C   UNL     1      33.437  21.390   9.368  0.00  0.00    +0.000 A 
ATOM      4  N   UNL     1      32.832  21.854   8.142  0.00  0.00    +0.000 NA
ATOM      5  N   UNL     1      32.863  21.307  10.554  0.00  0.00    +0.000 N 
ATOM      6  N   UNL     1      33.736  20.832  11.449  0.00  0.00    +0.000 NA
ENDROOT
BRANCH   5   7
ATOM      7  C   UNL     1      31.523  21.669  10.879  0.00  0.00    +0.000 A 
ATOM      8  C   UNL     1      30.464  20.901  10.437  0.00  0.00    +0.000 A 
ATOM      9  C   UNL     1      29.166  21.258  10.723  0.00  0.00    +0.000 A 
ATOM     10  C   UNL     1      28.847  22.390  11.458  0.00  0.00    +0.000 A 
ATOM     11  C   UNL     1      29.909  23.153  11.900  0.00  0.00    +0.000 A 
ATOM     12  C   UNL     1      31.214  22.797  11.613  0.00  0.00    +0.000 A 
BRANCH  10  13
ATOM     13  N   UNL     1      27.483  22.737  11.726  0.00  0.00    +0.000 N 
ATOM     14  O   UNL     1      27.221  23.510  12.663  0.00  0.00    +0.000 OA
ATOM     15  O   UNL     1      26.467  22.241  10.988  0.00  0.00    +0.000 OA
ENDBRANCH  10  13
ENDBRANCH   5   7
BRANCH   1  17
ATOM     16  C   UNL     1      37.036  21.234  11.899  0.00  0.00    +0.000 C 
ATOM     17  C   UNL     1      36.094  20.067  11.581  0.00  0.00    +0.000 C 
ATOM     18  C   UNL     1      36.798  19.096  10.620  0.00  0.00    +0.000 C 
ATOM     19  C   UNL     1      35.675  19.333  12.827  0.00  0.00    +0.000 C 
ENDBRANCH   1  17
TORSDOF 3
ENDMDL
MODEL 7
REMARK VINA RESULT:      -5.6     29.158     31.609
REMARK  Name = 
REMARK  3 active torsions:
REMARK  status: ('A' for Active; 'I' for Inactive)
REMARK    1  A    between atoms: C_2  and  C_5
REMARK    2  A    between atoms: N_9  and  C_10
REMARK    3  A    between atoms: C_13  and  N_14
REMARK                            x       y       z     vdW  Elec       q    Type
REMARK                         _______ _______ _______ _____ _____    ______ ____
ROOT
ATOM      1  C   UNL     1      33.774  -2.505  34.411  0.00  0.00    +0.000 A 
ATOM      2  C   UNL     1      34.158  -3.536  35.230  0.00  0.00    +0.000 A 
ATOM      3  C   UNL     1      34.058  -4.711  34.477  0.00  0.00    +0.000 A 
ATOM      4  N   UNL     1      34.363  -6.047  34.933  0.00  0.00    +0.000 NA
ATOM      5  N   UNL     1      33.637  -4.359  33.276  0.00  0.00    +0.000 N 
ATOM      6  N   UNL     1      33.462  -3.034  33.226  0.00  0.00    +0.000 NA
ENDROOT
BRANCH   5   7
ATOM      7  C   UNL     1      33.401  -5.226  32.169  0.00  0.00    +0.000 A 
ATOM      8  C   UNL     1      34.357  -5.380  31.184  0.00  0.00    +0.000 A 
ATOM      9  C   UNL     1      34.126  -6.194  30.099  0.00  0.00    +0.000 A 
ATOM     10  C   UNL     1      32.942  -6.895  29.929  0.00  0.00    +0.000 A 
ATOM     11  C   UNL     1      31.990  -6.739  30.917  0.00  0.00    +0.000 A 
ATOM     12  C   UNL     1      32.219  -5.922  32.007  0.00  0.00    +0.000 A 
BRANCH  10  13
ATOM     13  N   UNL     1      32.732  -7.724  28.778  0.00  0.00    +0.000 N 
ATOM     14  O   UNL     1      33.331  -7.466  27.721  0.00  0.00    +0.000 OA
ATOM     15  O   UNL     1      31.891  -8.779  28.809  0.00  0.00    +0.000 OA
ENDBRANCH  10  13
ENDBRANCH   5   7
BRANCH   1  17
ATOM     16  C   UNL     1      32.227  -0.668  34.960  0.00  0.00    +0.000 C 
ATOM     17  C   UNL     1      33.689  -1.032  34.676  0.00  0.00    +0.000 C 
ATOM     18  C   UNL     1      34.141  -0.334  33.383  0.00  0.00    +0.000 C 
ATOM     19  C   UNL     1      34.594  -0.633  35.810  0.00  0.00    +0.000 C 
ENDBRANCH   1  17
TORSDOF 3
ENDMDL
MODEL 8
REMARK VINA RESULT:      -5.5     25.540     28.353
REMARK  Name = 
REMARK  3 active torsions:
REMARK  status: ('A' for Active; 'I' for Inactive)
REMARK    1  A    between atoms: C_2  and  C_5
REMARK    2  A    between atoms: N_9  and  C_10
REMARK    3  A    between atoms: C_13  and  N_14
REMARK                            x       y       z     vdW  Elec       q    Type
REMARK                         _______ _______ _______ _____ _____    ______ ____
ROOT
ATOM      1  C   UNL     1      33.971   3.143  35.721  0.00  0.00    +0.000 A 
ATOM      2  C   UNL     1      34.430   2.652  36.917  0.00  0.00    +0.000 A 
ATOM      3  C   UNL     1      34.282   1.262  36.868  0.00  0.00    +0.000 A 
ATOM      4  N   UNL     1      34.636   0.328  37.911  0.00  0.00    +0.000 NA
ATOM      5  N   UNL     1      33.761   0.975  35.689  0.00  0.00    +0.000 N 
ATOM      6  N   UNL     1      33.569   2.100  34.992  0.00  0.00    +0.000 NA
ENDROOT
BRANCH   5   7
ATOM      7  C   UNL     1      33.445  -0.323  35.191  0.00  0.00    +0.000 A 
ATOM      8  C   UNL     1      32.383  -1.034  35.713  0.00  0.00    +0.000 A 
ATOM      9  C   UNL     1      32.088  -2.298  35.255  0.00  0.00    +0.000 A 
ATOM     10  C   UNL     1      32.827  -2.925  34.263  0.00  0.00    +0.000 A 
ATOM     11  C   UNL     1      33.887  -2.210  33.744  0.00  0.00    +0.000 A 
ATOM     12  C   UNL     1      34.185  -0.940  34.201  0.00  0.00    +0.000 A 
BRANCH  10  13
ATOM     13  N   UNL     1      32.498  -4.248  33.822  0.00  0.00    +0.000 N 
ATOM     14  O   UNL     1      31.633  -4.900  34.433  0.00  0.00    +0.000 OA
ATOM     15  O   UNL     1      33.108  -4.813  32.759  0.00  0.00    +0.000 OA
ENDBRANCH  10  13
ENDBRANCH   5   7
BRANCH   1  17
ATOM     16  C   UNL     1      33.169   4.546  33.861  0.00  0.00    +0.000 C 
ATOM     17  C   UNL     1      33.892   4.551  35.213  0.00  0.00    +0.000 C 
ATOM     18  C   UNL     1      35.343   5.018  35.010  0.00  0.00    +0.000 C 
ATOM     19  C   UNL     1      33.207   5.448  36.209  0.00  0.00    +0.000 C 
ENDBRANCH   1  17
TORSDOF 3
ENDMDL
MODEL 9
REMARK VINA RESULT:      -5.4     12.783     14.240
REMARK  Name = 
REMARK  3 active torsions:
REMARK  status: ('A' for Active; 'I' for Inactive)
REMARK    1  A    between atoms: C_2  and  C_5
REMARK    2  A    between atoms: N_9  and  C_10
REMARK    3  A    between atoms: C_13  and  N_14
REMARK                            x       y       z     vdW  Elec       q    Type
REMARK                         _______ _______ _______ _____ _____    ______ ____
ROOT
ATOM      1  C   UNL     1      36.003  19.306  12.577  0.00  0.00    +0.000 A 
ATOM      2  C   UNL     1      36.123  19.307  11.210  0.00  0.00    +0.000 A 
ATOM      3  C   UNL     1      34.955  19.885  10.701  0.00  0.00    +0.000 A 
ATOM      4  N   UNL     1      34.642  20.093   9.307  0.00  0.00    +0.000 NA
ATOM      5  N   UNL     1      34.203  20.202  11.740  0.00  0.00    +0.000 N 
ATOM      6  N   UNL     1      34.824  19.858  12.872  0.00  0.00    +0.000 NA
ENDROOT
BRANCH   5   7
ATOM      7  C   UNL     1      32.922  20.827  11.703  0.00  0.00    +0.000 A 
ATOM      8  C   UNL     1      31.784  20.112  12.021  0.00  0.00    +0.000 A 
ATOM      9  C   UNL     1      30.542  20.702  11.963  0.00  0.00    +0.000 A 
ATOM     10  C   UNL     1      30.358  22.023  11.587  0.00  0.00    +0.000 A 
ATOM     11  C   UNL     1      31.499  22.735  11.271  0.00  0.00    +0.000 A 
ATOM     12  C   UNL     1      32.748  22.145  11.329  0.00  0.00    +0.000 A 
BRANCH  10  13
ATOM     13  N   UNL     1      29.048  22.599  11.525  0.00  0.00    +0.000 N 
ATOM     14  O   UNL     1      28.857  23.739  11.984  0.00  0.00    +0.000 OA
ATOM     15  O   UNL     1      28.006  21.933  10.985  0.00  0.00    +0.000 OA
ENDBRANCH  10  13
ENDBRANCH   5   7
BRANCH   1  17
ATOM     16  C   UNL     1      36.230  17.757  14.478  0.00  0.00    +0.000 C 
ATOM     17  C   UNL     1      36.945  18.819  13.636  0.00  0.00    +0.000 C 
ATOM     18  C   UNL     1      37.266  20.035  14.520  0.00  0.00    +0.000 C 
ATOM     19  C   UNL     1      38.215  18.287  13.027  0.00  0.00    +0.000 C 
ENDBRANCH   1  17
TORSDOF 3
ENDMDL
MODEL 10
REMARK VINA RESULT:      -5.4      3.212      4.452
REMARK  Name = 
REMARK  3 active torsions:
REMARK  status: ('A' for Active; 'I' for Inactive)
REMARK    1  A    between atoms: C_2  and  C_5
REMARK    2  A    between atoms: N_9  and  C_10
REMARK    3  A    between atoms: C_13  and  N_14
REMARK                            x       y       z     vdW  Elec       q    Type
REMARK                         _______ _______ _______ _____ _____    ______ ____
ROOT
ATOM      1  C   UNL     1      30.446  22.803  29.124  0.00  0.00    +0.000 A 
ATOM      2  C   UNL     1      29.098  22.837  29.375  0.00  0.00    +0.000 A 
ATOM      3  C   UNL     1      28.472  23.193  28.175  0.00  0.00    +0.000 A 
ATOM      4  N   UNL     1      27.052  23.352  27.967  0.00  0.00    +0.000 NA
ATOM      5  N   UNL     1      29.428  23.352  27.278  0.00  0.00    +0.000 N 
ATOM      6  N   UNL     1      30.620  23.121  27.839  0.00  0.00    +0.000 NA
ENDROOT
BRANCH   5   7
ATOM      7  C   UNL     1      29.259  23.707  25.908  0.00  0.00    +0.000 A 
ATOM      8  C   UNL     1      29.308  22.740  24.923  0.00  0.00    +0.000 A 
ATOM      9  C   UNL     1      29.173  23.077  23.596  0.00  0.00    +0.000 A 
ATOM     10  C   UNL     1      28.984  24.384  23.173  0.00  0.00    +0.000 A 
ATOM     11  C   UNL     1      28.934  25.347  24.160  0.00  0.00    +0.000 A 
ATOM     12  C   UNL     1      29.070  25.011  25.494  0.00  0.00    +0.000 A 
BRANCH  10  13
ATOM     13  N   UNL     1      28.860  24.699  21.780  0.00  0.00    +0.000 N 
ATOM     14  O   UNL     1      29.704  24.265  20.977  0.00  0.00    +0.000 OA
ATOM     15  O   UNL     1      27.852  25.465  21.314  0.00  0.00    +0.000 OA
ENDBRANCH  10  13
ENDBRANCH   5   7
BRANCH   1  17
ATOM     16  C   UNL     1      32.404  23.758  30.276  0.00  0.00    +0.000 C 
ATOM     17  C   UNL     1      31.596  22.478  30.029  0.00  0.00    +0.000 C 
ATOM     18  C   UNL     1      32.469  21.466  29.271  0.00  0.00    +0.000 C 
ATOM     19  C   UNL     1      31.114  21.865  31.317  0.00  0.00    +0.000 C 
ENDBRANCH   1  17
TORSDOF 3
ENDMDL
