MODEL 1
REMARK VINA RESULT:      -6.9      0.000      0.000
REMARK  Name = 
REMARK  6 active torsions:
REMARK  status: ('A' for Active; 'I' for Inactive)
REMARK    1  A    between atoms: C_10  and  C_11
REMARK    2  A    between atoms: C_17  and  C_18
REMARK    3  A    between atoms: C_21  and  O_22
REMARK    4  A    between atoms: O_22  and  C_23
REMARK    5  A    between atoms: C_23  and  C_24
REMARK    6  A    between atoms: C_24  and  N_25
REMARK                            x       y       z     vdW  Elec       q    Type
REMARK                         _______ _______ _______ _____ _____    ______ ____
ROOT
ATOM      1  O   UNL     1      36.701   4.271  15.074  0.00  0.00    +0.000 OA
ATOM      2  C   UNL     1      36.801   2.913  14.796  0.00  0.00    +0.000 A 
ATOM      3  C   UNL     1      35.952   2.263  13.923  0.00  0.00    +0.000 A 
ATOM      4  C   UNL     1      36.042   0.921  13.640  0.00  0.00    +0.000 A 
ATOM      5  C   UNL     1      37.065   0.186  14.289  0.00  0.00    +0.000 A 
ATOM      6  C   UNL     1      37.884   0.757  15.116  0.00  0.00    +0.000 A 
ATOM      7  C   UNL     1      37.766   2.109  15.378  0.00  0.00    +0.000 A 
ATOM      8  O   UNL     1      38.849  -0.022  15.705  0.00  0.00    +0.000 OA
ATOM      9  C   UNL     1      39.017  -1.286  15.378  0.00  0.00    +0.000 C 
ATOM     10  C   UNL     1      37.657  -2.117  15.162  0.00  0.00    +0.000 C 
ATOM     11  C   UNL     1      36.988  -1.314  13.831  0.00  0.00    +0.000 C 
ENDROOT
BRANCH  10  12
ATOM     12  C   UNL     1      36.734  -1.558  16.293  0.00  0.00    +0.000 A 
ATOM     13  C   UNL     1      35.491  -1.161  16.200  0.00  0.00    +0.000 A 
ATOM     14  C   UNL     1      34.803  -0.689  17.282  0.00  0.00    +0.000 A 
ATOM     15  C   UNL     1      35.444  -0.636  18.488  0.00  0.00    +0.000 A 
ATOM     16  C   UNL     1      36.751  -1.037  18.656  0.00  0.00    +0.000 A 
ATOM     17  C   UNL     1      37.385  -1.510  17.489  0.00  0.00    +0.000 A 
ENDBRANCH  10  12
BRANCH  11  18
ATOM     18  C   UNL     1      38.231  -1.415  12.844  0.00  0.00    +0.000 A 
ATOM     19  C   UNL     1      38.666  -0.427  12.093  0.00  0.00    +0.000 A 
ATOM     20  C   UNL     1      39.756  -0.608  11.274  0.00  0.00    +0.000 A 
ATOM     21  C   UNL     1      40.407  -1.835  11.233  0.00  0.00    +0.000 A 
ATOM     22  C   UNL     1      39.930  -2.835  12.025  0.00  0.00    +0.000 A 
ATOM     23  C   UNL     1      38.842  -2.669  12.849  0.00  0.00    +0.000 A 
BRANCH  21  24
ATOM     24  O   UNL     1      41.500  -2.046  10.424  0.00  0.00    +0.000 OA
BRANCH  24  25
ATOM     25  C   UNL     1      42.696  -2.499  10.963  0.00  0.00    +0.000 C 
BRANCH  25  26
ATOM     26  C   UNL     1      43.503  -1.350  11.498  0.00  0.00    +0.000 C 
BRANCH  26  27
ATOM     27  N   UNL     1      44.041  -1.759  12.789  0.00  0.00    +0.000 NA
ATOM     28  C   UNL     1      44.749  -0.616  13.351  0.00  0.00    +0.000 C 
ATOM     29  C   UNL     1      43.624   0.273  13.841  0.00  0.00    +0.000 C 
ATOM     30  C   UNL     1      42.492  -0.683  14.211  0.00  0.00    +0.000 C 
ATOM     31  C   UNL     1      43.000  -2.036  13.761  0.00  0.00    +0.000 C 
ENDBRANCH  26  27
ENDBRANCH  25  26
ENDBRANCH  24  25
ENDBRANCH  21  24
ENDBRANCH  11  18
TORSDOF 6
ENDMDL
MODEL 2
REMARK VINA RESULT:      -6.9      2.467      7.205
REMARK  Name = 
REMARK  6 active torsions:
REMARK  status: ('A' for Active; 'I' for Inactive)
REMARK    1  A    between atoms: C_10  and  C_11
REMARK    2  A    between atoms: C_17  and  C_18
REMARK    3  A    between atoms: C_21  and  O_22
REMARK    4  A    between atoms: O_22  and  C_23
REMARK    5  A    between atoms: C_23  and  C_24
REMARK    6  A    between atoms: C_24  and  N_25
REMARK                            x       y       z     vdW  Elec       q    Type
REMARK                         _______ _______ _______ _____ _____    ______ ____
ROOT
ATOM      1  O   UNL     1      44.291   0.889  13.949  0.00  0.00    +0.000 OA
ATOM      2  C   UNL     1      43.237  -0.005  13.799  0.00  0.00    +0.000 A 
ATOM      3  C   UNL     1      43.327  -1.335  14.159  0.00  0.00    +0.000 A 
ATOM      4  C   UNL     1      42.293  -2.228  14.015  0.00  0.00    +0.000 A 
ATOM      5  C   UNL     1      41.081  -1.738  13.466  0.00  0.00    +0.000 A 
ATOM      6  C   UNL     1      40.954  -0.496  13.115  0.00  0.00    +0.000 A 
ATOM      7  C   UNL     1      42.014   0.376  13.274  0.00  0.00    +0.000 A 
ATOM      8  O   UNL     1      39.749  -0.096  12.592  0.00  0.00    +0.000 OA
ATOM      9  C   UNL     1      38.714  -0.908  12.534  0.00  0.00    +0.000 C 
ATOM     10  C   UNL     1      39.058  -2.417  12.101  0.00  0.00    +0.000 C 
ATOM     11  C   UNL     1      40.041  -2.912  13.387  0.00  0.00    +0.000 C 
ENDROOT
BRANCH  10  12
ATOM     12  C   UNL     1      40.150  -2.215  11.002  0.00  0.00    +0.000 A 
ATOM     13  C   UNL     1      40.274  -1.225  10.156  0.00  0.00    +0.000 A 
ATOM     14  C   UNL     1      41.287  -1.182   9.241  0.00  0.00    +0.000 A 
ATOM     15  C   UNL     1      42.189  -2.208   9.219  0.00  0.00    +0.000 A 
ATOM     16  C   UNL     1      42.117  -3.282  10.080  0.00  0.00    +0.000 A 
ATOM     17  C   UNL     1      41.042  -3.246  10.990  0.00  0.00    +0.000 A 
ENDBRANCH  10  12
BRANCH  11  18
ATOM     18  C   UNL     1      39.060  -2.557  14.586  0.00  0.00    +0.000 A 
ATOM     19  C   UNL     1      39.431  -1.964  15.700  0.00  0.00    +0.000 A 
ATOM     20  C   UNL     1      38.506  -1.690  16.680  0.00  0.00    +0.000 A 
ATOM     21  C   UNL     1      37.172  -2.038  16.504  0.00  0.00    +0.000 A 
ATOM     22  C   UNL     1      36.824  -2.650  15.337  0.00  0.00    +0.000 A 
ATOM     23  C   UNL     1      37.737  -2.930  14.348  0.00  0.00    +0.000 A 
BRANCH  21  24
ATOM     24  O   UNL     1      36.224  -1.779  17.466  0.00  0.00    +0.000 OA
BRANCH  24  25
ATOM     25  C   UNL     1      35.993  -0.478  17.892  0.00  0.00    +0.000 C 
BRANCH  25  26
ATOM     26  C   UNL     1      35.312   0.318  16.815  0.00  0.00    +0.000 C 
BRANCH  26  27
ATOM     27  N   UNL     1      36.065   1.554  16.645  0.00  0.00    +0.000 NA
ATOM     28  C   UNL     1      36.964   1.367  15.514  0.00  0.00    +0.000 C 
ATOM     29  C   UNL     1      36.040   1.492  14.320  0.00  0.00    +0.000 C 
ATOM     30  C   UNL     1      34.932   2.441  14.772  0.00  0.00    +0.000 C 
ATOM     31  C   UNL     1      35.223   2.665  16.240  0.00  0.00    +0.000 C 
ENDBRANCH  26  27
ENDBRANCH  25  26
ENDBRANCH  24  25
ENDBRANCH  21  24
ENDBRANCH  11  18
TORSDOF 6
ENDMDL
MODEL 3
REMARK VINA RESULT:      -6.6      6.398      9.606
REMARK  Name = 
REMARK  6 active torsions:
REMARK  status: ('A' for Active; 'I' for Inactive)
REMARK    1  A    between atoms: C_10  and  C_11
REMARK    2  A    between atoms: C_17  and  C_18
REMARK    3  A    between atoms: C_21  and  O_22
REMARK    4  A    between atoms: O_22  and  C_23
REMARK    5  A    between atoms: C_23  and  C_24
REMARK    6  A    between atoms: C_24  and  N_25
REMARK                            x       y       z     vdW  Elec       q    Type
REMARK                         _______ _______ _______ _____ _____    ______ ____
ROOT
ATOM      1  O   UNL     1      43.136   5.742  21.305  0.00  0.00    +0.000 OA
ATOM      2  C   UNL     1      42.333   6.277  20.305  0.00  0.00    +0.000 A 
ATOM      3  C   UNL     1      42.836   6.720  19.098  0.00  0.00    +0.000 A 
ATOM      4  C   UNL     1      42.053   7.251  18.102  0.00  0.00    +0.000 A 
ATOM      5  C   UNL     1      40.660   7.340  18.347  0.00  0.00    +0.000 A 
ATOM      6  C   UNL     1      40.146   6.935  19.467  0.00  0.00    +0.000 A 
ATOM      7  C   UNL     1      40.962   6.405  20.447  0.00  0.00    +0.000 A 
ATOM      8  O   UNL     1      38.787   7.053  19.629  0.00  0.00    +0.000 OA
ATOM      9  C   UNL     1      38.004   7.467  18.654  0.00  0.00    +0.000 C 
ATOM     10  C   UNL     1      38.589   8.687  17.786  0.00  0.00    +0.000 C 
ATOM     11  C   UNL     1      39.957   7.972  17.093  0.00  0.00    +0.000 C 
ENDROOT
BRANCH  10  12
ATOM     12  C   UNL     1      39.282   9.574  18.871  0.00  0.00    +0.000 A 
ATOM     13  C   UNL     1      40.468  10.126  18.828  0.00  0.00    +0.000 A 
ATOM     14  C   UNL     1      40.948  10.881  19.860  0.00  0.00    +0.000 A 
ATOM     15  C   UNL     1      40.159  11.056  20.962  0.00  0.00    +0.000 A 
ATOM     16  C   UNL     1      38.902  10.503  21.073  0.00  0.00    +0.000 A 
ATOM     17  C   UNL     1      38.485   9.740  19.963  0.00  0.00    +0.000 A 
ENDBRANCH  10  12
BRANCH  11  18
ATOM     18  C   UNL     1      39.255   6.703  16.441  0.00  0.00    +0.000 A 
ATOM     19  C   UNL     1      39.622   5.458  16.657  0.00  0.00    +0.000 A 
ATOM     20  C   UNL     1      38.947   4.423  16.052  0.00  0.00    +0.000 A 
ATOM     21  C   UNL     1      37.875   4.683  15.207  0.00  0.00    +0.000 A 
ATOM     22  C   UNL     1      37.524   5.984  15.007  0.00  0.00    +0.000 A 
ATOM     23  C   UNL     1      38.188   7.028  15.605  0.00  0.00    +0.000 A 
BRANCH  21  24
ATOM     24  O   UNL     1      37.182   3.669  14.587  0.00  0.00    +0.000 OA
BRANCH  24  25
ATOM     25  C   UNL     1      37.442   2.343  14.904  0.00  0.00    +0.000 C 
BRANCH  25  26
ATOM     26  C   UNL     1      36.278   1.738  15.637  0.00  0.00    +0.000 C 
BRANCH  26  27
ATOM     27  N   UNL     1      36.820   0.818  16.630  0.00  0.00    +0.000 NA
ATOM     28  C   UNL     1      35.837   0.697  17.698  0.00  0.00    +0.000 C 
ATOM     29  C   UNL     1      34.786  -0.210  17.092  0.00  0.00    +0.000 C 
ATOM     30  C   UNL     1      35.546  -1.102  16.113  0.00  0.00    +0.000 C 
ATOM     31  C   UNL     1      36.949  -0.535  16.120  0.00  0.00    +0.000 C 
ENDBRANCH  26  27
ENDBRANCH  25  26
ENDBRANCH  24  25
ENDBRANCH  21  24
ENDBRANCH  11  18
TORSDOF 6
ENDMDL
MODEL 4
REMARK VINA RESULT:      -6.4      6.686      9.776
REMARK  Name = 
REMARK  6 active torsions:
REMARK  status: ('A' for Active; 'I' for Inactive)
REMARK    1  A    between atoms: C_10  and  C_11
REMARK    2  A    between atoms: C_17  and  C_18
REMARK    3  A    between atoms: C_21  and  O_22
REMARK    4  A    between atoms: O_22  and  C_23
REMARK    5  A    between atoms: C_23  and  C_24
REMARK    6  A    between atoms: C_24  and  N_25
REMARK                            x       y       z     vdW  Elec       q    Type
REMARK                         _______ _______ _______ _____ _____    ______ ____
ROOT
ATOM      1  O   UNL     1      39.417  11.377  21.081  0.00  0.00    +0.000 OA
ATOM      2  C   UNL     1      39.583  10.124  20.503  0.00  0.00    +0.000 A 
ATOM      3  C   UNL     1      38.972   8.987  20.991  0.00  0.00    +0.000 A 
ATOM      4  C   UNL     1      39.129   7.744  20.427  0.00  0.00    +0.000 A 
ATOM      5  C   UNL     1      39.967   7.646  19.288  0.00  0.00    +0.000 A 
ATOM      6  C   UNL     1      40.561   8.690  18.798  0.00  0.00    +0.000 A 
ATOM      7  C   UNL     1      40.380   9.926  19.388  0.00  0.00    +0.000 A 
ATOM      8  O   UNL     1      41.356   8.515  17.692  0.00  0.00    +0.000 OA
ATOM      9  C   UNL     1      41.446   7.354  17.077  0.00  0.00    +0.000 C 
ATOM     10  C   UNL     1      41.521   6.075  18.049  0.00  0.00    +0.000 C 
ATOM     11  C   UNL     1      40.011   6.151  18.809  0.00  0.00    +0.000 C 
ENDROOT
BRANCH  10  12
ATOM     12  C   UNL     1      42.425   6.588  19.216  0.00  0.00    +0.000 A 
ATOM     13  C   UNL     1      42.251   6.432  20.504  0.00  0.00    +0.000 A 
ATOM     14  C   UNL     1      43.130   6.941  21.416  0.00  0.00    +0.000 A 
ATOM     15  C   UNL     1      44.217   7.632  20.958  0.00  0.00    +0.000 A 
ATOM     16  C   UNL     1      44.460   7.834  19.617  0.00  0.00    +0.000 A 
ATOM     17  C   UNL     1      43.504   7.275  18.746  0.00  0.00    +0.000 A 
ENDBRANCH  10  12
BRANCH  11  18
ATOM     18  C   UNL     1      39.094   6.200  17.511  0.00  0.00    +0.000 A 
ATOM     19  C   UNL     1      38.226   7.154  17.250  0.00  0.00    +0.000 A 
ATOM     20  C   UNL     1      37.481   7.114  16.094  0.00  0.00    +0.000 A 
ATOM     21  C   UNL     1      37.637   6.067  15.194  0.00  0.00    +0.000 A 
ATOM     22  C   UNL     1      38.546   5.098  15.497  0.00  0.00    +0.000 A 
ATOM     23  C   UNL     1      39.298   5.124  16.648  0.00  0.00    +0.000 A 
BRANCH  21  24
ATOM     24  O   UNL     1      36.906   5.999  14.031  0.00  0.00    +0.000 OA
BRANCH  24  25
ATOM     25  C   UNL     1      35.796   5.170  13.946  0.00  0.00    +0.000 C 
BRANCH  25  26
ATOM     26  C   UNL     1      36.218   3.734  13.805  0.00  0.00    +0.000 C 
BRANCH  26  27
ATOM     27  N   UNL     1      35.183   2.914  14.420  0.00  0.00    +0.000 NA
ATOM     28  C   UNL     1      35.666   1.540  14.439  0.00  0.00    +0.000 C 
ATOM     29  C   UNL     1      36.665   1.546  15.580  0.00  0.00    +0.000 C 
ATOM     30  C   UNL     1      36.151   2.605  16.552  0.00  0.00    +0.000 C 
ATOM     31  C   UNL     1      34.984   3.232  15.823  0.00  0.00    +0.000 C 
ENDBRANCH  26  27
ENDBRANCH  25  26
ENDBRANCH  24  25
ENDBRANCH  21  24
ENDBRANCH  11  18
TORSDOF 6
ENDMDL
MODEL 5
REMARK VINA RESULT:      -6.3      2.531      7.522
REMARK  Name = 
REMARK  6 active torsions:
REMARK  status: ('A' for Active; 'I' for Inactive)
REMARK    1  A    between atoms: C_10  and  C_11
REMARK    2  A    between atoms: C_17  and  C_18
REMARK    3  A    between atoms: C_21  and  O_22
REMARK    4  A    between atoms: O_22  and  C_23
REMARK    5  A    between atoms: C_23  and  C_24
REMARK    6  A    between atoms: C_24  and  N_25
REMARK                            x       y       z     vdW  Elec       q    Type
REMARK                         _______ _______ _______ _____ _____    ______ ____
ROOT
ATOM      1  O   UNL     1      44.686   2.017  12.861  0.00  0.00    +0.000 OA
ATOM      2  C   UNL     1      43.885   0.897  13.050  0.00  0.00    +0.000 A 
ATOM      3  C   UNL     1      43.883   0.169  14.222  0.00  0.00    +0.000 A 
ATOM      4  C   UNL     1      43.096  -0.940  14.421  0.00  0.00    +0.000 A 
ATOM      5  C   UNL     1      42.252  -1.339  13.355  0.00  0.00    +0.000 A 
ATOM      6  C   UNL     1      42.223  -0.683  12.237  0.00  0.00    +0.000 A 
ATOM      7  C   UNL     1      43.027   0.429  12.070  0.00  0.00    +0.000 A 
ATOM      8  O   UNL     1      41.379  -1.131  11.251  0.00  0.00    +0.000 OA
ATOM      9  C   UNL     1      40.545  -2.130  11.451  0.00  0.00    +0.000 C 
ATOM     10  C   UNL     1      41.149  -3.359  12.295  0.00  0.00    +0.000 C 
ATOM     11  C   UNL     1      41.448  -2.617  13.787  0.00  0.00    +0.000 C 
ENDROOT
BRANCH  10  12
ATOM     12  C   UNL     1      42.613  -3.455  11.755  0.00  0.00    +0.000 A 
ATOM     13  C   UNL     1      43.723  -3.558  12.440  0.00  0.00    +0.000 A 
ATOM     14  C   UNL     1      44.942  -3.631  11.828  0.00  0.00    +0.000 A 
ATOM     15  C   UNL     1      44.989  -3.594  10.463  0.00  0.00    +0.000 A 
ATOM     16  C   UNL     1      43.860  -3.485   9.682  0.00  0.00    +0.000 A 
ATOM     17  C   UNL     1      42.645  -3.415  10.393  0.00  0.00    +0.000 A 
ENDBRANCH  10  12
BRANCH  11  18
ATOM     18  C   UNL     1      39.999  -2.017  14.047  0.00  0.00    +0.000 A 
ATOM     19  C   UNL     1      38.875  -2.645  13.781  0.00  0.00    +0.000 A 
ATOM     20  C   UNL     1      37.666  -2.046  14.048  0.00  0.00    +0.000 A 
ATOM     21  C   UNL     1      37.622  -0.771  14.600  0.00  0.00    +0.000 A 
ATOM     22  C   UNL     1      38.806  -0.151  14.864  0.00  0.00    +0.000 A 
ATOM     23  C   UNL     1      40.022  -0.737  14.603  0.00  0.00    +0.000 A 
BRANCH  21  24
ATOM     24  O   UNL     1      36.429  -0.145  14.878  0.00  0.00    +0.000 OA
BRANCH  24  25
ATOM     25  C   UNL     1      35.637  -0.578  15.933  0.00  0.00    +0.000 C 
BRANCH  25  26
ATOM     26  C   UNL     1      36.325  -0.329  17.246  0.00  0.00    +0.000 C 
BRANCH  26  27
ATOM     27  N   UNL     1      35.976  -1.430  18.135  0.00  0.00    +0.000 NA
ATOM     28  C   UNL     1      36.428  -2.663  17.505  0.00  0.00    +0.000 C 
ATOM     29  C   UNL     1      37.925  -2.638  17.744  0.00  0.00    +0.000 C 
ATOM     30  C   UNL     1      38.106  -1.874  19.054  0.00  0.00    +0.000 C 
ATOM     31  C   UNL     1      36.712  -1.388  19.385  0.00  0.00    +0.000 C 
ENDBRANCH  26  27
ENDBRANCH  25  26
ENDBRANCH  24  25
ENDBRANCH  21  24
ENDBRANCH  11  18
TORSDOF 6
ENDMDL
MODEL 6
REMARK VINA RESULT:      -6.2      8.702     11.633
REMARK  Name = 
REMARK  6 active torsions:
REMARK  status: ('A' for Active; 'I' for Inactive)
REMARK    1  A    between atoms: C_10  and  C_11
REMARK    2  A    between atoms: C_17  and  C_18
REMARK    3  A    between atoms: C_21  and  O_22
REMARK    4  A    between atoms: O_22  and  C_23
REMARK    5  A    between atoms: C_23  and  C_24
REMARK    6  A    between atoms: C_24  and  N_25
REMARK                            x       y       z     vdW  Elec       q    Type
REMARK                         _______ _______ _______ _____ _____    ______ ____
ROOT
ATOM      1  O   UNL     1      40.080  11.563  21.462  0.00  0.00    +0.000 OA
ATOM      2  C   UNL     1      39.840  10.425  20.701  0.00  0.00    +0.000 A 
ATOM      3  C   UNL     1      38.939   9.450  21.077  0.00  0.00    +0.000 A 
ATOM      4  C   UNL     1      38.694   8.321  20.333  0.00  0.00    +0.000 A 
ATOM      5  C   UNL     1      39.415   8.170  19.122  0.00  0.00    +0.000 A 
ATOM      6  C   UNL     1      40.271   9.062  18.732  0.00  0.00    +0.000 A 
ATOM      7  C   UNL     1      40.493  10.187  19.504  0.00  0.00    +0.000 A 
ATOM      8  O   UNL     1      40.931   8.845  17.547  0.00  0.00    +0.000 OA
ATOM      9  C   UNL     1      40.643   7.822  16.770  0.00  0.00    +0.000 C 
ATOM     10  C   UNL     1      40.374   6.437  17.542  0.00  0.00    +0.000 C 
ATOM     11  C   UNL     1      38.990   6.823  18.436  0.00  0.00    +0.000 C 
ENDROOT
BRANCH  10  12
ATOM     12  C   UNL     1      41.439   6.474  18.686  0.00  0.00    +0.000 A 
ATOM     13  C   UNL     1      41.265   6.240  19.961  0.00  0.00    +0.000 A 
ATOM     14  C   UNL     1      42.298   6.311  20.853  0.00  0.00    +0.000 A 
ATOM     15  C   UNL     1      43.540   6.637  20.387  0.00  0.00    +0.000 A 
ATOM     16  C   UNL     1      43.793   6.896  19.058  0.00  0.00    +0.000 A 
ATOM     17  C   UNL     1      42.673   6.801  18.207  0.00  0.00    +0.000 A 
ENDBRANCH  10  12
BRANCH  11  18
ATOM     18  C   UNL     1      38.075   7.341  17.243  0.00  0.00    +0.000 A 
ATOM     19  C   UNL     1      37.378   8.457  17.272  0.00  0.00    +0.000 A 
ATOM     20  C   UNL     1      36.619   8.827  16.186  0.00  0.00    +0.000 A 
ATOM     21  C   UNL     1      36.582   8.027  15.050  0.00  0.00    +0.000 A 
ATOM     22  C   UNL     1      37.317   6.880  15.056  0.00  0.00    +0.000 A 
ATOM     23  C   UNL     1      38.080   6.497  16.133  0.00  0.00    +0.000 A 
BRANCH  21  24
ATOM     24  O   UNL     1      35.833   8.370  13.949  0.00  0.00    +0.000 OA
BRANCH  24  25
ATOM     25  C   UNL     1      35.996   9.611  13.347  0.00  0.00    +0.000 C 
BRANCH  25  26
ATOM     26  C   UNL     1      34.726  10.410  13.433  0.00  0.00    +0.000 C 
BRANCH  26  27
ATOM     27  N   UNL     1      35.104  11.812  13.563  0.00  0.00    +0.000 NA
ATOM     28  C   UNL     1      33.884  12.575  13.791  0.00  0.00    +0.000 C 
ATOM     29  C   UNL     1      33.569  12.285  15.245  0.00  0.00    +0.000 C 
ATOM     30  C   UNL     1      34.924  12.045  15.906  0.00  0.00    +0.000 C 
ATOM     31  C   UNL     1      35.900  12.065  14.750  0.00  0.00    +0.000 C 
ENDBRANCH  26  27
ENDBRANCH  25  26
ENDBRANCH  24  25
ENDBRANCH  21  24
ENDBRANCH  11  18
TORSDOF 6
ENDMDL
MODEL 7
REMARK VINA RESULT:      -6.2     28.701     33.063
REMARK  Name = 
REMARK  6 active torsions:
REMARK  status: ('A' for Active; 'I' for Inactive)
REMARK    1  A    between atoms: C_10  and  C_11
REMARK    2  A    between atoms: C_17  and  C_18
REMARK    3  A    between atoms: C_21  and  O_22
REMARK    4  A    between atoms: O_22  and  C_23
REMARK    5  A    between atoms: C_23  and  C_24
REMARK    6  A    between atoms: C_24  and  N_25
REMARK                            x       y       z     vdW  Elec       q    Type
REMARK                         _______ _______ _______ _____ _____    ______ ____
ROOT
ATOM      1  O   UNL     1      25.784  14.367  32.333  0.00  0.00    +0.000 OA
ATOM      2  C   UNL     1      25.849  15.119  33.500  0.00  0.00    +0.000 A 
ATOM      3  C   UNL     1      25.061  16.231  33.718  0.00  0.00    +0.000 A 
ATOM      4  C   UNL     1      25.116  16.982  34.867  0.00  0.00    +0.000 A 
ATOM      5  C   UNL     1      26.037  16.577  35.866  0.00  0.00    +0.000 A 
ATOM      6  C   UNL     1      26.796  15.538  35.702  0.00  0.00    +0.000 A 
ATOM      7  C   UNL     1      26.714  14.804  34.534  0.00  0.00    +0.000 A 
ATOM      8  O   UNL     1      27.661  15.209  36.715  0.00  0.00    +0.000 OA
ATOM      9  C   UNL     1      27.665  15.853  37.863  0.00  0.00    +0.000 C 
ATOM     10  C   UNL     1      27.494  17.448  37.747  0.00  0.00    +0.000 C 
ATOM     11  C   UNL     1      25.941  17.565  37.084  0.00  0.00    +0.000 C 
ENDROOT
BRANCH  10  12
ATOM     12  C   UNL     1      28.343  17.789  36.480  0.00  0.00    +0.000 A 
ATOM     13  C   UNL     1      29.396  17.164  36.019  0.00  0.00    +0.000 A 
ATOM     14  C   UNL     1      30.044  17.581  34.891  0.00  0.00    +0.000 A 
ATOM     15  C   UNL     1      29.569  18.682  34.237  0.00  0.00    +0.000 A 
ATOM     16  C   UNL     1      28.468  19.388  34.668  0.00  0.00    +0.000 A 
ATOM     17  C   UNL     1      27.860  18.890  35.838  0.00  0.00    +0.000 A 
ENDBRANCH  10  12
BRANCH  11  18
ATOM     18  C   UNL     1      25.160  16.685  38.153  0.00  0.00    +0.000 A 
ATOM     19  C   UNL     1      24.616  15.515  37.899  0.00  0.00    +0.000 A 
ATOM     20  C   UNL     1      23.965  14.823  38.894  0.00  0.00    +0.000 A 
ATOM     21  C   UNL     1      23.875  15.354  40.175  0.00  0.00    +0.000 A 
ATOM     22  C   UNL     1      24.450  16.568  40.402  0.00  0.00    +0.000 A 
ATOM     23  C   UNL     1      25.105  17.271  39.418  0.00  0.00    +0.000 A 
BRANCH  21  24
ATOM     24  O   UNL     1      23.229  14.687  41.190  0.00  0.00    +0.000 OA
BRANCH  24  25
ATOM     25  C   UNL     1      22.349  15.361  42.026  0.00  0.00    +0.000 C 
BRANCH  25  26
ATOM     26  C   UNL     1      20.944  14.872  41.817  0.00  0.00    +0.000 C 
BRANCH  26  27
ATOM     27  N   UNL     1      20.484  14.317  43.084  0.00  0.00    +0.000 NA
ATOM     28  C   UNL     1      19.041  14.144  42.988  0.00  0.00    +0.000 C 
ATOM     29  C   UNL     1      18.903  12.903  42.128  0.00  0.00    +0.000 C 
ATOM     30  C   UNL     1      20.150  12.074  42.424  0.00  0.00    +0.000 C 
ATOM     31  C   UNL     1      20.981  12.972  43.313  0.00  0.00    +0.000 C 
ENDBRANCH  26  27
ENDBRANCH  25  26
ENDBRANCH  24  25
ENDBRANCH  21  24
ENDBRANCH  11  18
TORSDOF 6
ENDMDL
MODEL 8
REMARK VINA RESULT:      -6.2     28.282     31.130
REMARK  Name = 
REMARK  6 active torsions:
REMARK  status: ('A' for Active; 'I' for Inactive)
REMARK    1  A    between atoms: C_10  and  C_11
REMARK    2  A    between atoms: C_17  and  C_18
REMARK    3  A    between atoms: C_21  and  O_22
REMARK    4  A    between atoms: O_22  and  C_23
REMARK    5  A    between atoms: C_23  and  C_24
REMARK    6  A    between atoms: C_24  and  N_25
REMARK                            x       y       z     vdW  Elec       q    Type
REMARK                         _______ _______ _______ _____ _____    ______ ____
ROOT
ATOM      1  O   UNL     1      30.713  17.983  33.939  0.00  0.00    +0.000 OA
ATOM      2  C   UNL     1      29.637  17.357  34.558  0.00  0.00    +0.000 A 
ATOM      3  C   UNL     1      29.295  16.043  34.314  0.00  0.00    +0.000 A 
ATOM      4  C   UNL     1      28.233  15.414  34.919  0.00  0.00    +0.000 A 
ATOM      5  C   UNL     1      27.464  16.172  35.836  0.00  0.00    +0.000 A 
ATOM      6  C   UNL     1      27.751  17.410  36.094  0.00  0.00    +0.000 A 
ATOM      7  C   UNL     1      28.826  18.012  35.469  0.00  0.00    +0.000 A 
ATOM      8  O   UNL     1      26.960  18.078  36.996  0.00  0.00    +0.000 OA
ATOM      9  C   UNL     1      25.999  17.471  37.660  0.00  0.00    +0.000 C 
ATOM     10  C   UNL     1      25.134  16.425  36.799  0.00  0.00    +0.000 C 
ATOM     11  C   UNL     1      26.310  15.272  36.405  0.00  0.00    +0.000 C 
ENDROOT
BRANCH  10  12
ATOM     12  C   UNL     1      25.006  17.145  35.418  0.00  0.00    +0.000 A 
ATOM     13  C   UNL     1      24.836  18.422  35.183  0.00  0.00    +0.000 A 
ATOM     14  C   UNL     1      24.737  18.913  33.913  0.00  0.00    +0.000 A 
ATOM     15  C   UNL     1      24.820  18.037  32.867  0.00  0.00    +0.000 A 
ATOM     16  C   UNL     1      24.997  16.682  33.043  0.00  0.00    +0.000 A 
ATOM     17  C   UNL     1      25.088  16.261  34.385  0.00  0.00    +0.000 A 
ENDBRANCH  10  12
BRANCH  11  18
ATOM     18  C   UNL     1      26.836  14.960  37.873  0.00  0.00    +0.000 A 
ATOM     19  C   UNL     1      28.079  15.131  38.269  0.00  0.00    +0.000 A 
ATOM     20  C   UNL     1      28.439  14.839  39.564  0.00  0.00    +0.000 A 
ATOM     21  C   UNL     1      27.495  14.362  40.465  0.00  0.00    +0.000 A 
ATOM     22  C   UNL     1      26.217  14.199  40.020  0.00  0.00    +0.000 A 
ATOM     23  C   UNL     1      25.842  14.486  38.729  0.00  0.00    +0.000 A 
BRANCH  21  24
ATOM     24  O   UNL     1      27.824  14.061  41.766  0.00  0.00    +0.000 OA
BRANCH  24  25
ATOM     25  C   UNL     1      27.467  12.838  42.316  0.00  0.00    +0.000 C 
BRANCH  25  26
ATOM     26  C   UNL     1      28.531  11.810  42.053  0.00  0.00    +0.000 C 
BRANCH  26  27
ATOM     27  N   UNL     1      28.184  11.133  40.810  0.00  0.00    +0.000 NA
ATOM     28  C   UNL     1      29.212  10.134  40.552  0.00  0.00    +0.000 C 
ATOM     29  C   UNL     1      28.862   9.026  41.525  0.00  0.00    +0.000 C 
ATOM     30  C   UNL     1      27.347   9.109  41.694  0.00  0.00    +0.000 C 
ATOM     31  C   UNL     1      26.964  10.354  40.925  0.00  0.00    +0.000 C 
ENDBRANCH  26  27
ENDBRANCH  25  26
ENDBRANCH  24  25
ENDBRANCH  21  24
ENDBRANCH  11  18
TORSDOF 6
ENDMDL
MODEL 9
REMARK VINA RESULT:      -6.1      8.762     10.991
REMARK  Name = 
REMARK  6 active torsions:
REMARK  status: ('A' for Active; 'I' for Inactive)
REMARK    1  A    between atoms: C_10  and  C_11
REMARK    2  A    between atoms: C_17  and  C_18
REMARK    3  A    between atoms: C_21  and  O_22
REMARK    4  A    between atoms: O_22  and  C_23
REMARK    5  A    between atoms: C_23  and  C_24
REMARK    6  A    between atoms: C_24  and  N_25
REMARK                            x       y       z     vdW  Elec       q    Type
REMARK                         _______ _______ _______ _____ _____    ______ ____
ROOT
ATOM      1  O   UNL     1      40.083  11.615  21.482  0.00  0.00    +0.000 OA
ATOM      2  C   UNL     1      39.797  10.499  20.703  0.00  0.00    +0.000 A 
ATOM      3  C   UNL     1      38.834   9.572  21.049  0.00  0.00    +0.000 A 
ATOM      4  C   UNL     1      38.543   8.466  20.288  0.00  0.00    +0.000 A 
ATOM      5  C   UNL     1      39.281   8.287  19.091  0.00  0.00    +0.000 A 
ATOM      6  C   UNL     1      40.194   9.133  18.729  0.00  0.00    +0.000 A 
ATOM      7  C   UNL     1      40.461  10.236  19.518  0.00  0.00    +0.000 A 
ATOM      8  O   UNL     1      40.866   8.891  17.557  0.00  0.00    +0.000 OA
ATOM      9  C   UNL     1      40.539   7.893  16.762  0.00  0.00    +0.000 C 
ATOM     10  C   UNL     1      40.177   6.519  17.513  0.00  0.00    +0.000 C 
ATOM     11  C   UNL     1      38.797   6.972  18.381  0.00  0.00    +0.000 C 
ENDROOT
BRANCH  10  12
ATOM     12  C   UNL     1      41.217   6.484  18.679  0.00  0.00    +0.000 A 
ATOM     13  C   UNL     1      41.004   6.239  19.947  0.00  0.00    +0.000 A 
ATOM     14  C   UNL     1      42.019   6.245  20.862  0.00  0.00    +0.000 A 
ATOM     15  C   UNL     1      43.286   6.517  20.427  0.00  0.00    +0.000 A 
ATOM     16  C   UNL     1      43.580   6.785  19.109  0.00  0.00    +0.000 A 
ATOM     17  C   UNL     1      42.475   6.758  18.233  0.00  0.00    +0.000 A 
ENDBRANCH  10  12
BRANCH  11  18
ATOM     18  C   UNL     1      37.939   7.552  17.175  0.00  0.00    +0.000 A 
ATOM     19  C   UNL     1      37.867   7.003  15.982  0.00  0.00    +0.000 A 
ATOM     20  C   UNL     1      37.090   7.576  15.002  0.00  0.00    +0.000 A 
ATOM     21  C   UNL     1      36.376   8.740  15.262  0.00  0.00    +0.000 A 
ATOM     22  C   UNL     1      36.474   9.280  16.509  0.00  0.00    +0.000 A 
ATOM     23  C   UNL     1      37.246   8.719  17.499  0.00  0.00    +0.000 A 
BRANCH  21  24
ATOM     24  O   UNL     1      35.592   9.336  14.303  0.00  0.00    +0.000 OA
BRANCH  24  25
ATOM     25  C   UNL     1      36.016   9.390  12.982  0.00  0.00    +0.000 C 
BRANCH  25  26
ATOM     26  C   UNL     1      34.905   8.985  12.054  0.00  0.00    +0.000 C 
BRANCH  26  27
ATOM     27  N   UNL     1      34.800   7.533  12.109  0.00  0.00    +0.000 NA
ATOM     28  C   UNL     1      33.581   7.154  11.406  0.00  0.00    +0.000 C 
ATOM     29  C   UNL     1      33.968   7.304   9.949  0.00  0.00    +0.000 C 
ATOM     30  C   UNL     1      35.467   7.015   9.903  0.00  0.00    +0.000 C 
ATOM     31  C   UNL     1      35.853   6.872  11.359  0.00  0.00    +0.000 C 
ENDBRANCH  26  27
ENDBRANCH  25  26
ENDBRANCH  24  25
ENDBRANCH  21  24
ENDBRANCH  11  18
TORSDOF 6
ENDMDL
MODEL 10
REMARK VINA RESULT:      -6.1     10.608     14.142
REMARK  Name = 
REMARK  6 active torsions:
REMARK  status: ('A' for Active; 'I' for Inactive)
REMARK    1  A    between atoms: C_10  and  C_11
REMARK    2  A    between atoms: C_17  and  C_18
REMARK    3  A    between atoms: C_21  and  O_22
REMARK    4  A    between atoms: O_22  and  C_23
REMARK    5  A    between atoms: C_23  and  C_24
REMARK    6  A    between atoms: C_24  and  N_25
REMARK                            x       y       z     vdW  Elec       q    Type
REMARK                         _______ _______ _______ _____ _____    ______ ____
ROOT
ATOM      1  O   UNL     1      44.406   6.631  17.976  0.00  0.00    +0.000 OA
ATOM      2  C   UNL     1      43.189   7.024  18.521  0.00  0.00    +0.000 A 
ATOM      3  C   UNL     1      42.794   6.677  19.797  0.00  0.00    +0.000 A 
ATOM      4  C   UNL     1      41.594   7.059  20.346  0.00  0.00    +0.000 A 
ATOM      5  C   UNL     1      40.732   7.848  19.543  0.00  0.00    +0.000 A 
ATOM      6  C   UNL     1      41.065   8.196  18.339  0.00  0.00    +0.000 A 
ATOM      7  C   UNL     1      42.280   7.796  17.818  0.00  0.00    +0.000 A 
ATOM      8  O   UNL     1      40.177   8.962  17.625  0.00  0.00    +0.000 OA
ATOM      9  C   UNL     1      39.066   9.422  18.162  0.00  0.00    +0.000 C 
ATOM     10  C   UNL     1      38.293   8.384  19.115  0.00  0.00    +0.000 C 
ATOM     11  C   UNL     1      39.426   8.169  20.354  0.00  0.00    +0.000 C 
ENDROOT
BRANCH  10  12
ATOM     12  C   UNL     1      38.476   7.028  18.360  0.00  0.00    +0.000 A 
ATOM     13  C   UNL     1      38.863   5.876  18.846  0.00  0.00    +0.000 A 
ATOM     14  C   UNL     1      38.980   4.765  18.059  0.00  0.00    +0.000 A 
ATOM     15  C   UNL     1      38.683   4.875  16.730  0.00  0.00    +0.000 A 
ATOM     16  C   UNL     1      38.272   6.056  16.153  0.00  0.00    +0.000 A 
ATOM     17  C   UNL     1      38.178   7.151  17.036  0.00  0.00    +0.000 A 
ENDBRANCH  10  12
BRANCH  11  18
ATOM     18  C   UNL     1      39.649   9.696  20.737  0.00  0.00    +0.000 A 
ATOM     19  C   UNL     1      40.828  10.272  20.839  0.00  0.00    +0.000 A 
ATOM     20  C   UNL     1      40.921  11.605  21.169  0.00  0.00    +0.000 A 
ATOM     21  C   UNL     1      39.773  12.352  21.400  0.00  0.00    +0.000 A 
ATOM     22  C   UNL     1      38.570  11.723  21.286  0.00  0.00    +0.000 A 
ATOM     23  C   UNL     1      38.461  10.393  20.955  0.00  0.00    +0.000 A 
BRANCH  21  24
ATOM     24  O   UNL     1      39.833  13.686  21.733  0.00  0.00    +0.000 OA
BRANCH  24  25
ATOM     25  C   UNL     1      38.687  14.366  22.120  0.00  0.00    +0.000 C 
BRANCH  25  26
ATOM     26  C   UNL     1      38.946  15.175  23.360  0.00  0.00    +0.000 C 
BRANCH  26  27
ATOM     27  N   UNL     1      37.809  14.983  24.250  0.00  0.00    +0.000 NA
ATOM     28  C   UNL     1      37.803  13.585  24.659  0.00  0.00    +0.000 C 
ATOM     29  C   UNL     1      38.914  13.526  25.687  0.00  0.00    +0.000 C 
ATOM     30  C   UNL     1      38.946  14.915  26.320  0.00  0.00    +0.000 C 
ATOM     31  C   UNL     1      37.953  15.709  25.499  0.00  0.00    +0.000 C 
ENDBRANCH  26  27
ENDBRANCH  25  26
ENDBRANCH  24  25
ENDBRANCH  21  24
ENDBRANCH  11  18
TORSDOF 6
ENDMDL
