MODEL 1
REMARK VINA RESULT:      -6.0      0.000      0.000
REMARK  Name = 
REMARK  1 active torsions:
REMARK  status: ('A' for Active; 'I' for Inactive)
REMARK    1  A    between atoms: C_4  and  C_5
REMARK                            x       y       z     vdW  Elec       q    Type
REMARK                         _______ _______ _______ _____ _____    ______ ____
ROOT
ATOM      1  O   UNL     1      28.136  23.083  22.339  0.00  0.00    +0.000 OA
ATOM      2  C   UNL     1      27.278  23.614  23.110  0.00  0.00    +0.000 C 
ATOM      3  N   UNL     1      26.319  22.892  23.697  0.00  0.00    +0.000 NA
ATOM      4  C   UNL     1      25.491  23.317  24.936  0.00  0.00    +0.000 C 
ATOM      5  N   UNL     1      25.448  24.837  24.769  0.00  0.00    +0.000 NA
ATOM      6  C   UNL     1      26.420  25.615  24.184  0.00  0.00    +0.000 A 
ATOM      7  S   UNL     1      26.837  27.306  24.218  0.00  0.00    +0.000 S 
ATOM      8  C   UNL     1      28.173  27.273  23.186  0.00  0.00    +0.000 A 
ATOM      9  C   UNL     1      28.273  25.963  22.834  0.00  0.00    +0.000 A 
ATOM     10  C   UNL     1      27.335  25.075  23.368  0.00  0.00    +0.000 A 
ATOM     11  C   UNL     1      29.435  25.692  21.884  0.00  0.00    +0.000 C 
ATOM     12  C   UNL     1      29.375  26.639  20.727  0.00  0.00    +0.000 C 
ATOM     13  C   UNL     1      29.083  28.057  21.112  0.00  0.00    +0.000 C 
ATOM     14  C   UNL     1      29.178  28.274  22.623  0.00  0.00    +0.000 C 
ENDROOT
BRANCH   4  15
ATOM     15  C   UNL     1      26.660  23.286  26.036  0.00  0.00    +0.000 A 
ATOM     16  C   UNL     1      27.675  22.445  25.984  0.00  0.00    +0.000 A 
ATOM     17  C   UNL     1      28.651  22.467  26.960  0.00  0.00    +0.000 A 
ATOM     18  C   UNL     1      28.533  23.385  27.981  0.00  0.00    +0.000 A 
ATOM     19  N   UNL     1      27.495  24.225  28.010  0.00  0.00    +0.000 NA
ATOM     20  C   UNL     1      26.551  24.193  27.053  0.00  0.00    +0.000 A 
ENDBRANCH   4  15
TORSDOF 1
ENDMDL
MODEL 2
REMARK VINA RESULT:      -5.9      1.959      2.254
REMARK  Name = 
REMARK  1 active torsions:
REMARK  status: ('A' for Active; 'I' for Inactive)
REMARK    1  A    between atoms: C_4  and  C_5
REMARK                            x       y       z     vdW  Elec       q    Type
REMARK                         _______ _______ _______ _____ _____    ______ ____
ROOT
ATOM      1  O   UNL     1      29.449  24.210  20.769  0.00  0.00    +0.000 OA
ATOM      2  C   UNL     1      28.720  24.320  21.803  0.00  0.00    +0.000 C 
ATOM      3  N   UNL     1      28.210  23.249  22.419  0.00  0.00    +0.000 NA
ATOM      4  C   UNL     1      27.669  23.207  23.870  0.00  0.00    +0.000 C 
ATOM      5  N   UNL     1      27.145  24.635  24.042  0.00  0.00    +0.000 NA
ATOM      6  C   UNL     1      27.651  25.762  23.437  0.00  0.00    +0.000 A 
ATOM      7  S   UNL     1      27.555  27.475  23.737  0.00  0.00    +0.000 S 
ATOM      8  C   UNL     1      28.506  28.024  22.454  0.00  0.00    +0.000 A 
ATOM      9  C   UNL     1      28.880  26.881  21.820  0.00  0.00    +0.000 A 
ATOM     10  C   UNL     1      28.422  25.669  22.346  0.00  0.00    +0.000 A 
ATOM     11  C   UNL     1      29.763  27.139  20.604  0.00  0.00    +0.000 C 
ATOM     12  C   UNL     1      29.118  28.155  19.715  0.00  0.00    +0.000 C 
ATOM     13  C   UNL     1      28.546  29.331  20.446  0.00  0.00    +0.000 C 
ATOM     14  C   UNL     1      28.985  29.368  21.911  0.00  0.00    +0.000 C 
ENDROOT
BRANCH   4  15
ATOM     15  C   UNL     1      29.052  23.423  24.656  0.00  0.00    +0.000 A 
ATOM     16  C   UNL     1      30.211  22.986  24.206  0.00  0.00    +0.000 A 
ATOM     17  C   UNL     1      31.368  23.203  24.926  0.00  0.00    +0.000 A 
ATOM     18  C   UNL     1      31.275  23.884  26.121  0.00  0.00    +0.000 A 
ATOM     19  N   UNL     1      30.088  24.316  26.555  0.00  0.00    +0.000 NA
ATOM     20  C   UNL     1      28.969  24.098  25.842  0.00  0.00    +0.000 A 
ENDBRANCH   4  15
TORSDOF 1
ENDMDL
MODEL 3
REMARK VINA RESULT:      -5.9     31.926     34.039
REMARK  Name = 
REMARK  1 active torsions:
REMARK  status: ('A' for Active; 'I' for Inactive)
REMARK    1  A    between atoms: C_4  and  C_5
REMARK                            x       y       z     vdW  Elec       q    Type
REMARK                         _______ _______ _______ _____ _____    ______ ____
ROOT
ATOM      1  O   UNL     1      19.577  -5.341  25.612  0.00  0.00    +0.000 OA
ATOM      2  C   UNL     1      19.477  -6.422  26.271  0.00  0.00    +0.000 C 
ATOM      3  N   UNL     1      18.554  -6.580  27.224  0.00  0.00    +0.000 NA
ATOM      4  C   UNL     1      18.066  -7.933  27.802  0.00  0.00    +0.000 C 
ATOM      5  N   UNL     1      19.321  -8.796  27.663  0.00  0.00    +0.000 NA
ATOM      6  C   UNL     1      20.285  -8.673  26.689  0.00  0.00    +0.000 A 
ATOM      7  S   UNL     1      21.533  -9.705  26.048  0.00  0.00    +0.000 S 
ATOM      8  C   UNL     1      22.178  -8.657  24.890  0.00  0.00    +0.000 A 
ATOM      9  C   UNL     1      21.421  -7.534  25.018  0.00  0.00    +0.000 A 
ATOM     10  C   UNL     1      20.408  -7.542  25.981  0.00  0.00    +0.000 A 
ATOM     11  C   UNL     1      21.833  -6.429  24.052  0.00  0.00    +0.000 C 
ATOM     12  C   UNL     1      23.307  -6.194  24.148  0.00  0.00    +0.000 C 
ATOM     13  C   UNL     1      24.125  -7.449  24.190  0.00  0.00    +0.000 C 
ATOM     14  C   UNL     1      23.294  -8.688  23.850  0.00  0.00    +0.000 C 
ENDROOT
BRANCH   4  15
ATOM     15  C   UNL     1      17.311  -8.497  26.502  0.00  0.00    +0.000 A 
ATOM     16  C   UNL     1      17.598  -9.659  25.950  0.00  0.00    +0.000 A 
ATOM     17  C   UNL     1      16.913 -10.091  24.832  0.00  0.00    +0.000 A 
ATOM     18  C   UNL     1      15.929  -9.276  24.315  0.00  0.00    +0.000 A 
ATOM     19  N   UNL     1      15.657  -8.103  24.893  0.00  0.00    +0.000 NA
ATOM     20  C   UNL     1      16.332  -7.695  25.982  0.00  0.00    +0.000 A 
ENDBRANCH   4  15
TORSDOF 1
ENDMDL
MODEL 4
REMARK VINA RESULT:      -5.9      2.518      5.945
REMARK  Name = 
REMARK  1 active torsions:
REMARK  status: ('A' for Active; 'I' for Inactive)
REMARK    1  A    between atoms: C_4  and  C_5
REMARK                            x       y       z     vdW  Elec       q    Type
REMARK                         _______ _______ _______ _____ _____    ______ ____
ROOT
ATOM      1  O   UNL     1      25.680  23.431  25.734  0.00  0.00    +0.000 OA
ATOM      2  C   UNL     1      26.853  23.155  25.335  0.00  0.00    +0.000 C 
ATOM      3  N   UNL     1      27.133  22.994  24.038  0.00  0.00    +0.000 NA
ATOM      4  C   UNL     1      28.542  23.061  23.397  0.00  0.00    +0.000 C 
ATOM      5  N   UNL     1      29.423  22.554  24.541  0.00  0.00    +0.000 NA
ATOM      6  C   UNL     1      29.176  22.713  25.885  0.00  0.00    +0.000 A 
ATOM      7  S   UNL     1      30.135  22.631  27.337  0.00  0.00    +0.000 S 
ATOM      8  C   UNL     1      28.932  22.973  28.472  0.00  0.00    +0.000 A 
ATOM      9  C   UNL     1      27.816  23.144  27.713  0.00  0.00    +0.000 A 
ATOM     10  C   UNL     1      27.946  23.005  26.329  0.00  0.00    +0.000 A 
ATOM     11  C   UNL     1      26.579  23.469  28.544  0.00  0.00    +0.000 C 
ATOM     12  C   UNL     1      26.430  22.465  29.644  0.00  0.00    +0.000 C 
ATOM     13  C   UNL     1      27.708  22.147  30.359  0.00  0.00    +0.000 C 
ATOM     14  C   UNL     1      28.831  23.117  29.988  0.00  0.00    +0.000 C 
ENDROOT
BRANCH   4  15
ATOM     15  C   UNL     1      28.838  24.623  23.616  0.00  0.00    +0.000 A 
ATOM     16  C   UNL     1      30.016  25.089  23.982  0.00  0.00    +0.000 A 
ATOM     17  C   UNL     1      30.209  26.445  24.153  0.00  0.00    +0.000 A 
ATOM     18  C   UNL     1      29.143  27.289  23.934  0.00  0.00    +0.000 A 
ATOM     19  N   UNL     1      27.959  26.792  23.564  0.00  0.00    +0.000 NA
ATOM     20  C   UNL     1      27.785  25.469  23.400  0.00  0.00    +0.000 A 
ENDBRANCH   4  15
TORSDOF 1
ENDMDL
MODEL 5
REMARK VINA RESULT:      -5.8      2.562      5.524
REMARK  Name = 
REMARK  1 active torsions:
REMARK  status: ('A' for Active; 'I' for Inactive)
REMARK    1  A    between atoms: C_4  and  C_5
REMARK                            x       y       z     vdW  Elec       q    Type
REMARK                         _______ _______ _______ _____ _____    ______ ____
ROOT
ATOM      1  O   UNL     1      30.750  22.193  24.390  0.00  0.00    +0.000 OA
ATOM      2  C   UNL     1      30.308  23.383  24.437  0.00  0.00    +0.000 C 
ATOM      3  N   UNL     1      30.122  24.107  23.330  0.00  0.00    +0.000 NA
ATOM      4  C   UNL     1      29.235  25.372  23.210  0.00  0.00    +0.000 C 
ATOM      5  N   UNL     1      29.347  25.959  24.619  0.00  0.00    +0.000 NA
ATOM      6  C   UNL     1      29.524  25.246  25.781  0.00  0.00    +0.000 A 
ATOM      7  S   UNL     1      29.281  25.565  27.476  0.00  0.00    +0.000 S 
ATOM      8  C   UNL     1      29.781  24.078  28.102  0.00  0.00    +0.000 A 
ATOM      9  C   UNL     1      30.126  23.365  26.997  0.00  0.00    +0.000 A 
ATOM     10  C   UNL     1      29.989  23.990  25.754  0.00  0.00    +0.000 A 
ATOM     11  C   UNL     1      30.619  21.960  27.328  0.00  0.00    +0.000 C 
ATOM     12  C   UNL     1      31.686  22.031  28.375  0.00  0.00    +0.000 C 
ATOM     13  C   UNL     1      31.373  22.964  29.505  0.00  0.00    +0.000 C 
ATOM     14  C   UNL     1      29.917  23.431  29.478  0.00  0.00    +0.000 C 
ENDROOT
BRANCH   4  15
ATOM     15  C   UNL     1      27.798  24.686  23.411  0.00  0.00    +0.000 A 
ATOM     16  C   UNL     1      26.925  25.093  24.311  0.00  0.00    +0.000 A 
ATOM     17  C   UNL     1      25.704  24.462  24.436  0.00  0.00    +0.000 A 
ATOM     18  C   UNL     1      25.428  23.401  23.600  0.00  0.00    +0.000 A 
ATOM     19  N   UNL     1      26.330  23.008  22.697  0.00  0.00    +0.000 NA
ATOM     20  C   UNL     1      27.516  23.633  22.585  0.00  0.00    +0.000 A 
ENDBRANCH   4  15
TORSDOF 1
ENDMDL
MODEL 6
REMARK VINA RESULT:      -5.8      2.826      4.605
REMARK  Name = 
REMARK  1 active torsions:
REMARK  status: ('A' for Active; 'I' for Inactive)
REMARK    1  A    between atoms: C_4  and  C_5
REMARK                            x       y       z     vdW  Elec       q    Type
REMARK                         _______ _______ _______ _____ _____    ______ ____
ROOT
ATOM      1  O   UNL     1      27.663  27.183  23.449  0.00  0.00    +0.000 OA
ATOM      2  C   UNL     1      27.637  25.924  23.280  0.00  0.00    +0.000 C 
ATOM      3  N   UNL     1      28.313  25.335  22.289  0.00  0.00    +0.000 NA
ATOM      4  C   UNL     1      28.692  23.834  22.214  0.00  0.00    +0.000 C 
ATOM      5  N   UNL     1      27.533  23.187  22.976  0.00  0.00    +0.000 NA
ATOM      6  C   UNL     1      26.825  23.756  24.008  0.00  0.00    +0.000 A 
ATOM      7  S   UNL     1      25.797  23.155  25.280  0.00  0.00    +0.000 S 
ATOM      8  C   UNL     1      25.413  24.621  26.028  0.00  0.00    +0.000 A 
ATOM      9  C   UNL     1      26.082  25.543  25.286  0.00  0.00    +0.000 A 
ATOM     10  C   UNL     1      26.838  25.081  24.205  0.00  0.00    +0.000 A 
ATOM     11  C   UNL     1      25.878  26.969  25.788  0.00  0.00    +0.000 C 
ATOM     12  C   UNL     1      24.416  27.245  25.945  0.00  0.00    +0.000 C 
ATOM     13  C   UNL     1      23.651  26.138  26.605  0.00  0.00    +0.000 C 
ATOM     14  C   UNL     1      24.577  25.085  27.217  0.00  0.00    +0.000 C 
ENDROOT
BRANCH   4  15
ATOM     15  C   UNL     1      29.751  23.788  23.420  0.00  0.00    +0.000 A 
ATOM     16  C   UNL     1      29.888  22.749  24.219  0.00  0.00    +0.000 A 
ATOM     17  C   UNL     1      30.818  22.768  25.239  0.00  0.00    +0.000 A 
ATOM     18  C   UNL     1      31.591  23.898  25.396  0.00  0.00    +0.000 A 
ATOM     19  N   UNL     1      31.433  24.938  24.572  0.00  0.00    +0.000 NA
ATOM     20  C   UNL     1      30.523  24.905  23.583  0.00  0.00    +0.000 A 
ENDBRANCH   4  15
TORSDOF 1
ENDMDL
MODEL 7
REMARK VINA RESULT:      -5.7      2.464      5.606
REMARK  Name = 
REMARK  1 active torsions:
REMARK  status: ('A' for Active; 'I' for Inactive)
REMARK    1  A    between atoms: C_4  and  C_5
REMARK                            x       y       z     vdW  Elec       q    Type
REMARK                         _______ _______ _______ _____ _____    ______ ____
ROOT
ATOM      1  O   UNL     1      26.277  24.598  25.689  0.00  0.00    +0.000 OA
ATOM      2  C   UNL     1      26.885  24.101  24.691  0.00  0.00    +0.000 C 
ATOM      3  N   UNL     1      26.293  23.978  23.498  0.00  0.00    +0.000 NA
ATOM      4  C   UNL     1      27.015  23.781  22.142  0.00  0.00    +0.000 C 
ATOM      5  N   UNL     1      28.266  23.011  22.570  0.00  0.00    +0.000 NA
ATOM      6  C   UNL     1      28.910  23.121  23.780  0.00  0.00    +0.000 A 
ATOM      7  S   UNL     1      30.498  22.724  24.376  0.00  0.00    +0.000 S 
ATOM      8  C   UNL     1      30.320  23.238  25.975  0.00  0.00    +0.000 A 
ATOM      9  C   UNL     1      29.043  23.705  26.021  0.00  0.00    +0.000 A 
ATOM     10  C   UNL     1      28.288  23.643  24.846  0.00  0.00    +0.000 A 
ATOM     11  C   UNL     1      28.654  24.231  27.398  0.00  0.00    +0.000 C 
ATOM     12  C   UNL     1      28.974  23.207  28.441  0.00  0.00    +0.000 C 
ATOM     13  C   UNL     1      30.317  22.565  28.275  0.00  0.00    +0.000 C 
ATOM     14  C   UNL     1      31.177  23.289  27.237  0.00  0.00    +0.000 C 
ENDROOT
BRANCH   4  15
ATOM     15  C   UNL     1      27.716  25.220  22.025  0.00  0.00    +0.000 A 
ATOM     16  C   UNL     1      27.232  26.306  22.595  0.00  0.00    +0.000 A 
ATOM     17  C   UNL     1      27.880  27.516  22.459  0.00  0.00    +0.000 A 
ATOM     18  C   UNL     1      29.039  27.555  21.714  0.00  0.00    +0.000 A 
ATOM     19  N   UNL     1      29.509  26.441  21.146  0.00  0.00    +0.000 NA
ATOM     20  C   UNL     1      28.867  25.268  21.287  0.00  0.00    +0.000 A 
ENDBRANCH   4  15
TORSDOF 1
ENDMDL
MODEL 8
REMARK VINA RESULT:      -5.6      3.148      4.208
REMARK  Name = 
REMARK  1 active torsions:
REMARK  status: ('A' for Active; 'I' for Inactive)
REMARK    1  A    between atoms: C_4  and  C_5
REMARK                            x       y       z     vdW  Elec       q    Type
REMARK                         _______ _______ _______ _____ _____    ______ ____
ROOT
ATOM      1  O   UNL     1      24.986  24.812  26.380  0.00  0.00    +0.000 OA
ATOM      2  C   UNL     1      26.063  25.148  26.962  0.00  0.00    +0.000 C 
ATOM      3  N   UNL     1      26.057  25.857  28.096  0.00  0.00    +0.000 NA
ATOM      4  C   UNL     1      27.233  25.978  29.098  0.00  0.00    +0.000 C 
ATOM      5  N   UNL     1      28.442  25.842  28.169  0.00  0.00    +0.000 NA
ATOM      6  C   UNL     1      28.490  25.112  27.005  0.00  0.00    +0.000 A 
ATOM      7  S   UNL     1      29.760  24.453  26.010  0.00  0.00    +0.000 S 
ATOM      8  C   UNL     1      28.813  23.728  24.814  0.00  0.00    +0.000 A 
ATOM      9  C   UNL     1      27.540  24.006  25.201  0.00  0.00    +0.000 A 
ATOM     10  C   UNL     1      27.366  24.747  26.374  0.00  0.00    +0.000 A 
ATOM     11  C   UNL     1      26.493  23.437  24.249  0.00  0.00    +0.000 C 
ATOM     12  C   UNL     1      26.813  23.842  22.844  0.00  0.00    +0.000 C 
ATOM     13  C   UNL     1      28.261  23.702  22.482  0.00  0.00    +0.000 C 
ATOM     14  C   UNL     1      29.045  22.922  23.539  0.00  0.00    +0.000 C 
ENDROOT
BRANCH   4  15
ATOM     15  C   UNL     1      27.249  24.469  29.643  0.00  0.00    +0.000 A 
ATOM     16  C   UNL     1      28.354  23.763  29.777  0.00  0.00    +0.000 A 
ATOM     17  C   UNL     1      28.304  22.468  30.252  0.00  0.00    +0.000 A 
ATOM     18  C   UNL     1      27.074  21.939  30.577  0.00  0.00    +0.000 A 
ATOM     19  N   UNL     1      25.969  22.675  30.431  0.00  0.00    +0.000 NA
ATOM     20  C   UNL     1      26.032  23.936  29.968  0.00  0.00    +0.000 A 
ENDBRANCH   4  15
TORSDOF 1
ENDMDL
MODEL 9
REMARK VINA RESULT:      -5.5     21.514     23.143
REMARK  Name = 
REMARK  1 active torsions:
REMARK  status: ('A' for Active; 'I' for Inactive)
REMARK    1  A    between atoms: C_4  and  C_5
REMARK                            x       y       z     vdW  Elec       q    Type
REMARK                         _______ _______ _______ _____ _____    ______ ____
ROOT
ATOM      1  O   UNL     1      24.938   3.946  19.184  0.00  0.00    +0.000 OA
ATOM      2  C   UNL     1      24.923   3.166  18.183  0.00  0.00    +0.000 C 
ATOM      3  N   UNL     1      24.619   1.870  18.307  0.00  0.00    +0.000 NA
ATOM      4  C   UNL     1      24.175   0.927  17.160  0.00  0.00    +0.000 C 
ATOM      5  N   UNL     1      24.913   1.532  15.963  0.00  0.00    +0.000 NA
ATOM      6  C   UNL     1      25.230   2.859  15.794  0.00  0.00    +0.000 A 
ATOM      7  S   UNL     1      25.660   3.864  14.438  0.00  0.00    +0.000 S 
ATOM      8  C   UNL     1      25.855   5.334  15.246  0.00  0.00    +0.000 A 
ATOM      9  C   UNL     1      25.586   5.025  16.543  0.00  0.00    +0.000 A 
ATOM     10  C   UNL     1      25.252   3.700  16.837  0.00  0.00    +0.000 A 
ATOM     11  C   UNL     1      25.703   6.226  17.476  0.00  0.00    +0.000 C 
ATOM     12  C   UNL     1      27.019   6.905  17.263  0.00  0.00    +0.000 C 
ATOM     13  C   UNL     1      27.393   7.080  15.822  0.00  0.00    +0.000 C 
ATOM     14  C   UNL     1      26.224   6.770  14.885  0.00  0.00    +0.000 C 
ENDROOT
BRANCH   4  15
ATOM     15  C   UNL     1      22.744   1.582  16.843  0.00  0.00    +0.000 A 
ATOM     16  C   UNL     1      21.955   2.075  17.777  0.00  0.00    +0.000 A 
ATOM     17  C   UNL     1      20.735   2.626  17.443  0.00  0.00    +0.000 A 
ATOM     18  C   UNL     1      20.369   2.644  16.114  0.00  0.00    +0.000 A 
ATOM     19  N   UNL     1      21.186   2.137  15.187  0.00  0.00    +0.000 NA
ATOM     20  C   UNL     1      22.373   1.604  15.527  0.00  0.00    +0.000 A 
ENDBRANCH   4  15
TORSDOF 1
ENDMDL
MODEL 10
REMARK VINA RESULT:      -5.4      2.993      5.546
REMARK  Name = 
REMARK  1 active torsions:
REMARK  status: ('A' for Active; 'I' for Inactive)
REMARK    1  A    between atoms: C_4  and  C_5
REMARK                            x       y       z     vdW  Elec       q    Type
REMARK                         _______ _______ _______ _____ _____    ______ ____
ROOT
ATOM      1  O   UNL     1      27.846  26.552  25.882  0.00  0.00    +0.000 OA
ATOM      2  C   UNL     1      27.857  25.471  25.217  0.00  0.00    +0.000 C 
ATOM      3  N   UNL     1      26.830  25.114  24.440  0.00  0.00    +0.000 NA
ATOM      4  C   UNL     1      26.876  24.069  23.296  0.00  0.00    +0.000 C 
ATOM      5  N   UNL     1      27.952  23.107  23.803  0.00  0.00    +0.000 NA
ATOM      6  C   UNL     1      29.029  23.439  24.591  0.00  0.00    +0.000 A 
ATOM      7  S   UNL     1      30.565  22.703  24.960  0.00  0.00    +0.000 S 
ATOM      8  C   UNL     1      31.175  23.873  26.014  0.00  0.00    +0.000 A 
ATOM      9  C   UNL     1      30.188  24.807  26.062  0.00  0.00    +0.000 A 
ATOM     10  C   UNL     1      29.039  24.575  25.301  0.00  0.00    +0.000 A 
ATOM     11  C   UNL     1      30.527  25.982  26.974  0.00  0.00    +0.000 C 
ATOM     12  C   UNL     1      30.963  25.475  28.312  0.00  0.00    +0.000 C 
ATOM     13  C   UNL     1      31.917  24.321  28.248  0.00  0.00    +0.000 C 
ATOM     14  C   UNL     1      32.446  24.090  26.832  0.00  0.00    +0.000 C 
ENDROOT
BRANCH   4  15
ATOM     15  C   UNL     1      27.814  24.870  22.270  0.00  0.00    +0.000 A 
ATOM     16  C   UNL     1      27.683  26.160  22.029  0.00  0.00    +0.000 A 
ATOM     17  C   UNL     1      28.521  26.794  21.135  0.00  0.00    +0.000 A 
ATOM     18  C   UNL     1      29.490  26.043  20.505  0.00  0.00    +0.000 A 
ATOM     19  N   UNL     1      29.602  24.738  20.765  0.00  0.00    +0.000 NA
ATOM     20  C   UNL     1      28.779  24.133  21.640  0.00  0.00    +0.000 A 
ENDBRANCH   4  15
TORSDOF 1
ENDMDL
