MODEL 1
REMARK VINA RESULT:      -7.2      0.000      0.000
REMARK  Name = 
REMARK  10 active torsions:
REMARK  status: ('A' for Active; 'I' for Inactive)
REMARK    1  A    between atoms: C_4  and  C_5
REMARK    2  A    between atoms: C_5  and  C_7
REMARK    3  A    between atoms: C_7  and  O_8
REMARK    4  A    between atoms: O_8  and  C_9
REMARK    5  A    between atoms: C_9  and  C_11
REMARK    6  A    between atoms: C_11  and  O_12
REMARK    7  A    between atoms: O_12  and  C_13
REMARK    8  A    between atoms: C_16  and  N_17
REMARK    9  A    between atoms: N_17  and  C_18
REMARK   10  A    between atoms: N_28  and  C_29
REMARK                            x       y       z     vdW  Elec       q    Type
REMARK                         _______ _______ _______ _____ _____    ______ ____
ROOT
ATOM      1  C   UNL     1      24.749  13.686  43.206  0.00  0.00    +0.000 C 
ATOM      2  O   UNL     1      24.863  13.991  44.425  0.00  0.00    +0.000 OA
ENDROOT
BRANCH   1   3
ATOM      3  O   UNL     1      24.119  12.481  42.923  0.00  0.00    +0.000 OA
BRANCH   3   4
ATOM      4  C   UNL     1      24.099  11.368  43.741  0.00  0.00    +0.000 C 
BRANCH   4   5
ATOM      5  C   UNL     1      24.729  10.149  43.246  0.00  0.00    +0.000 C 
ATOM      6  O   UNL     1      23.937   9.304  42.712  0.00  0.00    +0.000 OA
BRANCH   5  10
ATOM      7  C   UNL     1      29.261   8.214  44.484  0.00  0.00    +0.000 C 
ATOM      8  C   UNL     1      28.147   8.941  43.819  0.00  0.00    +0.000 A 
ATOM      9  C   UNL     1      26.827   9.012  44.190  0.00  0.00    +0.000 A 
ATOM     10  C   UNL     1      26.129   9.795  43.294  0.00  0.00    +0.000 A 
ATOM     11  C   UNL     1      27.082  10.192  42.372  0.00  0.00    +0.000 A 
ATOM     12  C   UNL     1      26.853  11.068  41.171  0.00  0.00    +0.000 C 
ATOM     13  N   UNL     1      28.265   9.673  42.705  0.00  0.00    +0.000 N 
BRANCH  13  14
ATOM     14  C   UNL     1      29.497   9.876  41.965  0.00  0.00    +0.000 C 
ATOM     15  C   UNL     1      29.555   9.506  40.532  0.00  0.00    +0.000 C 
ATOM     16  C   UNL     1      30.280   8.632  41.554  0.00  0.00    +0.000 C 
ENDBRANCH  13  14
ENDBRANCH   5  10
ENDBRANCH   4   5
ENDBRANCH   3   4
ENDBRANCH   1   3
BRANCH   1  17
ATOM     17  C   UNL     1      25.266  14.577  42.121  0.00  0.00    +0.000 C 
BRANCH  17  18
ATOM     18  O   UNL     1      24.880  14.005  40.881  0.00  0.00    +0.000 OA
BRANCH  18  19
ATOM     19  C   UNL     1      25.205  14.667  39.698  0.00  0.00    +0.000 A 
ATOM     20  C   UNL     1      24.255  15.303  38.926  0.00  0.00    +0.000 A 
ATOM     21  C   UNL     1      24.602  15.951  37.761  0.00  0.00    +0.000 A 
ATOM     22  C   UNL     1      25.924  15.989  37.316  0.00  0.00    +0.000 A 
ATOM     23  C   UNL     1      26.856  15.352  38.094  0.00  0.00    +0.000 A 
ATOM     24  C   UNL     1      26.506  14.706  39.257  0.00  0.00    +0.000 A 
BRANCH  22  25
ATOM     25  N   UNL     1      26.284  16.649  36.128  0.00  0.00    +0.000 NA
BRANCH  25  26
ATOM     26  C   UNL     1      25.851  16.148  34.885  0.00  0.00    +0.000 A 
ATOM     27  C   UNL     1      25.225  16.982  33.994  0.00  0.00    +0.000 A 
ATOM     28  C   UNL     1      24.808  16.472  32.784  0.00  0.00    +0.000 A 
ATOM     29  C   UNL     1      25.010  15.160  32.469  0.00  0.00    +0.000 A 
ATOM     30  C   UNL     1      25.635  14.333  33.362  0.00  0.00    +0.000 A 
ATOM     31  C   UNL     1      26.056  14.829  34.573  0.00  0.00    +0.000 A 
ENDBRANCH  25  26
ENDBRANCH  22  25
ENDBRANCH  18  19
ENDBRANCH  17  18
ENDBRANCH   1  17
TORSDOF 10
ENDMDL
MODEL 2
REMARK VINA RESULT:      -7.1     25.882     28.314
REMARK  Name = 
REMARK  10 active torsions:
REMARK  status: ('A' for Active; 'I' for Inactive)
REMARK    1  A    between atoms: C_4  and  C_5
REMARK    2  A    between atoms: C_5  and  C_7
REMARK    3  A    between atoms: C_7  and  O_8
REMARK    4  A    between atoms: O_8  and  C_9
REMARK    5  A    between atoms: C_9  and  C_11
REMARK    6  A    between atoms: C_11  and  O_12
REMARK    7  A    between atoms: O_12  and  C_13
REMARK    8  A    between atoms: C_16  and  N_17
REMARK    9  A    between atoms: N_17  and  C_18
REMARK   10  A    between atoms: N_28  and  C_29
REMARK                            x       y       z     vdW  Elec       q    Type
REMARK                         _______ _______ _______ _____ _____    ______ ____
ROOT
ATOM      1  C   UNL     1      38.209   4.376  15.671  0.00  0.00    +0.000 C 
ATOM      2  O   UNL     1      38.862   5.151  14.917  0.00  0.00    +0.000 OA
ENDROOT
BRANCH   1   3
ATOM      3  O   UNL     1      37.320   3.509  15.051  0.00  0.00    +0.000 OA
BRANCH   3   4
ATOM      4  C   UNL     1      35.943   3.604  15.083  0.00  0.00    +0.000 C 
BRANCH   4   5
ATOM      5  C   UNL     1      35.207   2.587  15.826  0.00  0.00    +0.000 C 
ATOM      6  O   UNL     1      33.953   2.789  15.931  0.00  0.00    +0.000 OA
BRANCH   5  10
ATOM      7  C   UNL     1      36.578  -1.031  19.120  0.00  0.00    +0.000 C 
ATOM      8  C   UNL     1      36.342  -0.227  17.891  0.00  0.00    +0.000 A 
ATOM      9  C   UNL     1      35.751   1.006  17.773  0.00  0.00    +0.000 A 
ATOM     10  C   UNL     1      35.733   1.394  16.450  0.00  0.00    +0.000 A 
ATOM     11  C   UNL     1      36.339   0.346  15.778  0.00  0.00    +0.000 A 
ATOM     12  C   UNL     1      36.578   0.255  14.296  0.00  0.00    +0.000 C 
ATOM     13  N   UNL     1      36.689  -0.598  16.653  0.00  0.00    +0.000 N 
BRANCH  13  14
ATOM     14  C   UNL     1      37.348  -1.844  16.307  0.00  0.00    +0.000 C 
ATOM     15  C   UNL     1      38.502  -2.306  17.114  0.00  0.00    +0.000 C 
ATOM     16  C   UNL     1      38.750  -1.753  15.711  0.00  0.00    +0.000 C 
ENDBRANCH  13  14
ENDBRANCH   5  10
ENDBRANCH   4   5
ENDBRANCH   3   4
ENDBRANCH   1   3
BRANCH   1  17
ATOM     17  C   UNL     1      38.385   4.393  17.157  0.00  0.00    +0.000 C 
BRANCH  17  18
ATOM     18  O   UNL     1      38.487   5.751  17.558  0.00  0.00    +0.000 OA
BRANCH  18  19
ATOM     19  C   UNL     1      39.609   6.164  18.273  0.00  0.00    +0.000 A 
ATOM     20  C   UNL     1      39.546   6.511  19.606  0.00  0.00    +0.000 A 
ATOM     21  C   UNL     1      40.671   6.916  20.291  0.00  0.00    +0.000 A 
ATOM     22  C   UNL     1      41.915   6.993  19.664  0.00  0.00    +0.000 A 
ATOM     23  C   UNL     1      41.961   6.646  18.338  0.00  0.00    +0.000 A 
ATOM     24  C   UNL     1      40.837   6.241  17.659  0.00  0.00    +0.000 A 
BRANCH  22  25
ATOM     25  N   UNL     1      43.067   7.406  20.357  0.00  0.00    +0.000 NA
BRANCH  25  26
ATOM     26  C   UNL     1      44.054   6.464  20.707  0.00  0.00    +0.000 A 
ATOM     27  C   UNL     1      43.821   5.580  21.730  0.00  0.00    +0.000 A 
ATOM     28  C   UNL     1      44.800   4.667  22.056  0.00  0.00    +0.000 A 
ATOM     29  C   UNL     1      45.983   4.635  21.378  0.00  0.00    +0.000 A 
ATOM     30  C   UNL     1      46.209   5.519  20.359  0.00  0.00    +0.000 A 
ATOM     31  C   UNL     1      45.241   6.436  20.022  0.00  0.00    +0.000 A 
ENDBRANCH  25  26
ENDBRANCH  22  25
ENDBRANCH  18  19
ENDBRANCH  17  18
ENDBRANCH   1  17
TORSDOF 10
ENDMDL
MODEL 3
REMARK VINA RESULT:      -7.1     27.494     30.523
REMARK  Name = 
REMARK  10 active torsions:
REMARK  status: ('A' for Active; 'I' for Inactive)
REMARK    1  A    between atoms: C_4  and  C_5
REMARK    2  A    between atoms: C_5  and  C_7
REMARK    3  A    between atoms: C_7  and  O_8
REMARK    4  A    between atoms: O_8  and  C_9
REMARK    5  A    between atoms: C_9  and  C_11
REMARK    6  A    between atoms: C_11  and  O_12
REMARK    7  A    between atoms: O_12  and  C_13
REMARK    8  A    between atoms: C_16  and  N_17
REMARK    9  A    between atoms: N_17  and  C_18
REMARK   10  A    between atoms: N_28  and  C_29
REMARK                            x       y       z     vdW  Elec       q    Type
REMARK                         _______ _______ _______ _____ _____    ______ ____
ROOT
ATOM      1  C   UNL     1      39.820  -0.682  11.577  0.00  0.00    +0.000 C 
ATOM      2  O   UNL     1      41.072  -0.532  11.542  0.00  0.00    +0.000 OA
ENDROOT
BRANCH   1   3
ATOM      3  O   UNL     1      39.352  -1.886  12.086  0.00  0.00    +0.000 OA
BRANCH   3   4
ATOM      4  C   UNL     1      39.816  -2.518  13.224  0.00  0.00    +0.000 C 
BRANCH   4   5
ATOM      5  C   UNL     1      39.806  -1.764  14.472  0.00  0.00    +0.000 C 
ATOM      6  O   UNL     1      40.951  -1.394  14.895  0.00  0.00    +0.000 OA
BRANCH   5  10
ATOM      7  C   UNL     1      35.577   0.386  16.292  0.00  0.00    +0.000 C 
ATOM      8  C   UNL     1      36.783  -0.463  16.096  0.00  0.00    +0.000 A 
ATOM      9  C   UNL     1      37.690  -0.439  15.067  0.00  0.00    +0.000 A 
ATOM     10  C   UNL     1      38.662  -1.395  15.274  0.00  0.00    +0.000 A 
ATOM     11  C   UNL     1      38.302  -1.995  16.469  0.00  0.00    +0.000 A 
ATOM     12  C   UNL     1      39.029  -3.114  17.162  0.00  0.00    +0.000 C 
ATOM     13  N   UNL     1      37.188  -1.425  16.933  0.00  0.00    +0.000 N 
BRANCH  13  14
ATOM     14  C   UNL     1      36.518  -1.798  18.166  0.00  0.00    +0.000 C 
ATOM     15  C   UNL     1      36.237  -0.760  19.185  0.00  0.00    +0.000 C 
ATOM     16  C   UNL     1      37.348  -1.777  19.447  0.00  0.00    +0.000 C 
ENDBRANCH  13  14
ENDBRANCH   5  10
ENDBRANCH   4   5
ENDBRANCH   3   4
ENDBRANCH   1   3
BRANCH   1  17
ATOM     17  C   UNL     1      38.887   0.383  11.095  0.00  0.00    +0.000 C 
BRANCH  17  18
ATOM     18  O   UNL     1      39.392   1.629  11.549  0.00  0.00    +0.000 OA
BRANCH  18  19
ATOM     19  C   UNL     1      38.865   2.193  12.710  0.00  0.00    +0.000 A 
ATOM     20  C   UNL     1      37.532   2.529  12.825  0.00  0.00    +0.000 A 
ATOM     21  C   UNL     1      37.036   3.085  13.984  0.00  0.00    +0.000 A 
ATOM     22  C   UNL     1      37.860   3.330  15.083  0.00  0.00    +0.000 A 
ATOM     23  C   UNL     1      39.182   2.990  14.953  0.00  0.00    +0.000 A 
ATOM     24  C   UNL     1      39.673   2.435  13.795  0.00  0.00    +0.000 A 
BRANCH  22  25
ATOM     25  N   UNL     1      37.359   3.896  16.269  0.00  0.00    +0.000 NA
BRANCH  25  26
ATOM     26  C   UNL     1      38.087   4.906  16.929  0.00  0.00    +0.000 A 
ATOM     27  C   UNL     1      38.216   6.143  16.351  0.00  0.00    +0.000 A 
ATOM     28  C   UNL     1      38.933   7.115  17.013  0.00  0.00    +0.000 A 
ATOM     29  C   UNL     1      39.507   6.861  18.224  0.00  0.00    +0.000 A 
ATOM     30  C   UNL     1      39.375   5.625  18.795  0.00  0.00    +0.000 A 
ATOM     31  C   UNL     1      38.662   4.645  18.146  0.00  0.00    +0.000 A 
ENDBRANCH  25  26
ENDBRANCH  22  25
ENDBRANCH  18  19
ENDBRANCH  17  18
ENDBRANCH   1  17
TORSDOF 10
ENDMDL
MODEL 4
REMARK VINA RESULT:      -6.9     22.165     24.877
REMARK  Name = 
REMARK  10 active torsions:
REMARK  status: ('A' for Active; 'I' for Inactive)
REMARK    1  A    between atoms: C_4  and  C_5
REMARK    2  A    between atoms: C_5  and  C_7
REMARK    3  A    between atoms: C_7  and  O_8
REMARK    4  A    between atoms: O_8  and  C_9
REMARK    5  A    between atoms: C_9  and  C_11
REMARK    6  A    between atoms: C_11  and  O_12
REMARK    7  A    between atoms: O_12  and  C_13
REMARK    8  A    between atoms: C_16  and  N_17
REMARK    9  A    between atoms: N_17  and  C_18
REMARK   10  A    between atoms: N_28  and  C_29
REMARK                            x       y       z     vdW  Elec       q    Type
REMARK                         _______ _______ _______ _____ _____    ______ ____
ROOT
ATOM      1  C   UNL     1      12.939  -0.612  27.875  0.00  0.00    +0.000 C 
ATOM      2  O   UNL     1      11.883  -0.513  28.559  0.00  0.00    +0.000 OA
ENDROOT
BRANCH   1   3
ATOM      3  O   UNL     1      12.849  -1.336  26.694  0.00  0.00    +0.000 OA
BRANCH   3   4
ATOM      4  C   UNL     1      13.002  -2.703  26.570  0.00  0.00    +0.000 C 
BRANCH   4   5
ATOM      5  C   UNL     1      11.803  -3.506  26.360  0.00  0.00    +0.000 C 
ATOM      6  O   UNL     1      11.269  -3.978  27.417  0.00  0.00    +0.000 OA
BRANCH   5  10
ATOM      7  C   UNL     1      10.321  -5.699  22.022  0.00  0.00    +0.000 C 
ATOM      8  C   UNL     1      10.482  -4.782  23.182  0.00  0.00    +0.000 A 
ATOM      9  C   UNL     1      11.332  -4.894  24.253  0.00  0.00    +0.000 A 
ATOM     10  C   UNL     1      11.160  -3.823  25.104  0.00  0.00    +0.000 A 
ATOM     11  C   UNL     1      10.172  -3.063  24.502  0.00  0.00    +0.000 A 
ATOM     12  C   UNL     1       9.598  -1.772  25.019  0.00  0.00    +0.000 C 
ATOM     13  N   UNL     1       9.789  -3.651  23.368  0.00  0.00    +0.000 N 
BRANCH  13  14
ATOM     14  C   UNL     1       8.770  -3.138  22.471  0.00  0.00    +0.000 C 
ATOM     15  C   UNL     1       9.042  -3.078  21.016  0.00  0.00    +0.000 C 
ATOM     16  C   UNL     1       9.027  -1.781  21.823  0.00  0.00    +0.000 C 
ENDBRANCH  13  14
ENDBRANCH   5  10
ENDBRANCH   4   5
ENDBRANCH   3   4
ENDBRANCH   1   3
BRANCH   1  17
ATOM     17  C   UNL     1      14.223   0.018  28.316  0.00  0.00    +0.000 C 
BRANCH  17  18
ATOM     18  O   UNL     1      14.741   0.744  27.212  0.00  0.00    +0.000 OA
BRANCH  18  19
ATOM     19  C   UNL     1      15.988   0.395  26.696  0.00  0.00    +0.000 A 
ATOM     20  C   UNL     1      17.134   1.100  26.999  0.00  0.00    +0.000 A 
ATOM     21  C   UNL     1      18.355   0.734  26.475  0.00  0.00    +0.000 A 
ATOM     22  C   UNL     1      18.479  -0.361  25.619  0.00  0.00    +0.000 A 
ATOM     23  C   UNL     1      17.331  -1.051  25.327  0.00  0.00    +0.000 A 
ATOM     24  C   UNL     1      16.115  -0.683  25.852  0.00  0.00    +0.000 A 
BRANCH  22  25
ATOM     25  N   UNL     1      19.722  -0.740  25.082  0.00  0.00    +0.000 NA
BRANCH  25  26
ATOM     26  C   UNL     1      19.965  -0.598  23.701  0.00  0.00    +0.000 A 
ATOM     27  C   UNL     1      20.238  -1.706  22.939  0.00  0.00    +0.000 A 
ATOM     28  C   UNL     1      20.473  -1.545  21.592  0.00  0.00    +0.000 A 
ATOM     29  C   UNL     1      20.437  -0.309  21.016  0.00  0.00    +0.000 A 
ATOM     30  C   UNL     1      20.165   0.792  21.781  0.00  0.00    +0.000 A 
ATOM     31  C   UNL     1      19.929   0.646  23.128  0.00  0.00    +0.000 A 
ENDBRANCH  25  26
ENDBRANCH  22  25
ENDBRANCH  18  19
ENDBRANCH  17  18
ENDBRANCH   1  17
TORSDOF 10
ENDMDL
MODEL 5
REMARK VINA RESULT:      -6.9     24.528     28.334
REMARK  Name = 
REMARK  10 active torsions:
REMARK  status: ('A' for Active; 'I' for Inactive)
REMARK    1  A    between atoms: C_4  and  C_5
REMARK    2  A    between atoms: C_5  and  C_7
REMARK    3  A    between atoms: C_7  and  O_8
REMARK    4  A    between atoms: O_8  and  C_9
REMARK    5  A    between atoms: C_9  and  C_11
REMARK    6  A    between atoms: C_11  and  O_12
REMARK    7  A    between atoms: O_12  and  C_13
REMARK    8  A    between atoms: C_16  and  N_17
REMARK    9  A    between atoms: N_17  and  C_18
REMARK   10  A    between atoms: N_28  and  C_29
REMARK                            x       y       z     vdW  Elec       q    Type
REMARK                         _______ _______ _______ _____ _____    ______ ____
ROOT
ATOM      1  C   UNL     1      37.698   4.854  14.338  0.00  0.00    +0.000 C 
ATOM      2  O   UNL     1      38.299   5.686  13.603  0.00  0.00    +0.000 OA
ENDROOT
BRANCH   1   3
ATOM      3  O   UNL     1      37.850   5.012  15.709  0.00  0.00    +0.000 OA
BRANCH   3   4
ATOM      4  C   UNL     1      38.948   4.624  16.451  0.00  0.00    +0.000 C 
BRANCH   4   5
ATOM      5  C   UNL     1      38.950   4.931  17.876  0.00  0.00    +0.000 C 
ATOM      6  O   UNL     1      38.369   4.074  18.620  0.00  0.00    +0.000 OA
BRANCH   5  10
ATOM      7  C   UNL     1      42.008   8.151  20.347  0.00  0.00    +0.000 C 
ATOM      8  C   UNL     1      40.870   7.530  19.618  0.00  0.00    +0.000 A 
ATOM      9  C   UNL     1      40.748   6.245  19.153  0.00  0.00    +0.000 A 
ATOM     10  C   UNL     1      39.527   6.083  18.532  0.00  0.00    +0.000 A 
ATOM     11  C   UNL     1      38.920   7.322  18.645  0.00  0.00    +0.000 A 
ATOM     12  C   UNL     1      37.558   7.698  18.130  0.00  0.00    +0.000 C 
ATOM     13  N   UNL     1      39.734   8.158  19.290  0.00  0.00    +0.000 N 
BRANCH  13  14
ATOM     14  C   UNL     1      39.429   9.545  19.590  0.00  0.00    +0.000 C 
ATOM     15  C   UNL     1      39.775  10.096  20.921  0.00  0.00    +0.000 C 
ATOM     16  C   UNL     1      38.309   9.815  20.591  0.00  0.00    +0.000 C 
ENDBRANCH  13  14
ENDBRANCH   5  10
ENDBRANCH   4   5
ENDBRANCH   3   4
ENDBRANCH   1   3
BRANCH   1  17
ATOM     17  C   UNL     1      36.867   3.752  13.760  0.00  0.00    +0.000 C 
BRANCH  17  18
ATOM     18  O   UNL     1      35.784   3.526  14.649  0.00  0.00    +0.000 OA
BRANCH  18  19
ATOM     19  C   UNL     1      35.651   2.277  15.254  0.00  0.00    +0.000 A 
ATOM     20  C   UNL     1      34.923   2.093  16.411  0.00  0.00    +0.000 A 
ATOM     21  C   UNL     1      34.807   0.847  16.988  0.00  0.00    +0.000 A 
ATOM     22  C   UNL     1      35.420  -0.274  16.427  0.00  0.00    +0.000 A 
ATOM     23  C   UNL     1      36.140  -0.074  15.277  0.00  0.00    +0.000 A 
ATOM     24  C   UNL     1      36.253   1.171  14.704  0.00  0.00    +0.000 A 
BRANCH  22  25
ATOM     25  N   UNL     1      35.305  -1.548  17.011  0.00  0.00    +0.000 NA
BRANCH  25  26
ATOM     26  C   UNL     1      36.457  -2.222  17.462  0.00  0.00    +0.000 A 
ATOM     27  C   UNL     1      37.180  -1.712  18.510  0.00  0.00    +0.000 A 
ATOM     28  C   UNL     1      38.303  -2.387  18.935  0.00  0.00    +0.000 A 
ATOM     29  C   UNL     1      38.697  -3.544  18.329  0.00  0.00    +0.000 A 
ATOM     30  C   UNL     1      37.972  -4.047  17.284  0.00  0.00    +0.000 A 
ATOM     31  C   UNL     1      36.849  -3.384  16.849  0.00  0.00    +0.000 A 
ENDBRANCH  25  26
ENDBRANCH  22  25
ENDBRANCH  18  19
ENDBRANCH  17  18
ENDBRANCH   1  17
TORSDOF 10
ENDMDL
MODEL 6
REMARK VINA RESULT:      -6.9     26.518     29.059
REMARK  Name = 
REMARK  10 active torsions:
REMARK  status: ('A' for Active; 'I' for Inactive)
REMARK    1  A    between atoms: C_4  and  C_5
REMARK    2  A    between atoms: C_5  and  C_7
REMARK    3  A    between atoms: C_7  and  O_8
REMARK    4  A    between atoms: O_8  and  C_9
REMARK    5  A    between atoms: C_9  and  C_11
REMARK    6  A    between atoms: C_11  and  O_12
REMARK    7  A    between atoms: O_12  and  C_13
REMARK    8  A    between atoms: C_16  and  N_17
REMARK    9  A    between atoms: N_17  and  C_18
REMARK   10  A    between atoms: N_28  and  C_29
REMARK                            x       y       z     vdW  Elec       q    Type
REMARK                         _______ _______ _______ _____ _____    ______ ____
ROOT
ATOM      1  C   UNL     1      37.867   4.309  16.649  0.00  0.00    +0.000 C 
ATOM      2  O   UNL     1      37.775   4.869  15.522  0.00  0.00    +0.000 OA
ENDROOT
BRANCH   1   3
ATOM      3  O   UNL     1      37.369   3.016  16.744  0.00  0.00    +0.000 OA
BRANCH   3   4
ATOM      4  C   UNL     1      36.039   2.655  16.659  0.00  0.00    +0.000 C 
BRANCH   4   5
ATOM      5  C   UNL     1      35.627   1.838  15.524  0.00  0.00    +0.000 C 
ATOM      6  O   UNL     1      34.818   2.399  14.713  0.00  0.00    +0.000 OA
BRANCH   5  10
ATOM      7  C   UNL     1      37.777  -2.316  13.538  0.00  0.00    +0.000 C 
ATOM      8  C   UNL     1      36.972  -1.373  14.360  0.00  0.00    +0.000 A 
ATOM      9  C   UNL     1      36.889  -0.006  14.261  0.00  0.00    +0.000 A 
ATOM     10  C   UNL     1      36.025   0.482  15.219  0.00  0.00    +0.000 A 
ATOM     11  C   UNL     1      35.592  -0.646  15.896  0.00  0.00    +0.000 A 
ATOM     12  C   UNL     1      34.628  -0.680  17.049  0.00  0.00    +0.000 C 
ATOM     13  N   UNL     1      36.167  -1.728  15.368  0.00  0.00    +0.000 N 
BRANCH  13  14
ATOM     14  C   UNL     1      35.949  -3.088  15.825  0.00  0.00    +0.000 C 
ATOM     15  C   UNL     1      35.769  -4.170  14.830  0.00  0.00    +0.000 C 
ATOM     16  C   UNL     1      34.557  -3.679  15.621  0.00  0.00    +0.000 C 
ENDBRANCH  13  14
ENDBRANCH   5  10
ENDBRANCH   4   5
ENDBRANCH   3   4
ENDBRANCH   1   3
BRANCH   1  17
ATOM     17  C   UNL     1      38.481   5.004  17.824  0.00  0.00    +0.000 C 
BRANCH  17  18
ATOM     18  O   UNL     1      39.500   5.858  17.328  0.00  0.00    +0.000 OA
BRANCH  18  19
ATOM     19  C   UNL     1      40.591   6.157  18.142  0.00  0.00    +0.000 A 
ATOM     20  C   UNL     1      40.507   6.149  19.518  0.00  0.00    +0.000 A 
ATOM     21  C   UNL     1      41.602   6.447  20.300  0.00  0.00    +0.000 A 
ATOM     22  C   UNL     1      42.834   6.770  19.732  0.00  0.00    +0.000 A 
ATOM     23  C   UNL     1      42.902   6.774  18.362  0.00  0.00    +0.000 A 
ATOM     24  C   UNL     1      41.807   6.475  17.585  0.00  0.00    +0.000 A 
BRANCH  22  25
ATOM     25  N   UNL     1      43.955   7.075  20.525  0.00  0.00    +0.000 NA
BRANCH  25  26
ATOM     26  C   UNL     1      44.911   6.080  20.805  0.00  0.00    +0.000 A 
ATOM     27  C   UNL     1      44.670   5.161  21.795  0.00  0.00    +0.000 A 
ATOM     28  C   UNL     1      45.618   4.196  22.054  0.00  0.00    +0.000 A 
ATOM     29  C   UNL     1      46.782   4.148  21.342  0.00  0.00    +0.000 A 
ATOM     30  C   UNL     1      47.016   5.067  20.357  0.00  0.00    +0.000 A 
ATOM     31  C   UNL     1      46.078   6.036  20.088  0.00  0.00    +0.000 A 
ENDBRANCH  25  26
ENDBRANCH  22  25
ENDBRANCH  18  19
ENDBRANCH  17  18
ENDBRANCH   1  17
TORSDOF 10
ENDMDL
MODEL 7
REMARK VINA RESULT:      -6.7     25.824     28.872
REMARK  Name = 
REMARK  10 active torsions:
REMARK  status: ('A' for Active; 'I' for Inactive)
REMARK    1  A    between atoms: C_4  and  C_5
REMARK    2  A    between atoms: C_5  and  C_7
REMARK    3  A    between atoms: C_7  and  O_8
REMARK    4  A    between atoms: O_8  and  C_9
REMARK    5  A    between atoms: C_9  and  C_11
REMARK    6  A    between atoms: C_11  and  O_12
REMARK    7  A    between atoms: O_12  and  C_13
REMARK    8  A    between atoms: C_16  and  N_17
REMARK    9  A    between atoms: N_17  and  C_18
REMARK   10  A    between atoms: N_28  and  C_29
REMARK                            x       y       z     vdW  Elec       q    Type
REMARK                         _______ _______ _______ _____ _____    ______ ____
ROOT
ATOM      1  C   UNL     1      37.743   4.269  16.681  0.00  0.00    +0.000 C 
ATOM      2  O   UNL     1      37.702   4.494  15.440  0.00  0.00    +0.000 OA
ENDROOT
BRANCH   1   3
ATOM      3  O   UNL     1      37.199   3.068  17.114  0.00  0.00    +0.000 OA
BRANCH   3   4
ATOM      4  C   UNL     1      36.104   2.431  16.561  0.00  0.00    +0.000 C 
BRANCH   4   5
ATOM      5  C   UNL     1      36.324   1.601  15.383  0.00  0.00    +0.000 C 
ATOM      6  O   UNL     1      35.429   1.689  14.479  0.00  0.00    +0.000 OA
BRANCH   5  10
ATOM      7  C   UNL     1      40.811  -0.437  14.146  0.00  0.00    +0.000 C 
ATOM      8  C   UNL     1      39.409  -0.225  14.593  0.00  0.00    +0.000 A 
ATOM      9  C   UNL     1      38.696   0.947  14.653  0.00  0.00    +0.000 A 
ATOM     10  C   UNL     1      37.425   0.700  15.128  0.00  0.00    +0.000 A 
ATOM     11  C   UNL     1      37.402  -0.667  15.349  0.00  0.00    +0.000 A 
ATOM     12  C   UNL     1      36.242  -1.468  15.872  0.00  0.00    +0.000 C 
ATOM     13  N   UNL     1      38.586  -1.189  15.025  0.00  0.00    +0.000 N 
BRANCH  13  14
ATOM     14  C   UNL     1      38.928  -2.595  15.128  0.00  0.00    +0.000 C 
ATOM     15  C   UNL     1      39.233  -3.175  16.457  0.00  0.00    +0.000 C 
ATOM     16  C   UNL     1      40.375  -2.941  15.469  0.00  0.00    +0.000 C 
ENDBRANCH  13  14
ENDBRANCH   5  10
ENDBRANCH   4   5
ENDBRANCH   3   4
ENDBRANCH   1   3
BRANCH   1  17
ATOM     17  C   UNL     1      38.347   5.249  17.638  0.00  0.00    +0.000 C 
BRANCH  17  18
ATOM     18  O   UNL     1      39.669   5.515  17.195  0.00  0.00    +0.000 OA
BRANCH  18  19
ATOM     19  C   UNL     1      40.599   6.022  18.101  0.00  0.00    +0.000 A 
ATOM     20  C   UNL     1      40.309   6.186  19.440  0.00  0.00    +0.000 A 
ATOM     21  C   UNL     1      41.247   6.689  20.315  0.00  0.00    +0.000 A 
ATOM     22  C   UNL     1      42.523   7.052  19.883  0.00  0.00    +0.000 A 
ATOM     23  C   UNL     1      42.796   6.883  18.550  0.00  0.00    +0.000 A 
ATOM     24  C   UNL     1      41.857   6.381  17.680  0.00  0.00    +0.000 A 
BRANCH  22  25
ATOM     25  N   UNL     1      43.484   7.565  20.772  0.00  0.00    +0.000 NA
BRANCH  25  26
ATOM     26  C   UNL     1      43.995   6.753  21.803  0.00  0.00    +0.000 A 
ATOM     27  C   UNL     1      43.967   7.198  23.100  0.00  0.00    +0.000 A 
ATOM     28  C   UNL     1      44.472   6.388  24.093  0.00  0.00    +0.000 A 
ATOM     29  C   UNL     1      44.994   5.162  23.800  0.00  0.00    +0.000 A 
ATOM     30  C   UNL     1      45.019   4.723  22.505  0.00  0.00    +0.000 A 
ATOM     31  C   UNL     1      44.518   5.521  21.503  0.00  0.00    +0.000 A 
ENDBRANCH  25  26
ENDBRANCH  22  25
ENDBRANCH  18  19
ENDBRANCH  17  18
ENDBRANCH   1  17
TORSDOF 10
ENDMDL
MODEL 8
REMARK VINA RESULT:      -6.7     27.612     30.479
REMARK  Name = 
REMARK  10 active torsions:
REMARK  status: ('A' for Active; 'I' for Inactive)
REMARK    1  A    between atoms: C_4  and  C_5
REMARK    2  A    between atoms: C_5  and  C_7
REMARK    3  A    between atoms: C_7  and  O_8
REMARK    4  A    between atoms: O_8  and  C_9
REMARK    5  A    between atoms: C_9  and  C_11
REMARK    6  A    between atoms: C_11  and  O_12
REMARK    7  A    between atoms: O_12  and  C_13
REMARK    8  A    between atoms: C_16  and  N_17
REMARK    9  A    between atoms: N_17  and  C_18
REMARK   10  A    between atoms: N_28  and  C_29
REMARK                            x       y       z     vdW  Elec       q    Type
REMARK                         _______ _______ _______ _____ _____    ______ ____
ROOT
ATOM      1  C   UNL     1      36.725  -0.987  19.124  0.00  0.00    +0.000 C 
ATOM      2  O   UNL     1      37.504  -0.018  19.342  0.00  0.00    +0.000 OA
ENDROOT
BRANCH   1   3
ATOM      3  O   UNL     1      37.080  -2.208  19.681  0.00  0.00    +0.000 OA
BRANCH   3   4
ATOM      4  C   UNL     1      38.294  -2.847  19.519  0.00  0.00    +0.000 C 
BRANCH   4   5
ATOM      5  C   UNL     1      38.421  -3.799  18.421  0.00  0.00    +0.000 C 
ATOM      6  O   UNL     1      39.167  -4.806  18.656  0.00  0.00    +0.000 OA
BRANCH   5  10
ATOM      7  C   UNL     1      35.399  -4.406  14.381  0.00  0.00    +0.000 C 
ATOM      8  C   UNL     1      36.475  -3.976  15.314  0.00  0.00    +0.000 A 
ATOM      9  C   UNL     1      36.696  -4.372  16.609  0.00  0.00    +0.000 A 
ATOM     10  C   UNL     1      37.806  -3.729  17.115  0.00  0.00    +0.000 A 
ATOM     11  C   UNL     1      38.244  -2.932  16.071  0.00  0.00    +0.000 A 
ATOM     12  C   UNL     1      39.435  -2.013  16.088  0.00  0.00    +0.000 C 
ATOM     13  N   UNL     1      37.441  -3.097  15.019  0.00  0.00    +0.000 N 
BRANCH  13  14
ATOM     14  C   UNL     1      37.594  -2.419  13.745  0.00  0.00    +0.000 C 
ATOM     15  C   UNL     1      38.513  -2.981  12.728  0.00  0.00    +0.000 C 
ATOM     16  C   UNL     1      38.923  -1.716  13.482  0.00  0.00    +0.000 C 
ENDBRANCH  13  14
ENDBRANCH   5  10
ENDBRANCH   4   5
ENDBRANCH   3   4
ENDBRANCH   1   3
BRANCH   1  17
ATOM     17  C   UNL     1      35.483  -0.827  18.305  0.00  0.00    +0.000 C 
BRANCH  17  18
ATOM     18  O   UNL     1      35.323   0.558  18.040  0.00  0.00    +0.000 OA
BRANCH  18  19
ATOM     19  C   UNL     1      35.717   1.062  16.802  0.00  0.00    +0.000 A 
ATOM     20  C   UNL     1      36.005   2.397  16.608  0.00  0.00    +0.000 A 
ATOM     21  C   UNL     1      36.393   2.870  15.373  0.00  0.00    +0.000 A 
ATOM     22  C   UNL     1      36.508   2.020  14.274  0.00  0.00    +0.000 A 
ATOM     23  C   UNL     1      36.218   0.696  14.482  0.00  0.00    +0.000 A 
ATOM     24  C   UNL     1      35.832   0.228  15.716  0.00  0.00    +0.000 A 
BRANCH  22  25
ATOM     25  N   UNL     1      36.904   2.496  13.011  0.00  0.00    +0.000 NA
BRANCH  25  26
ATOM     26  C   UNL     1      38.020   1.931  12.363  0.00  0.00    +0.000 A 
ATOM     27  C   UNL     1      39.267   2.057  12.919  0.00  0.00    +0.000 A 
ATOM     28  C   UNL     1      40.345   1.497  12.269  0.00  0.00    +0.000 A 
ATOM     29  C   UNL     1      40.184   0.828  11.091  0.00  0.00    +0.000 A 
ATOM     30  C   UNL     1      38.937   0.706  10.542  0.00  0.00    +0.000 A 
ATOM     31  C   UNL     1      37.852   1.259  11.180  0.00  0.00    +0.000 A 
ENDBRANCH  25  26
ENDBRANCH  22  25
ENDBRANCH  18  19
ENDBRANCH  17  18
ENDBRANCH   1  17
TORSDOF 10
ENDMDL
MODEL 9
REMARK VINA RESULT:      -6.4     27.340     29.640
REMARK  Name = 
REMARK  10 active torsions:
REMARK  status: ('A' for Active; 'I' for Inactive)
REMARK    1  A    between atoms: C_4  and  C_5
REMARK    2  A    between atoms: C_5  and  C_7
REMARK    3  A    between atoms: C_7  and  O_8
REMARK    4  A    between atoms: O_8  and  C_9
REMARK    5  A    between atoms: C_9  and  C_11
REMARK    6  A    between atoms: C_11  and  O_12
REMARK    7  A    between atoms: O_12  and  C_13
REMARK    8  A    between atoms: C_16  and  N_17
REMARK    9  A    between atoms: N_17  and  C_18
REMARK   10  A    between atoms: N_28  and  C_29
REMARK                            x       y       z     vdW  Elec       q    Type
REMARK                         _______ _______ _______ _____ _____    ______ ____
ROOT
ATOM      1  C   UNL     1      37.622   3.775  15.013  0.00  0.00    +0.000 C 
ATOM      2  O   UNL     1      38.517   4.641  15.218  0.00  0.00    +0.000 OA
ENDROOT
BRANCH   1   3
ATOM      3  O   UNL     1      37.405   2.852  16.027  0.00  0.00    +0.000 OA
BRANCH   3   4
ATOM      4  C   UNL     1      36.317   2.830  16.879  0.00  0.00    +0.000 C 
BRANCH   4   5
ATOM      5  C   UNL     1      35.643   1.553  17.088  0.00  0.00    +0.000 C 
ATOM      6  O   UNL     1      34.398   1.543  16.814  0.00  0.00    +0.000 OA
BRANCH   5  10
ATOM      7  C   UNL     1      37.381  -2.265  19.956  0.00  0.00    +0.000 C 
ATOM      8  C   UNL     1      36.988  -1.392  18.817  0.00  0.00    +0.000 A 
ATOM      9  C   UNL     1      36.426  -0.140  18.851  0.00  0.00    +0.000 A 
ATOM     10  C   UNL     1      36.219   0.317  17.566  0.00  0.00    +0.000 A 
ATOM     11  C   UNL     1      36.680  -0.710  16.760  0.00  0.00    +0.000 A 
ATOM     12  C   UNL     1      36.688  -0.730  15.256  0.00  0.00    +0.000 C 
ATOM     13  N   UNL     1      37.129  -1.707  17.524  0.00  0.00    +0.000 N 
BRANCH  13  14
ATOM     14  C   UNL     1      37.687  -2.950  17.022  0.00  0.00    +0.000 C 
ATOM     15  C   UNL     1      38.858  -3.549  17.702  0.00  0.00    +0.000 C 
ATOM     16  C   UNL     1      39.051  -2.880  16.342  0.00  0.00    +0.000 C 
ENDBRANCH  13  14
ENDBRANCH   5  10
ENDBRANCH   4   5
ENDBRANCH   3   4
ENDBRANCH   1   3
BRANCH   1  17
ATOM     17  C   UNL     1      36.836   3.744  13.740  0.00  0.00    +0.000 C 
BRANCH  17  18
ATOM     18  O   UNL     1      35.731   4.620  13.901  0.00  0.00    +0.000 OA
BRANCH  18  19
ATOM     19  C   UNL     1      35.487   5.590  12.930  0.00  0.00    +0.000 A 
ATOM     20  C   UNL     1      34.442   6.485  13.030  0.00  0.00    +0.000 A 
ATOM     21  C   UNL     1      34.223   7.435  12.056  0.00  0.00    +0.000 A 
ATOM     22  C   UNL     1      35.045   7.527  10.933  0.00  0.00    +0.000 A 
ATOM     23  C   UNL     1      36.079   6.630  10.848  0.00  0.00    +0.000 A 
ATOM     24  C   UNL     1      36.295   5.684  11.822  0.00  0.00    +0.000 A 
BRANCH  22  25
ATOM     25  N   UNL     1      34.826   8.495   9.936  0.00  0.00    +0.000 NA
BRANCH  25  26
ATOM     26  C   UNL     1      34.396   8.099   8.654  0.00  0.00    +0.000 A 
ATOM     27  C   UNL     1      34.620   8.918   7.577  0.00  0.00    +0.000 A 
ATOM     28  C   UNL     1      34.191   8.514   6.332  0.00  0.00    +0.000 A 
ATOM     29  C   UNL     1      33.552   7.319   6.165  0.00  0.00    +0.000 A 
ATOM     30  C   UNL     1      33.332   6.507   7.243  0.00  0.00    +0.000 A 
ATOM     31  C   UNL     1      33.755   6.899   8.491  0.00  0.00    +0.000 A 
ENDBRANCH  25  26
ENDBRANCH  22  25
ENDBRANCH  18  19
ENDBRANCH  17  18
ENDBRANCH   1  17
TORSDOF 10
ENDMDL
MODEL 10
REMARK VINA RESULT:      -6.3     26.187     29.722
REMARK  Name = 
REMARK  10 active torsions:
REMARK  status: ('A' for Active; 'I' for Inactive)
REMARK    1  A    between atoms: C_4  and  C_5
REMARK    2  A    between atoms: C_5  and  C_7
REMARK    3  A    between atoms: C_7  and  O_8
REMARK    4  A    between atoms: O_8  and  C_9
REMARK    5  A    between atoms: C_9  and  C_11
REMARK    6  A    between atoms: C_11  and  O_12
REMARK    7  A    between atoms: O_12  and  C_13
REMARK    8  A    between atoms: C_16  and  N_17
REMARK    9  A    between atoms: N_17  and  C_18
REMARK   10  A    between atoms: N_28  and  C_29
REMARK                            x       y       z     vdW  Elec       q    Type
REMARK                         _______ _______ _______ _____ _____    ______ ____
ROOT
ATOM      1  C   UNL     1      37.471   3.520  16.839  0.00  0.00    +0.000 C 
ATOM      2  O   UNL     1      37.102   2.719  17.742  0.00  0.00    +0.000 OA
ENDROOT
BRANCH   1   3
ATOM      3  O   UNL     1      38.685   4.165  17.038  0.00  0.00    +0.000 OA
BRANCH   3   4
ATOM      4  C   UNL     1      39.249   5.103  16.196  0.00  0.00    +0.000 C 
BRANCH   4   5
ATOM      5  C   UNL     1      39.766   6.329  16.792  0.00  0.00    +0.000 C 
ATOM      6  O   UNL     1      39.015   7.353  16.673  0.00  0.00    +0.000 OA
BRANCH   5  10
ATOM      7  C   UNL     1      44.655   6.978  18.015  0.00  0.00    +0.000 C 
ATOM      8  C   UNL     1      43.178   6.810  18.057  0.00  0.00    +0.000 A 
ATOM      9  C   UNL     1      42.306   6.624  17.014  0.00  0.00    +0.000 A 
ATOM     10  C   UNL     1      41.017   6.513  17.492  0.00  0.00    +0.000 A 
ATOM     11  C   UNL     1      41.150   6.638  18.865  0.00  0.00    +0.000 A 
ATOM     12  C   UNL     1      40.039   6.590  19.877  0.00  0.00    +0.000 C 
ATOM     13  N   UNL     1      42.437   6.812  19.172  0.00  0.00    +0.000 N 
BRANCH  13  14
ATOM     14  C   UNL     1      42.951   6.980  20.518  0.00  0.00    +0.000 C 
ATOM     15  C   UNL     1      44.341   6.568  20.824  0.00  0.00    +0.000 C 
ATOM     16  C   UNL     1      43.182   5.717  21.342  0.00  0.00    +0.000 C 
ENDBRANCH  13  14
ENDBRANCH   5  10
ENDBRANCH   4   5
ENDBRANCH   3   4
ENDBRANCH   1   3
BRANCH   1  17
ATOM     17  C   UNL     1      36.643   3.762  15.617  0.00  0.00    +0.000 C 
BRANCH  17  18
ATOM     18  O   UNL     1      37.406   3.341  14.496  0.00  0.00    +0.000 OA
BRANCH  18  19
ATOM     19  C   UNL     1      37.685   1.985  14.337  0.00  0.00    +0.000 A 
ATOM     20  C   UNL     1      38.976   1.501  14.273  0.00  0.00    +0.000 A 
ATOM     21  C   UNL     1      39.225   0.155  14.116  0.00  0.00    +0.000 A 
ATOM     22  C   UNL     1      38.184  -0.769  14.013  0.00  0.00    +0.000 A 
ATOM     23  C   UNL     1      36.908  -0.273  14.078  0.00  0.00    +0.000 A 
ATOM     24  C   UNL     1      36.663   1.071  14.236  0.00  0.00    +0.000 A 
BRANCH  22  25
ATOM     25  N   UNL     1      38.432  -2.144  13.852  0.00  0.00    +0.000 NA
BRANCH  25  26
ATOM     26  C   UNL     1      38.197  -3.031  14.920  0.00  0.00    +0.000 A 
ATOM     27  C   UNL     1      39.111  -3.133  15.937  0.00  0.00    +0.000 A 
ATOM     28  C   UNL     1      38.862  -4.007  16.972  0.00  0.00    +0.000 A 
ATOM     29  C   UNL     1      37.726  -4.764  16.993  0.00  0.00    +0.000 A 
ATOM     30  C   UNL     1      36.818  -4.658  15.976  0.00  0.00    +0.000 A 
ATOM     31  C   UNL     1      37.054  -3.789  14.936  0.00  0.00    +0.000 A 
ENDBRANCH  25  26
ENDBRANCH  22  25
ENDBRANCH  18  19
ENDBRANCH  17  18
ENDBRANCH   1  17
TORSDOF 10
ENDMDL
