MODEL 1
REMARK VINA RESULT:      -6.2      0.000      0.000
REMARK  Name = 
REMARK  2 active torsions:
REMARK  status: ('A' for Active; 'I' for Inactive)
REMARK    1  A    between atoms: C_2  and  C_4
REMARK    2  A    between atoms: C_10  and  C_11
REMARK                            x       y       z     vdW  Elec       q    Type
REMARK                         _______ _______ _______ _____ _____    ______ ____
ROOT
ATOM      1  C   UNL     1      27.087   6.161  14.981  0.00  0.00    +0.000 C 
ATOM      2  C   UNL     1      27.758   7.337  15.884  0.00  0.00    +0.000 C 
ATOM      3  C   UNL     1      28.442   6.724  17.049  0.00  0.00    +0.000 C 
ATOM      4  C   UNL     1      27.201   6.830  18.167  0.00  0.00    +0.000 C 
ATOM      5  C   UNL     1      27.980   5.834  19.219  0.00  0.00    +0.000 C 
ATOM      6  C   UNL     1      26.367   5.642  17.478  0.00  0.00    +0.000 C 
ATOM      7  C   UNL     1      25.628   5.044  18.382  0.00  0.00    +0.000 C 
ATOM      8  C   UNL     1      26.421   5.335  16.140  0.00  0.00    +0.000 C 
ATOM      9  O   UNL     1      25.905   4.294  15.660  0.00  0.00    +0.000 OA
ENDROOT
BRANCH   7  10
ATOM     10  C   UNL     1      24.727   3.950  18.284  0.00  0.00    +0.000 A 
ATOM     11  C   UNL     1      25.119   2.618  18.199  0.00  0.00    +0.000 A 
ATOM     12  C   UNL     1      24.209   1.598  18.082  0.00  0.00    +0.000 A 
ATOM     13  C   UNL     1      22.846   1.860  18.044  0.00  0.00    +0.000 A 
ATOM     14  N   UNL     1      21.864   0.849  17.921  0.00  0.00    +0.000 NA
ATOM     15  C   UNL     1      22.412   3.177  18.125  0.00  0.00    +0.000 A 
ATOM     16  C   UNL     1      23.371   4.186  18.243  0.00  0.00    +0.000 A 
ENDBRANCH   7  10
BRANCH   1  18
ATOM     17  C   UNL     1      29.489   6.154  14.298  0.00  0.00    +0.000 C 
ATOM     18  C   UNL     1      28.446   5.236  14.901  0.00  0.00    +0.000 C 
ATOM     19  C   UNL     1      28.074   4.181  13.854  0.00  0.00    +0.000 C 
ENDBRANCH   1  18
TORSDOF 2
ENDMDL
MODEL 2
REMARK VINA RESULT:      -6.1     18.237     20.192
REMARK  Name = 
REMARK  2 active torsions:
REMARK  status: ('A' for Active; 'I' for Inactive)
REMARK    1  A    between atoms: C_2  and  C_4
REMARK    2  A    between atoms: C_10  and  C_11
REMARK                            x       y       z     vdW  Elec       q    Type
REMARK                         _______ _______ _______ _____ _____    ______ ____
ROOT
ATOM      1  C   UNL     1      35.061   4.411  36.757  0.00  0.00    +0.000 C 
ATOM      2  C   UNL     1      34.939   5.750  35.841  0.00  0.00    +0.000 C 
ATOM      3  C   UNL     1      33.561   5.845  35.300  0.00  0.00    +0.000 C 
ATOM      4  C   UNL     1      33.805   5.085  33.828  0.00  0.00    +0.000 C 
ATOM      5  C   UNL     1      32.188   4.973  33.549  0.00  0.00    +0.000 C 
ATOM      6  C   UNL     1      33.908   3.631  34.503  0.00  0.00    +0.000 C 
ATOM      7  C   UNL     1      33.520   2.721  33.640  0.00  0.00    +0.000 C 
ATOM      8  C   UNL     1      34.358   3.400  35.779  0.00  0.00    +0.000 C 
ATOM      9  O   UNL     1      34.258   2.283  36.344  0.00  0.00    +0.000 OA
ENDROOT
BRANCH   7  10
ATOM     10  C   UNL     1      33.424   1.308  33.748  0.00  0.00    +0.000 A 
ATOM     11  C   UNL     1      34.264   0.413  33.092  0.00  0.00    +0.000 A 
ATOM     12  C   UNL     1      34.115  -0.946  33.212  0.00  0.00    +0.000 A 
ATOM     13  C   UNL     1      33.108  -1.486  34.001  0.00  0.00    +0.000 A 
ATOM     14  N   UNL     1      32.906  -2.877  34.157  0.00  0.00    +0.000 NA
ATOM     15  C   UNL     1      32.247  -0.626  34.672  0.00  0.00    +0.000 A 
ATOM     16  C   UNL     1      32.433   0.750  34.525  0.00  0.00    +0.000 A 
ENDBRANCH   7  10
BRANCH   1  18
ATOM     17  C   UNL     1      33.901   6.135  38.143  0.00  0.00    +0.000 C 
ATOM     18  C   UNL     1      33.712   4.714  37.651  0.00  0.00    +0.000 C 
ATOM     19  C   UNL     1      33.880   3.769  38.844  0.00  0.00    +0.000 C 
ENDBRANCH   1  18
TORSDOF 2
ENDMDL
MODEL 3
REMARK VINA RESULT:      -5.9     20.448     22.157
REMARK  Name = 
REMARK  2 active torsions:
REMARK  status: ('A' for Active; 'I' for Inactive)
REMARK    1  A    between atoms: C_2  and  C_4
REMARK    2  A    between atoms: C_10  and  C_11
REMARK                            x       y       z     vdW  Elec       q    Type
REMARK                         _______ _______ _______ _____ _____    ______ ____
ROOT
ATOM      1  C   UNL     1      30.705  22.671  26.042  0.00  0.00    +0.000 C 
ATOM      2  C   UNL     1      30.259  22.356  24.509  0.00  0.00    +0.000 C 
ATOM      3  C   UNL     1      29.530  23.527  23.965  0.00  0.00    +0.000 C 
ATOM      4  C   UNL     1      27.965  23.052  24.322  0.00  0.00    +0.000 C 
ATOM      5  C   UNL     1      27.369  24.548  23.990  0.00  0.00    +0.000 C 
ATOM      6  C   UNL     1      28.147  23.344  25.891  0.00  0.00    +0.000 C 
ATOM      7  C   UNL     1      26.983  23.645  26.417  0.00  0.00    +0.000 C 
ATOM      8  C   UNL     1      29.343  23.261  26.560  0.00  0.00    +0.000 C 
ATOM      9  O   UNL     1      29.493  23.669  27.739  0.00  0.00    +0.000 OA
ENDROOT
BRANCH   7  10
ATOM     10  C   UNL     1      26.614  23.983  27.746  0.00  0.00    +0.000 A 
ATOM     11  C   UNL     1      26.523  23.069  28.791  0.00  0.00    +0.000 A 
ATOM     12  C   UNL     1      26.140  23.442  30.055  0.00  0.00    +0.000 A 
ATOM     13  C   UNL     1      25.824  24.763  30.341  0.00  0.00    +0.000 A 
ATOM     14  N   UNL     1      25.419  25.204  31.623  0.00  0.00    +0.000 NA
ATOM     15  C   UNL     1      25.901  25.709  29.326  0.00  0.00    +0.000 A 
ATOM     16  C   UNL     1      26.296  25.287  28.055  0.00  0.00    +0.000 A 
ENDBRANCH   7  10
BRANCH   1  18
ATOM     17  C   UNL     1      32.392  23.838  24.616  0.00  0.00    +0.000 C 
ATOM     18  C   UNL     1      31.382  24.134  25.705  0.00  0.00    +0.000 C 
ATOM     19  C   UNL     1      32.147  24.455  26.993  0.00  0.00    +0.000 C 
ENDBRANCH   1  18
TORSDOF 2
ENDMDL
MODEL 4
REMARK VINA RESULT:      -5.9     20.279     21.980
REMARK  Name = 
REMARK  2 active torsions:
REMARK  status: ('A' for Active; 'I' for Inactive)
REMARK    1  A    between atoms: C_2  and  C_4
REMARK    2  A    between atoms: C_10  and  C_11
REMARK                            x       y       z     vdW  Elec       q    Type
REMARK                         _______ _______ _______ _____ _____    ______ ____
ROOT
ATOM      1  C   UNL     1      29.659  25.836  23.794  0.00  0.00    +0.000 C 
ATOM      2  C   UNL     1      29.487  25.006  22.405  0.00  0.00    +0.000 C 
ATOM      3  C   UNL     1      28.043  24.807  22.133  0.00  0.00    +0.000 C 
ATOM      4  C   UNL     1      27.847  23.303  22.841  0.00  0.00    +0.000 C 
ATOM      5  C   UNL     1      26.207  23.410  22.761  0.00  0.00    +0.000 C 
ATOM      6  C   UNL     1      27.931  23.901  24.330  0.00  0.00    +0.000 C 
ATOM      7  C   UNL     1      27.249  23.134  25.147  0.00  0.00    +0.000 C 
ATOM      8  C   UNL     1      28.634  25.029  24.671  0.00  0.00    +0.000 C 
ATOM      9  O   UNL     1      28.536  25.577  25.798  0.00  0.00    +0.000 OA
ENDROOT
BRANCH   7  10
ATOM     10  C   UNL     1      27.015  23.229  26.545  0.00  0.00    +0.000 A 
ATOM     11  C   UNL     1      27.783  22.591  27.514  0.00  0.00    +0.000 A 
ATOM     12  C   UNL     1      27.500  22.697  28.853  0.00  0.00    +0.000 A 
ATOM     13  C   UNL     1      26.424  23.454  29.296  0.00  0.00    +0.000 A 
ATOM     14  N   UNL     1      26.084  23.595  30.662  0.00  0.00    +0.000 NA
ATOM     15  C   UNL     1      25.631  24.106  28.361  0.00  0.00    +0.000 A 
ATOM     16  C   UNL     1      25.952  23.973  27.008  0.00  0.00    +0.000 A 
ENDBRANCH   7  10
BRANCH   1  18
ATOM     17  C   UNL     1      29.133  27.577  22.081  0.00  0.00    +0.000 C 
ATOM     18  C   UNL     1      28.599  27.030  23.389  0.00  0.00    +0.000 C 
ATOM     19  C   UNL     1      28.841  28.078  24.480  0.00  0.00    +0.000 C 
ENDBRANCH   1  18
TORSDOF 2
ENDMDL
MODEL 5
REMARK VINA RESULT:      -5.8     20.242     22.262
REMARK  Name = 
REMARK  2 active torsions:
REMARK  status: ('A' for Active; 'I' for Inactive)
REMARK    1  A    between atoms: C_2  and  C_4
REMARK    2  A    between atoms: C_10  and  C_11
REMARK                            x       y       z     vdW  Elec       q    Type
REMARK                         _______ _______ _______ _____ _____    ______ ____
ROOT
ATOM      1  C   UNL     1      25.789  24.269  27.642  0.00  0.00    +0.000 C 
ATOM      2  C   UNL     1      26.267  23.151  28.723  0.00  0.00    +0.000 C 
ATOM      3  C   UNL     1      27.720  23.310  28.977  0.00  0.00    +0.000 C 
ATOM      4  C   UNL     1      28.303  22.209  27.859  0.00  0.00    +0.000 C 
ATOM      5  C   UNL     1      29.844  22.760  28.028  0.00  0.00    +0.000 C 
ATOM      6  C   UNL     1      27.971  23.171  26.615  0.00  0.00    +0.000 C 
ATOM      7  C   UNL     1      28.801  22.915  25.631  0.00  0.00    +0.000 C 
ATOM      8  C   UNL     1      26.955  24.094  26.602  0.00  0.00    +0.000 C 
ATOM      9  O   UNL     1      26.830  24.955  25.695  0.00  0.00    +0.000 OA
ENDROOT
BRANCH   7  10
ATOM     10  C   UNL     1      28.923  23.485  24.336  0.00  0.00    +0.000 A 
ATOM     11  C   UNL     1      28.125  23.141  23.249  0.00  0.00    +0.000 A 
ATOM     12  C   UNL     1      28.299  23.706  22.011  0.00  0.00    +0.000 A 
ATOM     13  C   UNL     1      29.290  24.654  21.793  0.00  0.00    +0.000 A 
ATOM     14  N   UNL     1      29.516  25.266  20.538  0.00  0.00    +0.000 NA
ATOM     15  C   UNL     1      30.109  25.025  22.852  0.00  0.00    +0.000 A 
ATOM     16  C   UNL     1      29.899  24.427  24.096  0.00  0.00    +0.000 A 
ENDBRANCH   7  10
BRANCH   1  18
ATOM     17  C   UNL     1      25.813  25.551  29.785  0.00  0.00    +0.000 C 
ATOM     18  C   UNL     1      26.480  25.543  28.425  0.00  0.00    +0.000 C 
ATOM     19  C   UNL     1      25.962  26.746  27.631  0.00  0.00    +0.000 C 
ENDBRANCH   1  18
TORSDOF 2
ENDMDL
MODEL 6
REMARK VINA RESULT:      -5.8     18.699     20.589
REMARK  Name = 
REMARK  2 active torsions:
REMARK  status: ('A' for Active; 'I' for Inactive)
REMARK    1  A    between atoms: C_2  and  C_4
REMARK    2  A    between atoms: C_10  and  C_11
REMARK                            x       y       z     vdW  Elec       q    Type
REMARK                         _______ _______ _______ _____ _____    ______ ____
ROOT
ATOM      1  C   UNL     1      33.235  -2.282  35.045  0.00  0.00    +0.000 C 
ATOM      2  C   UNL     1      33.747  -2.992  36.417  0.00  0.00    +0.000 C 
ATOM      3  C   UNL     1      35.102  -3.552  36.198  0.00  0.00    +0.000 C 
ATOM      4  C   UNL     1      34.674  -5.113  35.769  0.00  0.00    +0.000 C 
ATOM      5  C   UNL     1      36.197  -5.452  35.247  0.00  0.00    +0.000 C 
ATOM      6  C   UNL     1      34.152  -4.660  34.319  0.00  0.00    +0.000 C 
ATOM      7  C   UNL     1      34.277  -5.659  33.478  0.00  0.00    +0.000 C 
ATOM      8  C   UNL     1      33.635  -3.419  34.036  0.00  0.00    +0.000 C 
ATOM      9  O   UNL     1      33.405  -3.030  32.864  0.00  0.00    +0.000 OA
ENDROOT
BRANCH   7  10
ATOM     10  C   UNL     1      33.966  -5.765  32.096  0.00  0.00    +0.000 A 
ATOM     11  C   UNL     1      32.682  -5.958  31.594  0.00  0.00    +0.000 A 
ATOM     12  C   UNL     1      32.436  -6.077  30.250  0.00  0.00    +0.000 A 
ATOM     13  C   UNL     1      33.472  -6.010  29.328  0.00  0.00    +0.000 A 
ATOM     14  N   UNL     1      33.278  -6.130  27.932  0.00  0.00    +0.000 NA
ATOM     15  C   UNL     1      34.769  -5.819  29.787  0.00  0.00    +0.000 A 
ATOM     16  C   UNL     1      34.977  -5.702  31.163  0.00  0.00    +0.000 A 
ENDBRANCH   7  10
BRANCH   1  18
ATOM     17  C   UNL     1      34.689  -0.517  36.048  0.00  0.00    +0.000 C 
ATOM     18  C   UNL     1      34.601  -1.392  34.815  0.00  0.00    +0.000 C 
ATOM     19  C   UNL     1      34.227  -0.505  33.624  0.00  0.00    +0.000 C 
ENDBRANCH   1  18
TORSDOF 2
ENDMDL
MODEL 7
REMARK VINA RESULT:      -5.8     21.435     23.540
REMARK  Name = 
REMARK  2 active torsions:
REMARK  status: ('A' for Active; 'I' for Inactive)
REMARK    1  A    between atoms: C_2  and  C_4
REMARK    2  A    between atoms: C_10  and  C_11
REMARK                            x       y       z     vdW  Elec       q    Type
REMARK                         _______ _______ _______ _____ _____    ______ ____
ROOT
ATOM      1  C   UNL     1      19.158   8.860  40.813  0.00  0.00    +0.000 C 
ATOM      2  C   UNL     1      17.772   9.635  40.454  0.00  0.00    +0.000 C 
ATOM      3  C   UNL     1      17.436   9.394  39.030  0.00  0.00    +0.000 C 
ATOM      4  C   UNL     1      18.151  10.751  38.359  0.00  0.00    +0.000 C 
ATOM      5  C   UNL     1      17.995  10.156  36.834  0.00  0.00    +0.000 C 
ATOM      6  C   UNL     1      19.635  10.170  38.560  0.00  0.00    +0.000 C 
ATOM      7  C   UNL     1      20.429  10.675  37.645  0.00  0.00    +0.000 C 
ATOM      8  C   UNL     1      19.996   9.299  39.558  0.00  0.00    +0.000 C 
ATOM      9  O   UNL     1      21.111   8.719  39.585  0.00  0.00    +0.000 OA
ENDROOT
BRANCH   7  10
ATOM     10  C   UNL     1      21.814  10.479  37.394  0.00  0.00    +0.000 A 
ATOM     11  C   UNL     1      22.323   9.557  36.485  0.00  0.00    +0.000 A 
ATOM     12  C   UNL     1      23.671   9.390  36.295  0.00  0.00    +0.000 A 
ATOM     13  C   UNL     1      24.590  10.144  37.012  0.00  0.00    +0.000 A 
ATOM     14  N   UNL     1      25.990  10.012  36.860  0.00  0.00    +0.000 NA
ATOM     15  C   UNL     1      24.124  11.076  37.931  0.00  0.00    +0.000 A 
ATOM     16  C   UNL     1      22.744  11.215  38.094  0.00  0.00    +0.000 A 
ENDBRANCH   7  10
BRANCH   1  18
ATOM     17  C   UNL     1      17.452   7.043  40.970  0.00  0.00    +0.000 C 
ATOM     18  C   UNL     1      18.691   7.413  40.181  0.00  0.00    +0.000 C 
ATOM     19  C   UNL     1      19.827   6.478  40.609  0.00  0.00    +0.000 C 
ENDBRANCH   1  18
TORSDOF 2
ENDMDL
MODEL 8
REMARK VINA RESULT:      -5.8     20.342     21.619
REMARK  Name = 
REMARK  2 active torsions:
REMARK  status: ('A' for Active; 'I' for Inactive)
REMARK    1  A    between atoms: C_2  and  C_4
REMARK    2  A    between atoms: C_10  and  C_11
REMARK                            x       y       z     vdW  Elec       q    Type
REMARK                         _______ _______ _______ _____ _____    ______ ____
ROOT
ATOM      1  C   UNL     1      28.274  23.805  22.855  0.00  0.00    +0.000 C 
ATOM      2  C   UNL     1      26.691  23.427  22.828  0.00  0.00    +0.000 C 
ATOM      3  C   UNL     1      26.003  24.140  23.931  0.00  0.00    +0.000 C 
ATOM      4  C   UNL     1      26.077  22.946  25.101  0.00  0.00    +0.000 C 
ATOM      5  C   UNL     1      25.616  23.992  26.285  0.00  0.00    +0.000 C 
ATOM      6  C   UNL     1      27.648  23.174  25.351  0.00  0.00    +0.000 C 
ATOM      7  C   UNL     1      27.948  22.839  26.583  0.00  0.00    +0.000 C 
ATOM      8  C   UNL     1      28.525  23.628  24.396  0.00  0.00    +0.000 C 
ATOM      9  O   UNL     1      29.704  23.969  24.663  0.00  0.00    +0.000 OA
ENDROOT
BRANCH   7  10
ATOM     10  C   UNL     1      29.182  22.858  27.287  0.00  0.00    +0.000 A 
ATOM     11  C   UNL     1      30.172  21.889  27.161  0.00  0.00    +0.000 A 
ATOM     12  C   UNL     1      31.339  21.942  27.881  0.00  0.00    +0.000 A 
ATOM     13  C   UNL     1      31.579  22.978  28.773  0.00  0.00    +0.000 A 
ATOM     14  N   UNL     1      32.761  23.082  29.543  0.00  0.00    +0.000 NA
ATOM     15  C   UNL     1      30.615  23.967  28.929  0.00  0.00    +0.000 A 
ATOM     16  C   UNL     1      29.442  23.877  28.177  0.00  0.00    +0.000 A 
ENDBRANCH   7  10
BRANCH   1  18
ATOM     17  C   UNL     1      27.421  25.784  21.592  0.00  0.00    +0.000 C 
ATOM     18  C   UNL     1      28.040  25.433  22.929  0.00  0.00    +0.000 C 
ATOM     19  C   UNL     1      29.472  25.977  22.950  0.00  0.00    +0.000 C 
ENDBRANCH   1  18
TORSDOF 2
ENDMDL
MODEL 9
REMARK VINA RESULT:      -5.7     24.875     27.871
REMARK  Name = 
REMARK  2 active torsions:
REMARK  status: ('A' for Active; 'I' for Inactive)
REMARK    1  A    between atoms: C_2  and  C_4
REMARK    2  A    between atoms: C_10  and  C_11
REMARK                            x       y       z     vdW  Elec       q    Type
REMARK                         _______ _______ _______ _____ _____    ______ ____
ROOT
ATOM      1  C   UNL     1      -1.902  -3.078  23.514  0.00  0.00    +0.000 C 
ATOM      2  C   UNL     1      -2.311  -1.735  22.691  0.00  0.00    +0.000 C 
ATOM      3  C   UNL     1      -2.107  -1.973  21.241  0.00  0.00    +0.000 C 
ATOM      4  C   UNL     1      -0.553  -1.367  21.093  0.00  0.00    +0.000 C 
ATOM      5  C   UNL     1      -0.379  -2.011  19.589  0.00  0.00    +0.000 C 
ATOM      6  C   UNL     1       0.100  -2.632  21.837  0.00  0.00    +0.000 C 
ATOM      7  C   UNL     1       1.328  -2.806  21.408  0.00  0.00    +0.000 C 
ATOM      8  C   UNL     1      -0.542  -3.385  22.790  0.00  0.00    +0.000 C 
ATOM      9  O   UNL     1      -0.081  -4.471  23.222  0.00  0.00    +0.000 OA
ENDROOT
BRANCH   7  10
ATOM     10  C   UNL     1       2.312  -3.773  21.747  0.00  0.00    +0.000 A 
ATOM     11  C   UNL     1       3.183  -3.660  22.826  0.00  0.00    +0.000 A 
ATOM     12  C   UNL     1       4.132  -4.613  23.097  0.00  0.00    +0.000 A 
ATOM     13  C   UNL     1       4.260  -5.740  22.296  0.00  0.00    +0.000 A 
ATOM     14  N   UNL     1       5.222  -6.751  22.527  0.00  0.00    +0.000 NA
ATOM     15  C   UNL     1       3.410  -5.891  21.208  0.00  0.00    +0.000 A 
ATOM     16  C   UNL     1       2.457  -4.899  20.966  0.00  0.00    +0.000 A 
ENDBRANCH   7  10
BRANCH   1  18
ATOM     17  C   UNL     1      -4.217  -3.590  22.726  0.00  0.00    +0.000 C 
ATOM     18  C   UNL     1      -2.798  -4.103  22.587  0.00  0.00    +0.000 C 
ATOM     19  C   UNL     1      -2.691  -5.426  23.351  0.00  0.00    +0.000 C 
ENDBRANCH   1  18
TORSDOF 2
ENDMDL
MODEL 10
REMARK VINA RESULT:      -5.7     20.929     22.703
REMARK  Name = 
REMARK  2 active torsions:
REMARK  status: ('A' for Active; 'I' for Inactive)
REMARK    1  A    between atoms: C_2  and  C_4
REMARK    2  A    between atoms: C_10  and  C_11
REMARK                            x       y       z     vdW  Elec       q    Type
REMARK                         _______ _______ _______ _____ _____    ______ ____
ROOT
ATOM      1  C   UNL     1      21.636  10.529  39.136  0.00  0.00    +0.000 C 
ATOM      2  C   UNL     1      21.226   9.950  40.601  0.00  0.00    +0.000 C 
ATOM      3  C   UNL     1      20.622   8.605  40.440  0.00  0.00    +0.000 C 
ATOM      4  C   UNL     1      19.010   9.050  40.370  0.00  0.00    +0.000 C 
ATOM      5  C   UNL     1      18.556   7.553  39.859  0.00  0.00    +0.000 C 
ATOM      6  C   UNL     1      19.152   9.642  38.884  0.00  0.00    +0.000 C 
ATOM      7  C   UNL     1      17.998   9.555  38.266  0.00  0.00    +0.000 C 
ATOM      8  C   UNL     1      20.309  10.174  38.371  0.00  0.00    +0.000 C 
ATOM      9  O   UNL     1      20.446  10.462  37.156  0.00  0.00    +0.000 OA
ENDROOT
BRANCH   7  10
ATOM     10  C   UNL     1      17.606   9.933  36.954  0.00  0.00    +0.000 A 
ATOM     11  C   UNL     1      17.807   9.152  35.820  0.00  0.00    +0.000 A 
ATOM     12  C   UNL     1      17.429   9.572  34.570  0.00  0.00    +0.000 A 
ATOM     13  C   UNL     1      16.825  10.809  34.387  0.00  0.00    +0.000 A 
ATOM     14  N   UNL     1      16.419  11.294  33.122  0.00  0.00    +0.000 NA
ATOM     15  C   UNL     1      16.606  11.620  35.493  0.00  0.00    +0.000 A 
ATOM     16  C   UNL     1      17.004  11.155  36.748  0.00  0.00    +0.000 A 
ENDBRANCH   7  10
BRANCH   1  18
ATOM     17  C   UNL     1      23.597   9.066  39.640  0.00  0.00    +0.000 C 
ATOM     18  C   UNL     1      22.447   9.177  38.660  0.00  0.00    +0.000 C 
ATOM     19  C   UNL     1      23.016   9.589  37.299  0.00  0.00    +0.000 C 
ENDBRANCH   1  18
TORSDOF 2
ENDMDL
