MODEL 1
REMARK VINA RESULT:      -8.2      0.000      0.000
REMARK  Name = 
REMARK  7 active torsions:
REMARK  status: ('A' for Active; 'I' for Inactive)
REMARK    1  A    between atoms: C_2  and  C_4
REMARK    2  A    between atoms: C_4  and  O_5
REMARK    3  A    between atoms: O_5  and  C_6
REMARK    4  A    between atoms: C_9  and  C_10
REMARK    5  A    between atoms: C_20  and  O_21
REMARK    6  A    between atoms: O_21  and  C_22
REMARK    7  A    between atoms: C_22  and  C_23
REMARK                            x       y       z     vdW  Elec       q    Type
REMARK                         _______ _______ _______ _____ _____    ______ ____
ROOT
ATOM      1  C   UNL     1      36.119  -2.675  15.850  0.00  0.00    +0.000 C 
ATOM      2  N   UNL     1      36.573  -2.890  17.341  0.00  0.00    +0.000 NA
ATOM      3  C   UNL     1      37.651  -2.067  17.650  0.00  0.00    +0.000 C 
ATOM      4  C   UNL     1      38.894  -2.747  17.109  0.00  0.00    +0.000 C 
ATOM      5  C   UNL     1      38.697  -2.658  15.649  0.00  0.00    +0.000 A 
ATOM      6  C   UNL     1      37.480  -2.627  15.112  0.00  0.00    +0.000 A 
ATOM      7  N   UNL     1      37.636  -2.546  13.789  0.00  0.00    +0.000 NA
ATOM      8  C   UNL     1      38.958  -2.525  13.474  0.00  0.00    +0.000 A 
ATOM      9  C   UNL     1      39.696  -2.451  12.311  0.00  0.00    +0.000 A 
ATOM     10  C   UNL     1      41.075  -2.448  12.299  0.00  0.00    +0.000 A 
ATOM     11  C   UNL     1      41.769  -2.519  13.484  0.00  0.00    +0.000 A 
ATOM     12  C   UNL     1      41.053  -2.593  14.676  0.00  0.00    +0.000 A 
ATOM     13  C   UNL     1      39.679  -2.595  14.662  0.00  0.00    +0.000 A 
ENDROOT
BRANCH   1  17
ATOM     14  C   UNL     1      35.404   1.600  15.966  0.00  0.00    +0.000 A 
ATOM     15  C   UNL     1      34.861   0.791  16.931  0.00  0.00    +0.000 A 
ATOM     16  C   UNL     1      35.085  -0.563  16.899  0.00  0.00    +0.000 A 
ATOM     17  C   UNL     1      35.814  -1.100  15.953  0.00  0.00    +0.000 A 
ATOM     18  C   UNL     1      36.380  -0.323  14.961  0.00  0.00    +0.000 A 
ATOM     19  C   UNL     1      36.175   1.055  14.958  0.00  0.00    +0.000 A 
BRANCH  14  20
ATOM     20  O   UNL     1      35.186   3.000  15.979  0.00  0.00    +0.000 OA
BRANCH  20  21
ATOM     21  C   UNL     1      34.594   3.569  14.828  0.00  0.00    +0.000 C 
BRANCH  21  23
ATOM     22  C   UNL     1      34.645   5.919  13.989  0.00  0.00    +0.000 C 
ATOM     23  C   UNL     1      35.509   4.730  14.416  0.00  0.00    +0.000 C 
ATOM     24  C   UNL     1      36.399   4.309  13.262  0.00  0.00    +0.000 C 
ENDBRANCH  21  23
ENDBRANCH  20  21
ENDBRANCH  14  20
ENDBRANCH   1  17
BRANCH  11  25
ATOM     25  O   UNL     1      43.154  -2.522  13.570  0.00  0.00    +0.000 OA
BRANCH  25  26
ATOM     26  C   UNL     1      43.952  -1.397  13.762  0.00  0.00    +0.000 C 
BRANCH  26  27
ATOM     27  C   UNL     1      44.683  -1.357  15.030  0.00  0.00    +0.000 A 
ATOM     28  C   UNL     1      45.233  -2.505  15.549  0.00  0.00    +0.000 A 
ATOM     29  C   UNL     1      45.924  -2.502  16.736  0.00  0.00    +0.000 A 
ATOM     30  C   UNL     1      46.086  -1.338  17.445  0.00  0.00    +0.000 A 
ATOM     31  C   UNL     1      45.545  -0.175  16.948  0.00  0.00    +0.000 A 
ATOM     32  C   UNL     1      44.863  -0.192  15.770  0.00  0.00    +0.000 A 
ENDBRANCH  26  27
ENDBRANCH  25  26
ENDBRANCH  11  25
TORSDOF 7
ENDMDL
MODEL 2
REMARK VINA RESULT:      -8.0      4.177      6.992
REMARK  Name = 
REMARK  7 active torsions:
REMARK  status: ('A' for Active; 'I' for Inactive)
REMARK    1  A    between atoms: C_2  and  C_4
REMARK    2  A    between atoms: C_4  and  O_5
REMARK    3  A    between atoms: O_5  and  C_6
REMARK    4  A    between atoms: C_9  and  C_10
REMARK    5  A    between atoms: C_20  and  O_21
REMARK    6  A    between atoms: O_21  and  C_22
REMARK    7  A    between atoms: C_22  and  C_23
REMARK                            x       y       z     vdW  Elec       q    Type
REMARK                         _______ _______ _______ _____ _____    ______ ____
ROOT
ATOM      1  C   UNL     1      38.208   4.513  13.936  0.00  0.00    +0.000 C 
ATOM      2  N   UNL     1      36.644   4.650  13.825  0.00  0.00    +0.000 NA
ATOM      3  C   UNL     1      36.013   3.891  14.805  0.00  0.00    +0.000 C 
ATOM      4  C   UNL     1      35.984   2.460  14.303  0.00  0.00    +0.000 C 
ATOM      5  C   UNL     1      37.412   2.084  14.329  0.00  0.00    +0.000 A 
ATOM      6  C   UNL     1      38.372   2.990  14.168  0.00  0.00    +0.000 A 
ATOM      7  N   UNL     1      39.538   2.344  14.241  0.00  0.00    +0.000 NA
ATOM      8  C   UNL     1      39.326   1.018  14.450  0.00  0.00    +0.000 A 
ATOM      9  C   UNL     1      40.122  -0.098  14.605  0.00  0.00    +0.000 A 
ATOM     10  C   UNL     1      39.608  -1.361  14.812  0.00  0.00    +0.000 A 
ATOM     11  C   UNL     1      38.246  -1.543  14.871  0.00  0.00    +0.000 A 
ATOM     12  C   UNL     1      37.416  -0.436  14.719  0.00  0.00    +0.000 A 
ATOM     13  C   UNL     1      37.951   0.813  14.514  0.00  0.00    +0.000 A 
ENDROOT
BRANCH   1  17
ATOM     14  C   UNL     1      38.569   6.094  17.957  0.00  0.00    +0.000 A 
ATOM     15  C   UNL     1      38.677   4.744  17.743  0.00  0.00    +0.000 A 
ATOM     16  C   UNL     1      38.565   4.238  16.471  0.00  0.00    +0.000 A 
ATOM     17  C   UNL     1      38.352   5.031  15.451  0.00  0.00    +0.000 A 
ATOM     18  C   UNL     1      38.236   6.397  15.621  0.00  0.00    +0.000 A 
ATOM     19  C   UNL     1      38.344   6.948  16.896  0.00  0.00    +0.000 A 
BRANCH  14  20
ATOM     20  O   UNL     1      38.682   6.638  19.261  0.00  0.00    +0.000 OA
BRANCH  20  21
ATOM     21  C   UNL     1      39.485   7.792  19.409  0.00  0.00    +0.000 C 
BRANCH  21  23
ATOM     22  C   UNL     1      37.401   8.937  20.166  0.00  0.00    +0.000 C 
ATOM     23  C   UNL     1      38.847   8.604  20.543  0.00  0.00    +0.000 C 
ATOM     24  C   UNL     1      39.621   9.889  20.765  0.00  0.00    +0.000 C 
ENDBRANCH  21  23
ENDBRANCH  20  21
ENDBRANCH  14  20
ENDBRANCH   1  17
BRANCH  11  25
ATOM     25  O   UNL     1      37.639  -2.774  15.075  0.00  0.00    +0.000 OA
BRANCH  25  26
ATOM     26  C   UNL     1      37.304  -3.312  16.315  0.00  0.00    +0.000 C 
BRANCH  26  27
ATOM     27  C   UNL     1      36.809  -2.351  17.302  0.00  0.00    +0.000 A 
ATOM     28  C   UNL     1      35.509  -1.909  17.246  0.00  0.00    +0.000 A 
ATOM     29  C   UNL     1      35.012  -1.008  18.156  0.00  0.00    +0.000 A 
ATOM     30  C   UNL     1      35.811  -0.518  19.159  0.00  0.00    +0.000 A 
ATOM     31  C   UNL     1      37.117  -0.945  19.237  0.00  0.00    +0.000 A 
ATOM     32  C   UNL     1      37.596  -1.839  18.329  0.00  0.00    +0.000 A 
ENDBRANCH  26  27
ENDBRANCH  25  26
ENDBRANCH  11  25
TORSDOF 7
ENDMDL
MODEL 3
REMARK VINA RESULT:      -7.6      2.604      3.016
REMARK  Name = 
REMARK  7 active torsions:
REMARK  status: ('A' for Active; 'I' for Inactive)
REMARK    1  A    between atoms: C_2  and  C_4
REMARK    2  A    between atoms: C_4  and  O_5
REMARK    3  A    between atoms: O_5  and  C_6
REMARK    4  A    between atoms: C_9  and  C_10
REMARK    5  A    between atoms: C_20  and  O_21
REMARK    6  A    between atoms: O_21  and  C_22
REMARK    7  A    between atoms: C_22  and  C_23
REMARK                            x       y       z     vdW  Elec       q    Type
REMARK                         _______ _______ _______ _____ _____    ______ ____
ROOT
ATOM      1  C   UNL     1      36.776  -0.234  14.532  0.00  0.00    +0.000 C 
ATOM      2  N   UNL     1      36.575  -1.125  15.815  0.00  0.00    +0.000 NA
ATOM      3  C   UNL     1      37.680  -1.032  16.654  0.00  0.00    +0.000 C 
ATOM      4  C   UNL     1      38.737  -1.966  16.097  0.00  0.00    +0.000 C 
ATOM      5  C   UNL     1      39.110  -1.306  14.831  0.00  0.00    +0.000 A 
ATOM      6  C   UNL     1      38.245  -0.552  14.158  0.00  0.00    +0.000 A 
ATOM      7  N   UNL     1      38.876  -0.104  13.071  0.00  0.00    +0.000 NA
ATOM      8  C   UNL     1      40.153  -0.570  13.045  0.00  0.00    +0.000 A 
ATOM      9  C   UNL     1      41.235  -0.443  12.199  0.00  0.00    +0.000 A 
ATOM     10  C   UNL     1      42.448  -1.053  12.440  0.00  0.00    +0.000 A 
ATOM     11  C   UNL     1      42.613  -1.827  13.565  0.00  0.00    +0.000 A 
ATOM     12  C   UNL     1      41.539  -1.974  14.439  0.00  0.00    +0.000 A 
ATOM     13  C   UNL     1      40.340  -1.356  14.178  0.00  0.00    +0.000 A 
ENDROOT
BRANCH   1  17
ATOM     14  C   UNL     1      37.502   3.587  16.449  0.00  0.00    +0.000 A 
ATOM     15  C   UNL     1      36.474   2.790  16.884  0.00  0.00    +0.000 A 
ATOM     16  C   UNL     1      36.241   1.578  16.281  0.00  0.00    +0.000 A 
ATOM     17  C   UNL     1      36.989   1.169  15.287  0.00  0.00    +0.000 A 
ATOM     18  C   UNL     1      38.034   1.939  14.817  0.00  0.00    +0.000 A 
ATOM     19  C   UNL     1      38.303   3.174  15.402  0.00  0.00    +0.000 A 
BRANCH  14  20
ATOM     20  O   UNL     1      37.761   4.840  17.056  0.00  0.00    +0.000 OA
BRANCH  20  21
ATOM     21  C   UNL     1      39.076   5.069  17.523  0.00  0.00    +0.000 C 
BRANCH  21  23
ATOM     22  C   UNL     1      38.250   7.205  18.514  0.00  0.00    +0.000 C 
ATOM     23  C   UNL     1      38.926   5.868  18.824  0.00  0.00    +0.000 C 
ATOM     24  C   UNL     1      40.288   6.120  19.441  0.00  0.00    +0.000 C 
ENDBRANCH  21  23
ENDBRANCH  20  21
ENDBRANCH  14  20
ENDBRANCH   1  17
BRANCH  11  25
ATOM     25  O   UNL     1      43.794  -2.478  13.889  0.00  0.00    +0.000 OA
BRANCH  25  26
ATOM     26  C   UNL     1      45.027  -1.861  14.087  0.00  0.00    +0.000 C 
BRANCH  26  27
ATOM     27  C   UNL     1      45.380  -1.604  15.485  0.00  0.00    +0.000 A 
ATOM     28  C   UNL     1      45.234  -0.344  16.015  0.00  0.00    +0.000 A 
ATOM     29  C   UNL     1      45.556  -0.069  17.321  0.00  0.00    +0.000 A 
ATOM     30  C   UNL     1      46.039  -1.056  18.143  0.00  0.00    +0.000 A 
ATOM     31  C   UNL     1      46.195  -2.326  17.637  0.00  0.00    +0.000 A 
ATOM     32  C   UNL     1      45.871  -2.586  16.341  0.00  0.00    +0.000 A 
ENDBRANCH  26  27
ENDBRANCH  25  26
ENDBRANCH  11  25
TORSDOF 7
ENDMDL
MODEL 4
REMARK VINA RESULT:      -7.6      3.818      6.797
REMARK  Name = 
REMARK  7 active torsions:
REMARK  status: ('A' for Active; 'I' for Inactive)
REMARK    1  A    between atoms: C_2  and  C_4
REMARK    2  A    between atoms: C_4  and  O_5
REMARK    3  A    between atoms: O_5  and  C_6
REMARK    4  A    between atoms: C_9  and  C_10
REMARK    5  A    between atoms: C_20  and  O_21
REMARK    6  A    between atoms: O_21  and  C_22
REMARK    7  A    between atoms: C_22  and  C_23
REMARK                            x       y       z     vdW  Elec       q    Type
REMARK                         _______ _______ _______ _____ _____    ______ ____
ROOT
ATOM      1  C   UNL     1      39.798   2.855  12.665  0.00  0.00    +0.000 C 
ATOM      2  N   UNL     1      38.442   3.201  11.943  0.00  0.00    +0.000 NA
ATOM      3  C   UNL     1      37.360   2.912  12.768  0.00  0.00    +0.000 C 
ATOM      4  C   UNL     1      37.108   1.421  12.658  0.00  0.00    +0.000 C 
ATOM      5  C   UNL     1      38.302   0.847  13.310  0.00  0.00    +0.000 A 
ATOM      6  C   UNL     1      39.469   1.483  13.306  0.00  0.00    +0.000 A 
ATOM      7  N   UNL     1      40.338   0.715  13.967  0.00  0.00    +0.000 NA
ATOM      8  C   UNL     1      39.726  -0.419  14.398  0.00  0.00    +0.000 A 
ATOM      9  C   UNL     1      40.106  -1.539  15.108  0.00  0.00    +0.000 A 
ATOM     10  C   UNL     1      39.236  -2.566  15.408  0.00  0.00    +0.000 A 
ATOM     11  C   UNL     1      37.927  -2.495  14.993  0.00  0.00    +0.000 A 
ATOM     12  C   UNL     1      37.512  -1.377  14.275  0.00  0.00    +0.000 A 
ATOM     13  C   UNL     1      38.397  -0.366  13.988  0.00  0.00    +0.000 A 
ENDROOT
BRANCH   1  17
ATOM     14  C   UNL     1      39.170   5.265  16.214  0.00  0.00    +0.000 A 
ATOM     15  C   UNL     1      39.788   5.812  15.118  0.00  0.00    +0.000 A 
ATOM     16  C   UNL     1      39.988   5.053  13.992  0.00  0.00    +0.000 A 
ATOM     17  C   UNL     1      39.597   3.804  13.946  0.00  0.00    +0.000 A 
ATOM     18  C   UNL     1      38.972   3.213  15.027  0.00  0.00    +0.000 A 
ATOM     19  C   UNL     1      38.750   3.950  16.188  0.00  0.00    +0.000 A 
BRANCH  14  20
ATOM     20  O   UNL     1      38.954   6.030  17.387  0.00  0.00    +0.000 OA
BRANCH  20  21
ATOM     21  C   UNL     1      39.001   5.342  18.621  0.00  0.00    +0.000 C 
BRANCH  21  23
ATOM     22  C   UNL     1      39.304   7.370  20.042  0.00  0.00    +0.000 C 
ATOM     23  C   UNL     1      39.993   6.118  19.496  0.00  0.00    +0.000 C 
ATOM     24  C   UNL     1      41.206   6.521  18.680  0.00  0.00    +0.000 C 
ENDBRANCH  21  23
ENDBRANCH  20  21
ENDBRANCH  14  20
ENDBRANCH   1  17
BRANCH  11  25
ATOM     25  O   UNL     1      36.981  -3.478  15.248  0.00  0.00    +0.000 OA
BRANCH  25  26
ATOM     26  C   UNL     1      36.439  -3.772  16.496  0.00  0.00    +0.000 C 
BRANCH  26  27
ATOM     27  C   UNL     1      36.153  -2.613  17.343  0.00  0.00    +0.000 A 
ATOM     28  C   UNL     1      36.978  -2.304  18.398  0.00  0.00    +0.000 A 
ATOM     29  C   UNL     1      36.738  -1.224  19.211  0.00  0.00    +0.000 A 
ATOM     30  C   UNL     1      35.653  -0.413  18.991  0.00  0.00    +0.000 A 
ATOM     31  C   UNL     1      34.810  -0.700  17.942  0.00  0.00    +0.000 A 
ATOM     32  C   UNL     1      35.060  -1.773  17.143  0.00  0.00    +0.000 A 
ENDBRANCH  26  27
ENDBRANCH  25  26
ENDBRANCH  11  25
TORSDOF 7
ENDMDL
MODEL 5
REMARK VINA RESULT:      -7.6      4.300      7.846
REMARK  Name = 
REMARK  7 active torsions:
REMARK  status: ('A' for Active; 'I' for Inactive)
REMARK    1  A    between atoms: C_2  and  C_4
REMARK    2  A    between atoms: C_4  and  O_5
REMARK    3  A    between atoms: O_5  and  C_6
REMARK    4  A    between atoms: C_9  and  C_10
REMARK    5  A    between atoms: C_20  and  O_21
REMARK    6  A    between atoms: O_21  and  C_22
REMARK    7  A    between atoms: C_22  and  C_23
REMARK                            x       y       z     vdW  Elec       q    Type
REMARK                         _______ _______ _______ _____ _____    ______ ____
ROOT
ATOM      1  C   UNL     1      37.144   4.204  13.528  0.00  0.00    +0.000 C 
ATOM      2  N   UNL     1      35.616   4.572  13.611  0.00  0.00    +0.000 NA
ATOM      3  C   UNL     1      35.087   4.199  14.842  0.00  0.00    +0.000 C 
ATOM      4  C   UNL     1      34.787   2.715  14.761  0.00  0.00    +0.000 C 
ATOM      5  C   UNL     1      36.136   2.121  14.682  0.00  0.00    +0.000 A 
ATOM      6  C   UNL     1      37.156   2.782  14.142  0.00  0.00    +0.000 A 
ATOM      7  N   UNL     1      38.226   1.986  14.220  0.00  0.00    +0.000 NA
ATOM      8  C   UNL     1      37.892   0.809  14.812  0.00  0.00    +0.000 A 
ATOM      9  C   UNL     1      38.556  -0.352  15.151  0.00  0.00    +0.000 A 
ATOM     10  C   UNL     1      37.935  -1.417  15.767  0.00  0.00    +0.000 A 
ATOM     11  C   UNL     1      36.595  -1.345  16.070  0.00  0.00    +0.000 A 
ATOM     12  C   UNL     1      35.896  -0.186  15.743  0.00  0.00    +0.000 A 
ATOM     13  C   UNL     1      36.537   0.863  15.128  0.00  0.00    +0.000 A 
ENDROOT
BRANCH   1  17
ATOM     14  C   UNL     1      38.504   6.320  17.060  0.00  0.00    +0.000 A 
ATOM     15  C   UNL     1      37.984   7.022  16.002  0.00  0.00    +0.000 A 
ATOM     16  C   UNL     1      37.551   6.356  14.882  0.00  0.00    +0.000 A 
ATOM     17  C   UNL     1      37.629   5.051  14.805  0.00  0.00    +0.000 A 
ATOM     18  C   UNL     1      38.146   4.305  15.847  0.00  0.00    +0.000 A 
ATOM     19  C   UNL     1      38.596   4.944  17.000  0.00  0.00    +0.000 A 
BRANCH  14  20
ATOM     20  O   UNL     1      38.957   6.987  18.225  0.00  0.00    +0.000 OA
BRANCH  20  21
ATOM     21  C   UNL     1      39.392   6.178  19.300  0.00  0.00    +0.000 C 
BRANCH  21  23
ATOM     22  C   UNL     1      40.377   8.461  19.521  0.00  0.00    +0.000 C 
ATOM     23  C   UNL     1      40.292   7.074  20.162  0.00  0.00    +0.000 C 
ATOM     24  C   UNL     1      41.681   6.476  20.262  0.00  0.00    +0.000 C 
ENDBRANCH  21  23
ENDBRANCH  20  21
ENDBRANCH  14  20
ENDBRANCH   1  17
BRANCH  11  25
ATOM     25  O   UNL     1      35.887  -2.364  16.689  0.00  0.00    +0.000 OA
BRANCH  25  26
ATOM     26  C   UNL     1      36.239  -3.711  16.681  0.00  0.00    +0.000 C 
BRANCH  26  27
ATOM     27  C   UNL     1      35.391  -4.575  15.857  0.00  0.00    +0.000 A 
ATOM     28  C   UNL     1      34.596  -4.033  14.876  0.00  0.00    +0.000 A 
ATOM     29  C   UNL     1      33.790  -4.814  14.085  0.00  0.00    +0.000 A 
ATOM     30  C   UNL     1      33.755  -6.176  14.256  0.00  0.00    +0.000 A 
ATOM     31  C   UNL     1      34.542  -6.744  15.231  0.00  0.00    +0.000 A 
ATOM     32  C   UNL     1      35.337  -5.958  16.007  0.00  0.00    +0.000 A 
ENDBRANCH  26  27
ENDBRANCH  25  26
ENDBRANCH  11  25
TORSDOF 7
ENDMDL
MODEL 6
REMARK VINA RESULT:      -7.5      1.769      2.543
REMARK  Name = 
REMARK  7 active torsions:
REMARK  status: ('A' for Active; 'I' for Inactive)
REMARK    1  A    between atoms: C_2  and  C_4
REMARK    2  A    between atoms: C_4  and  O_5
REMARK    3  A    between atoms: O_5  and  C_6
REMARK    4  A    between atoms: C_9  and  C_10
REMARK    5  A    between atoms: C_20  and  O_21
REMARK    6  A    between atoms: O_21  and  C_22
REMARK    7  A    between atoms: C_22  and  C_23
REMARK                            x       y       z     vdW  Elec       q    Type
REMARK                         _______ _______ _______ _____ _____    ______ ____
ROOT
ATOM      1  C   UNL     1      36.114  -2.523  15.858  0.00  0.00    +0.000 C 
ATOM      2  N   UNL     1      36.651  -2.617  17.335  0.00  0.00    +0.000 NA
ATOM      3  C   UNL     1      37.783  -1.826  17.496  0.00  0.00    +0.000 C 
ATOM      4  C   UNL     1      38.956  -2.621  16.955  0.00  0.00    +0.000 C 
ATOM      5  C   UNL     1      38.672  -2.663  15.508  0.00  0.00    +0.000 A 
ATOM      6  C   UNL     1      37.427  -2.619  15.042  0.00  0.00    +0.000 A 
ATOM      7  N   UNL     1      37.503  -2.675  13.710  0.00  0.00    +0.000 NA
ATOM      8  C   UNL     1      38.802  -2.755  13.318  0.00  0.00    +0.000 A 
ATOM      9  C   UNL     1      39.469  -2.834  12.113  0.00  0.00    +0.000 A 
ATOM     10  C   UNL     1      40.843  -2.905  12.021  0.00  0.00    +0.000 A 
ATOM     11  C   UNL     1      41.605  -2.898  13.166  0.00  0.00    +0.000 A 
ATOM     12  C   UNL     1      40.963  -2.818  14.398  0.00  0.00    +0.000 A 
ATOM     13  C   UNL     1      39.592  -2.748  14.464  0.00  0.00    +0.000 A 
ENDROOT
BRANCH   1  17
ATOM     14  C   UNL     1      35.414   1.755  15.926  0.00  0.00    +0.000 A 
ATOM     15  C   UNL     1      36.122   1.196  14.893  0.00  0.00    +0.000 A 
ATOM     16  C   UNL     1      36.346  -0.159  14.866  0.00  0.00    +0.000 A 
ATOM     17  C   UNL     1      35.891  -0.932  15.821  0.00  0.00    +0.000 A 
ATOM     18  C   UNL     1      35.174  -0.411  16.880  0.00  0.00    +0.000 A 
ATOM     19  C   UNL     1      34.926   0.958  16.942  0.00  0.00    +0.000 A 
BRANCH  14  20
ATOM     20  O   UNL     1      35.172   3.150  15.973  0.00  0.00    +0.000 OA
BRANCH  20  21
ATOM     21  C   UNL     1      34.818   3.783  14.760  0.00  0.00    +0.000 C 
BRANCH  21  23
ATOM     22  C   UNL     1      36.455   4.581  13.054  0.00  0.00    +0.000 C 
ATOM     23  C   UNL     1      35.932   4.798  14.475  0.00  0.00    +0.000 C 
ATOM     24  C   UNL     1      37.067   4.620  15.465  0.00  0.00    +0.000 C 
ENDBRANCH  21  23
ENDBRANCH  20  21
ENDBRANCH  14  20
ENDBRANCH   1  17
BRANCH  11  25
ATOM     25  O   UNL     1      42.991  -2.965  13.171  0.00  0.00    +0.000 OA
BRANCH  25  26
ATOM     26  C   UNL     1      43.787  -3.292  12.076  0.00  0.00    +0.000 C 
BRANCH  26  27
ATOM     27  C   UNL     1      45.044  -3.971  12.397  0.00  0.00    +0.000 A 
ATOM     28  C   UNL     1      45.688  -3.713  13.583  0.00  0.00    +0.000 A 
ATOM     29  C   UNL     1      46.868  -4.331  13.914  0.00  0.00    +0.000 A 
ATOM     30  C   UNL     1      47.445  -5.236  13.058  0.00  0.00    +0.000 A 
ATOM     31  C   UNL     1      46.821  -5.512  11.864  0.00  0.00    +0.000 A 
ATOM     32  C   UNL     1      45.651  -4.892  11.548  0.00  0.00    +0.000 A 
ENDBRANCH  26  27
ENDBRANCH  25  26
ENDBRANCH  11  25
TORSDOF 7
ENDMDL
MODEL 7
REMARK VINA RESULT:      -7.4     28.403     32.139
REMARK  Name = 
REMARK  7 active torsions:
REMARK  status: ('A' for Active; 'I' for Inactive)
REMARK    1  A    between atoms: C_2  and  C_4
REMARK    2  A    between atoms: C_4  and  O_5
REMARK    3  A    between atoms: O_5  and  C_6
REMARK    4  A    between atoms: C_9  and  C_10
REMARK    5  A    between atoms: C_20  and  O_21
REMARK    6  A    between atoms: O_21  and  C_22
REMARK    7  A    between atoms: C_22  and  C_23
REMARK                            x       y       z     vdW  Elec       q    Type
REMARK                         _______ _______ _______ _____ _____    ______ ____
ROOT
ATOM      1  C   UNL     1      27.499  15.509  37.883  0.00  0.00    +0.000 C 
ATOM      2  N   UNL     1      27.918  16.952  38.353  0.00  0.00    +0.000 NA
ATOM      3  C   UNL     1      26.885  17.858  38.135  0.00  0.00    +0.000 C 
ATOM      4  C   UNL     1      26.946  18.251  36.672  0.00  0.00    +0.000 C 
ATOM      5  C   UNL     1      26.563  17.000  35.989  0.00  0.00    +0.000 A 
ATOM      6  C   UNL     1      26.809  15.810  36.529  0.00  0.00    +0.000 A 
ATOM      7  N   UNL     1      26.349  14.889  35.678  0.00  0.00    +0.000 NA
ATOM      8  C   UNL     1      25.804  15.490  34.588  0.00  0.00    +0.000 A 
ATOM      9  C   UNL     1      25.194  15.066  33.426  0.00  0.00    +0.000 A 
ATOM     10  C   UNL     1      24.723  15.937  32.467  0.00  0.00    +0.000 A 
ATOM     11  C   UNL     1      24.853  17.293  32.652  0.00  0.00    +0.000 A 
ATOM     12  C   UNL     1      25.463  17.754  33.816  0.00  0.00    +0.000 A 
ATOM     13  C   UNL     1      25.925  16.867  34.758  0.00  0.00    +0.000 A 
ENDROOT
BRANCH   1  17
ATOM     14  C   UNL     1      24.111  15.111  40.559  0.00  0.00    +0.000 A 
ATOM     15  C   UNL     1      23.913  15.107  39.202  0.00  0.00    +0.000 A 
ATOM     16  C   UNL     1      24.982  15.232  38.351  0.00  0.00    +0.000 A 
ATOM     17  C   UNL     1      26.200  15.357  38.817  0.00  0.00    +0.000 A 
ATOM     18  C   UNL     1      26.445  15.367  40.176  0.00  0.00    +0.000 A 
ATOM     19  C   UNL     1      25.386  15.242  41.072  0.00  0.00    +0.000 A 
BRANCH  14  20
ATOM     20  O   UNL     1      23.022  14.983  41.457  0.00  0.00    +0.000 OA
BRANCH  20  21
ATOM     21  C   UNL     1      21.730  14.895  40.890  0.00  0.00    +0.000 C 
BRANCH  21  23
ATOM     22  C   UNL     1      21.556  14.835  43.379  0.00  0.00    +0.000 C 
ATOM     23  C   UNL     1      20.758  14.798  42.074  0.00  0.00    +0.000 C 
ATOM     24  C   UNL     1      19.970  13.504  41.998  0.00  0.00    +0.000 C 
ENDBRANCH  21  23
ENDBRANCH  20  21
ENDBRANCH  14  20
ENDBRANCH   1  17
BRANCH  11  25
ATOM     25  O   UNL     1      24.409  18.244  31.744  0.00  0.00    +0.000 OA
BRANCH  25  26
ATOM     26  C   UNL     1      23.225  18.969  31.849  0.00  0.00    +0.000 C 
BRANCH  26  27
ATOM     27  C   UNL     1      23.389  20.413  32.027  0.00  0.00    +0.000 A 
ATOM     28  C   UNL     1      22.299  21.247  31.962  0.00  0.00    +0.000 A 
ATOM     29  C   UNL     1      22.418  22.605  32.124  0.00  0.00    +0.000 A 
ATOM     30  C   UNL     1      23.645  23.175  32.359  0.00  0.00    +0.000 A 
ATOM     31  C   UNL     1      24.752  22.362  32.428  0.00  0.00    +0.000 A 
ATOM     32  C   UNL     1      24.620  21.017  32.266  0.00  0.00    +0.000 A 
ENDBRANCH  26  27
ENDBRANCH  25  26
ENDBRANCH  11  25
TORSDOF 7
ENDMDL
MODEL 8
REMARK VINA RESULT:      -7.4      1.626      2.549
REMARK  Name = 
REMARK  7 active torsions:
REMARK  status: ('A' for Active; 'I' for Inactive)
REMARK    1  A    between atoms: C_2  and  C_4
REMARK    2  A    between atoms: C_4  and  O_5
REMARK    3  A    between atoms: O_5  and  C_6
REMARK    4  A    between atoms: C_9  and  C_10
REMARK    5  A    between atoms: C_20  and  O_21
REMARK    6  A    between atoms: O_21  and  C_22
REMARK    7  A    between atoms: C_22  and  C_23
REMARK                            x       y       z     vdW  Elec       q    Type
REMARK                         _______ _______ _______ _____ _____    ______ ____
ROOT
ATOM      1  C   UNL     1      35.954  -2.466  16.114  0.00  0.00    +0.000 C 
ATOM      2  N   UNL     1      36.497  -2.554  17.589  0.00  0.00    +0.000 NA
ATOM      3  C   UNL     1      37.627  -1.759  17.744  0.00  0.00    +0.000 C 
ATOM      4  C   UNL     1      38.801  -2.551  17.200  0.00  0.00    +0.000 C 
ATOM      5  C   UNL     1      38.511  -2.598  15.754  0.00  0.00    +0.000 A 
ATOM      6  C   UNL     1      37.264  -2.560  15.293  0.00  0.00    +0.000 A 
ATOM      7  N   UNL     1      37.334  -2.619  13.961  0.00  0.00    +0.000 NA
ATOM      8  C   UNL     1      38.632  -2.695  13.564  0.00  0.00    +0.000 A 
ATOM      9  C   UNL     1      39.293  -2.775  12.356  0.00  0.00    +0.000 A 
ATOM     10  C   UNL     1      40.667  -2.841  12.258  0.00  0.00    +0.000 A 
ATOM     11  C   UNL     1      41.435  -2.829  13.399  0.00  0.00    +0.000 A 
ATOM     12  C   UNL     1      40.797  -2.748  14.634  0.00  0.00    +0.000 A 
ATOM     13  C   UNL     1      39.426  -2.682  14.706  0.00  0.00    +0.000 A 
ENDROOT
BRANCH   1  17
ATOM     14  C   UNL     1      35.436   1.830  15.836  0.00  0.00    +0.000 A 
ATOM     15  C   UNL     1      34.916   1.148  16.906  0.00  0.00    +0.000 A 
ATOM     16  C   UNL     1      35.078  -0.212  17.000  0.00  0.00    +0.000 A 
ATOM     17  C   UNL     1      35.725  -0.875  16.074  0.00  0.00    +0.000 A 
ATOM     18  C   UNL     1      36.264  -0.229  14.979  0.00  0.00    +0.000 A 
ATOM     19  C   UNL     1      36.121   1.150  14.848  0.00  0.00    +0.000 A 
BRANCH  14  20
ATOM     20  O   UNL     1      35.280   3.234  15.719  0.00  0.00    +0.000 OA
BRANCH  20  21
ATOM     21  C   UNL     1      36.034   3.883  14.715  0.00  0.00    +0.000 C 
BRANCH  21  23
ATOM     22  C   UNL     1      37.270   6.047  14.846  0.00  0.00    +0.000 C 
ATOM     23  C   UNL     1      37.143   4.647  15.451  0.00  0.00    +0.000 C 
ATOM     24  C   UNL     1      38.463   3.913  15.314  0.00  0.00    +0.000 C 
ENDBRANCH  21  23
ENDBRANCH  20  21
ENDBRANCH  14  20
ENDBRANCH   1  17
BRANCH  11  25
ATOM     25  O   UNL     1      42.821  -2.892  13.399  0.00  0.00    +0.000 OA
BRANCH  25  26
ATOM     26  C   UNL     1      43.676  -1.835  13.698  0.00  0.00    +0.000 C 
BRANCH  26  27
ATOM     27  C   UNL     1      43.450  -0.609  12.929  0.00  0.00    +0.000 A 
ATOM     28  C   UNL     1      42.955   0.514  13.547  0.00  0.00    +0.000 A 
ATOM     29  C   UNL     1      42.732   1.679  12.855  0.00  0.00    +0.000 A 
ATOM     30  C   UNL     1      43.000   1.755  11.511  0.00  0.00    +0.000 A 
ATOM     31  C   UNL     1      43.497   0.644  10.869  0.00  0.00    +0.000 A 
ATOM     32  C   UNL     1      43.714  -0.505  11.567  0.00  0.00    +0.000 A 
ENDBRANCH  26  27
ENDBRANCH  25  26
ENDBRANCH  11  25
TORSDOF 7
ENDMDL
MODEL 9
REMARK VINA RESULT:      -7.3     18.778     25.180
REMARK  Name = 
REMARK  7 active torsions:
REMARK  status: ('A' for Active; 'I' for Inactive)
REMARK    1  A    between atoms: C_2  and  C_4
REMARK    2  A    between atoms: C_4  and  O_5
REMARK    3  A    between atoms: O_5  and  C_6
REMARK    4  A    between atoms: C_9  and  C_10
REMARK    5  A    between atoms: C_20  and  O_21
REMARK    6  A    between atoms: O_21  and  C_22
REMARK    7  A    between atoms: C_22  and  C_23
REMARK                            x       y       z     vdW  Elec       q    Type
REMARK                         _______ _______ _______ _____ _____    ______ ____
ROOT
ATOM      1  C   UNL     1      27.864  17.866  21.524  0.00  0.00    +0.000 C 
ATOM      2  N   UNL     1      27.708  16.306  21.660  0.00  0.00    +0.000 NA
ATOM      3  C   UNL     1      26.929  15.799  20.625  0.00  0.00    +0.000 C 
ATOM      4  C   UNL     1      25.481  16.038  21.006  0.00  0.00    +0.000 C 
ATOM      5  C   UNL     1      25.372  17.508  20.937  0.00  0.00    +0.000 A 
ATOM      6  C   UNL     1      26.420  18.295  21.165  0.00  0.00    +0.000 A 
ATOM      7  N   UNL     1      26.002  19.556  21.029  0.00  0.00    +0.000 NA
ATOM      8  C   UNL     1      24.681  19.580  20.712  0.00  0.00    +0.000 A 
ATOM      9  C   UNL     1      23.742  20.559  20.458  0.00  0.00    +0.000 A 
ATOM     10  C   UNL     1      22.429  20.274  20.151  0.00  0.00    +0.000 A 
ATOM     11  C   UNL     1      22.010  18.965  20.088  0.00  0.00    +0.000 A 
ATOM     12  C   UNL     1      22.933  17.954  20.339  0.00  0.00    +0.000 A 
ATOM     13  C   UNL     1      24.238  18.262  20.642  0.00  0.00    +0.000 A 
ENDROOT
BRANCH   1  17
ATOM     14  C   UNL     1      29.797  17.827  17.643  0.00  0.00    +0.000 A 
ATOM     15  C   UNL     1      28.514  18.298  17.762  0.00  0.00    +0.000 A 
ATOM     16  C   UNL     1      27.898  18.314  18.989  0.00  0.00    +0.000 A 
ATOM     17  C   UNL     1      28.520  17.880  20.057  0.00  0.00    +0.000 A 
ATOM     18  C   UNL     1      29.812  17.397  19.983  0.00  0.00    +0.000 A 
ATOM     19  C   UNL     1      30.471  17.365  18.756  0.00  0.00    +0.000 A 
BRANCH  14  20
ATOM     20  O   UNL     1      30.452  17.802  16.387  0.00  0.00    +0.000 OA
BRANCH  20  21
ATOM     21  C   UNL     1      30.318  16.625  15.616  0.00  0.00    +0.000 C 
BRANCH  21  23
ATOM     22  C   UNL     1      31.373  15.646  13.577  0.00  0.00    +0.000 C 
ATOM     23  C   UNL     1      31.628  16.488  14.829  0.00  0.00    +0.000 C 
ATOM     24  C   UNL     1      32.683  15.815  15.686  0.00  0.00    +0.000 C 
ENDBRANCH  21  23
ENDBRANCH  20  21
ENDBRANCH  14  20
ENDBRANCH   1  17
BRANCH  11  25
ATOM     25  O   UNL     1      20.710  18.584  19.787  0.00  0.00    +0.000 OA
BRANCH  25  26
ATOM     26  C   UNL     1      20.322  17.863  18.661  0.00  0.00    +0.000 C 
BRANCH  26  27
ATOM     27  C   UNL     1      20.073  18.662  17.461  0.00  0.00    +0.000 A 
ATOM     28  C   UNL     1      18.807  19.120  17.182  0.00  0.00    +0.000 A 
ATOM     29  C   UNL     1      18.540  19.872  16.065  0.00  0.00    +0.000 A 
ATOM     30  C   UNL     1      19.543  20.192  15.184  0.00  0.00    +0.000 A 
ATOM     31  C   UNL     1      20.819  19.746  15.439  0.00  0.00    +0.000 A 
ATOM     32  C   UNL     1      21.071  19.002  16.551  0.00  0.00    +0.000 A 
ENDBRANCH  26  27
ENDBRANCH  25  26
ENDBRANCH  11  25
TORSDOF 7
ENDMDL
MODEL 10
REMARK VINA RESULT:      -7.3     11.588     14.647
REMARK  Name = 
REMARK  7 active torsions:
REMARK  status: ('A' for Active; 'I' for Inactive)
REMARK    1  A    between atoms: C_2  and  C_4
REMARK    2  A    between atoms: C_4  and  O_5
REMARK    3  A    between atoms: O_5  and  C_6
REMARK    4  A    between atoms: C_9  and  C_10
REMARK    5  A    between atoms: C_20  and  O_21
REMARK    6  A    between atoms: O_21  and  C_22
REMARK    7  A    between atoms: C_22  and  C_23
REMARK                            x       y       z     vdW  Elec       q    Type
REMARK                         _______ _______ _______ _____ _____    ______ ____
ROOT
ATOM      1  C   UNL     1      45.805   6.122  26.619  0.00  0.00    +0.000 C 
ATOM      2  N   UNL     1      45.738   7.599  27.158  0.00  0.00    +0.000 NA
ATOM      3  C   UNL     1      44.523   8.189  26.824  0.00  0.00    +0.000 C 
ATOM      4  C   UNL     1      44.640   8.655  25.386  0.00  0.00    +0.000 C 
ATOM      5  C   UNL     1      44.711   7.381  24.643  0.00  0.00    +0.000 A 
ATOM      6  C   UNL     1      45.222   6.283  25.193  0.00  0.00    +0.000 A 
ATOM      7  N   UNL     1      45.146   5.313  24.278  0.00  0.00    +0.000 NA
ATOM      8  C   UNL     1      44.583   5.790  23.137  0.00  0.00    +0.000 A 
ATOM      9  C   UNL     1      44.260   5.268  21.901  0.00  0.00    +0.000 A 
ATOM     10  C   UNL     1      43.675   6.018  20.902  0.00  0.00    +0.000 A 
ATOM     11  C   UNL     1      43.391   7.345  21.121  0.00  0.00    +0.000 A 
ATOM     12  C   UNL     1      43.704   7.901  22.359  0.00  0.00    +0.000 A 
ATOM     13  C   UNL     1      44.286   7.134  23.339  0.00  0.00    +0.000 A 
ENDROOT
BRANCH   1  17
ATOM     14  C   UNL     1      42.389   4.640  28.840  0.00  0.00    +0.000 A 
ATOM     15  C   UNL     1      42.318   4.756  27.475  0.00  0.00    +0.000 A 
ATOM     16  C   UNL     1      43.397   5.224  26.767  0.00  0.00    +0.000 A 
ATOM     17  C   UNL     1      44.503   5.566  27.379  0.00  0.00    +0.000 A 
ATOM     18  C   UNL     1      44.619   5.466  28.752  0.00  0.00    +0.000 A 
ATOM     19  C   UNL     1      43.546   4.995  29.506  0.00  0.00    +0.000 A 
BRANCH  14  20
ATOM     20  O   UNL     1      41.288   4.160  29.591  0.00  0.00    +0.000 OA
BRANCH  20  21
ATOM     21  C   UNL     1      40.021   4.716  29.301  0.00  0.00    +0.000 C 
BRANCH  21  23
ATOM     22  C   UNL     1      38.541   6.009  30.839  0.00  0.00    +0.000 C 
ATOM     23  C   UNL     1      39.913   5.982  30.161  0.00  0.00    +0.000 C 
ATOM     24  C   UNL     1      40.074   7.217  29.296  0.00  0.00    +0.000 C 
ENDBRANCH  21  23
ENDBRANCH  20  21
ENDBRANCH  14  20
ENDBRANCH   1  17
BRANCH  11  25
ATOM     25  O   UNL     1      42.805   8.176  20.177  0.00  0.00    +0.000 OA
BRANCH  25  26
ATOM     26  C   UNL     1      42.091   9.338  20.458  0.00  0.00    +0.000 C 
BRANCH  26  27
ATOM     27  C   UNL     1      40.634   9.193  20.459  0.00  0.00    +0.000 A 
ATOM     28  C   UNL     1      39.835  10.228  20.884  0.00  0.00    +0.000 A 
ATOM     29  C   UNL     1      38.466  10.124  20.897  0.00  0.00    +0.000 A 
ATOM     30  C   UNL     1      37.849   8.971  20.481  0.00  0.00    +0.000 A 
ATOM     31  C   UNL     1      38.627   7.920  20.051  0.00  0.00    +0.000 A 
ATOM     32  C   UNL     1      39.982   8.036  20.042  0.00  0.00    +0.000 A 
ENDBRANCH  26  27
ENDBRANCH  25  26
ENDBRANCH  11  25
TORSDOF 7
ENDMDL
