MODEL 1
REMARK VINA RESULT:      -8.8      0.000      0.000
REMARK  Name = 
REMARK  6 active torsions:
REMARK  status: ('A' for Active; 'I' for Inactive)
REMARK    1  A    between atoms: C_2  and  C_3
REMARK    2  A    between atoms: C_6  and  N_7
REMARK    3  A    between atoms: C_8  and  C_10
REMARK    4  A    between atoms: C_10  and  N_11
REMARK    5  A    between atoms: N_14  and  C_15
REMARK    6  A    between atoms: C_17  and  C_18
REMARK                            x       y       z     vdW  Elec       q    Type
REMARK                         _______ _______ _______ _____ _____    ______ ____
ROOT
ATOM      1  N   UNL     1      17.357  10.326  37.080  0.00  0.00    +0.000 NA
ATOM      2  C   UNL     1      17.356   9.319  36.031  0.00  0.00    +0.000 C 
ATOM      3  C   UNL     1      17.513  10.145  34.737  0.00  0.00    +0.000 C 
ATOM      4  N   UNL     1      16.343  11.013  34.681  0.00  0.00    +0.000 N 
ATOM      5  C   UNL     1      15.625  11.514  35.830  0.00  0.00    +0.000 C 
ATOM      6  C   UNL     1      16.181  11.097  37.152  0.00  0.00    +0.000 C 
ENDROOT
BRANCH   4   7
ATOM      7  C   UNL     1      15.883  11.368  33.395  0.00  0.00    +0.000 A 
ATOM      8  C   UNL     1      15.111  12.484  33.158  0.00  0.00    +0.000 A 
ATOM      9  C   UNL     1      14.676  12.793  31.880  0.00  0.00    +0.000 A 
ATOM     10  N   UNL     1      15.024  11.974  30.867  0.00  0.00    +0.000 NA
ATOM     11  C   UNL     1      15.780  10.882  31.101  0.00  0.00    +0.000 A 
ATOM     12  N   UNL     1      16.200  10.591  32.357  0.00  0.00    +0.000 NA
BRANCH   9  13
ATOM     13  C   UNL     1      13.878  14.003  31.618  0.00  0.00    +0.000 C 
ATOM     14  F   UNL     1      13.214  14.415  32.778  0.00  0.00    +0.000 F 
ATOM     15  F   UNL     1      14.653  15.058  31.215  0.00  0.00    +0.000 F 
ATOM     16  F   UNL     1      12.878  13.726  30.674  0.00  0.00    +0.000 F 
ENDBRANCH   9  13
ENDBRANCH   4   7
BRANCH   1  17
ATOM     17  C   UNL     1      18.021   9.977  38.269  0.00  0.00    +0.000 C 
BRANCH  17  19
ATOM     18  N   UNL     1      20.247  10.572  37.314  0.00  0.00    +0.000 NA
ATOM     19  C   UNL     1      19.465   9.841  38.234  0.00  0.00    +0.000 C 
ATOM     20  O   UNL     1      20.093   9.060  39.027  0.00  0.00    +0.000 OA
BRANCH  18  24
ATOM     21  C   UNL     1      24.371  10.207  37.143  0.00  0.00    +0.000 A 
ATOM     22  C   UNL     1      23.572   9.315  36.478  0.00  0.00    +0.000 A 
ATOM     23  C   UNL     1      22.186   9.443  36.528  0.00  0.00    +0.000 A 
ATOM     24  C   UNL     1      21.661  10.472  37.254  0.00  0.00    +0.000 A 
ATOM     25  C   UNL     1      22.419  11.384  37.927  0.00  0.00    +0.000 A 
ATOM     26  C   UNL     1      23.806  11.223  37.855  0.00  0.00    +0.000 A 
BRANCH  21  28
ATOM     27  C   UNL     1      26.217   9.158  38.271  0.00  0.00    +0.000 C 
ATOM     28  C   UNL     1      25.846  10.106  37.133  0.00  0.00    +0.000 C 
ENDBRANCH  21  28
ENDBRANCH  18  24
ENDBRANCH  17  19
ENDBRANCH   1  17
TORSDOF 6
ENDMDL
MODEL 2
REMARK VINA RESULT:      -8.1      1.674      2.197
REMARK  Name = 
REMARK  6 active torsions:
REMARK  status: ('A' for Active; 'I' for Inactive)
REMARK    1  A    between atoms: C_2  and  C_3
REMARK    2  A    between atoms: C_6  and  N_7
REMARK    3  A    between atoms: C_8  and  C_10
REMARK    4  A    between atoms: C_10  and  N_11
REMARK    5  A    between atoms: N_14  and  C_15
REMARK    6  A    between atoms: C_17  and  C_18
REMARK                            x       y       z     vdW  Elec       q    Type
REMARK                         _______ _______ _______ _____ _____    ______ ____
ROOT
ATOM      1  N   UNL     1      16.840  10.695  37.597  0.00  0.00    +0.000 NA
ATOM      2  C   UNL     1      16.971  10.156  36.252  0.00  0.00    +0.000 C 
ATOM      3  C   UNL     1      16.836  11.400  35.349  0.00  0.00    +0.000 C 
ATOM      4  N   UNL     1      15.505  11.933  35.612  0.00  0.00    +0.000 N 
ATOM      5  C   UNL     1      14.794  11.810  36.862  0.00  0.00    +0.000 C 
ATOM      6  C   UNL     1      15.535  11.093  37.942  0.00  0.00    +0.000 C 
ENDROOT
BRANCH   4   7
ATOM      7  C   UNL     1      14.873  12.603  34.543  0.00  0.00    +0.000 A 
ATOM      8  C   UNL     1      15.073  12.261  33.223  0.00  0.00    +0.000 A 
ATOM      9  C   UNL     1      14.437  12.948  32.203  0.00  0.00    +0.000 A 
ATOM     10  N   UNL     1      13.615  13.966  32.528  0.00  0.00    +0.000 NA
ATOM     11  C   UNL     1      13.421  14.299  33.820  0.00  0.00    +0.000 A 
ATOM     12  N   UNL     1      14.048  13.618  34.810  0.00  0.00    +0.000 NA
BRANCH   9  13
ATOM     13  C   UNL     1      14.623  12.564  30.793  0.00  0.00    +0.000 C 
ATOM     14  F   UNL     1      15.932  12.831  30.379  0.00  0.00    +0.000 F 
ATOM     15  F   UNL     1      14.414  11.227  30.588  0.00  0.00    +0.000 F 
ATOM     16  F   UNL     1      13.789  13.335  29.969  0.00  0.00    +0.000 F 
ENDBRANCH   9  13
ENDBRANCH   4   7
BRANCH   1  17
ATOM     17  C   UNL     1      17.662  10.112  38.578  0.00  0.00    +0.000 C 
BRANCH  17  19
ATOM     18  N   UNL     1      19.952   9.392  37.904  0.00  0.00    +0.000 NA
ATOM     19  C   UNL     1      19.092  10.339  38.499  0.00  0.00    +0.000 C 
ATOM     20  O   UNL     1      19.638  11.398  38.959  0.00  0.00    +0.000 OA
BRANCH  18  24
ATOM     21  C   UNL     1      24.048   9.973  37.670  0.00  0.00    +0.000 A 
ATOM     22  C   UNL     1      23.478   9.544  38.840  0.00  0.00    +0.000 A 
ATOM     23  C   UNL     1      22.103   9.339  38.916  0.00  0.00    +0.000 A 
ATOM     24  C   UNL     1      21.355   9.581  37.800  0.00  0.00    +0.000 A 
ATOM     25  C   UNL     1      21.880  10.005  36.616  0.00  0.00    +0.000 A 
ATOM     26  C   UNL     1      23.264  10.200  36.578  0.00  0.00    +0.000 A 
BRANCH  21  28
ATOM     27  C   UNL     1      25.851  11.267  38.595  0.00  0.00    +0.000 C 
ATOM     28  C   UNL     1      25.501  10.219  37.542  0.00  0.00    +0.000 C 
ENDBRANCH  21  28
ENDBRANCH  18  24
ENDBRANCH  17  19
ENDBRANCH   1  17
TORSDOF 6
ENDMDL
MODEL 3
REMARK VINA RESULT:      -7.9      3.180      5.469
REMARK  Name = 
REMARK  6 active torsions:
REMARK  status: ('A' for Active; 'I' for Inactive)
REMARK    1  A    between atoms: C_2  and  C_3
REMARK    2  A    between atoms: C_6  and  N_7
REMARK    3  A    between atoms: C_8  and  C_10
REMARK    4  A    between atoms: C_10  and  N_11
REMARK    5  A    between atoms: N_14  and  C_15
REMARK    6  A    between atoms: C_17  and  C_18
REMARK                            x       y       z     vdW  Elec       q    Type
REMARK                         _______ _______ _______ _____ _____    ______ ____
ROOT
ATOM      1  N   UNL     1      18.070  10.307  36.701  0.00  0.00    +0.000 NA
ATOM      2  C   UNL     1      17.915   9.224  35.742  0.00  0.00    +0.000 C 
ATOM      3  C   UNL     1      17.861   9.951  34.382  0.00  0.00    +0.000 C 
ATOM      4  N   UNL     1      16.688  10.816  34.446  0.00  0.00    +0.000 N 
ATOM      5  C   UNL     1      16.153  11.402  35.652  0.00  0.00    +0.000 C 
ATOM      6  C   UNL     1      16.913  11.083  36.898  0.00  0.00    +0.000 C 
ENDROOT
BRANCH   4   7
ATOM      7  C   UNL     1      16.030  11.074  33.225  0.00  0.00    +0.000 A 
ATOM      8  C   UNL     1      16.314  12.170  32.439  0.00  0.00    +0.000 A 
ATOM      9  C   UNL     1      15.641  12.389  31.249  0.00  0.00    +0.000 A 
ATOM     10  N   UNL     1      14.694  11.505  30.873  0.00  0.00    +0.000 NA
ATOM     11  C   UNL     1      14.418  10.434  31.644  0.00  0.00    +0.000 A 
ATOM     12  N   UNL     1      15.085  10.229  32.806  0.00  0.00    +0.000 NA
BRANCH   9  13
ATOM     13  C   UNL     1      15.965  13.542  30.391  0.00  0.00    +0.000 C 
ATOM     14  F   UNL     1      15.363  14.705  30.881  0.00  0.00    +0.000 F 
ATOM     15  F   UNL     1      17.311  13.789  30.343  0.00  0.00    +0.000 F 
ATOM     16  F   UNL     1      15.445  13.346  29.103  0.00  0.00    +0.000 F 
ENDBRANCH   9  13
ENDBRANCH   4   7
BRANCH   1  17
ATOM     17  C   UNL     1      18.915  10.046  37.794  0.00  0.00    +0.000 C 
BRANCH  17  19
ATOM     18  N   UNL     1      17.647   9.941  39.939  0.00  0.00    +0.000 NA
ATOM     19  C   UNL     1      18.377   9.300  38.916  0.00  0.00    +0.000 C 
ATOM     20  O   UNL     1      18.535   8.037  39.030  0.00  0.00    +0.000 OA
BRANCH  18  24
ATOM     21  C   UNL     1      16.113   7.885  43.193  0.00  0.00    +0.000 A 
ATOM     22  C   UNL     1      17.308   8.547  43.297  0.00  0.00    +0.000 A 
ATOM     23  C   UNL     1      17.819   9.245  42.206  0.00  0.00    +0.000 A 
ATOM     24  C   UNL     1      17.098   9.245  41.048  0.00  0.00    +0.000 A 
ATOM     25  C   UNL     1      15.904   8.604  40.902  0.00  0.00    +0.000 A 
ATOM     26  C   UNL     1      15.423   7.913  42.018  0.00  0.00    +0.000 A 
BRANCH  21  28
ATOM     27  C   UNL     1      15.736   7.972  45.566  0.00  0.00    +0.000 C 
ATOM     28  C   UNL     1      15.535   7.117  44.317  0.00  0.00    +0.000 C 
ENDBRANCH  21  28
ENDBRANCH  18  24
ENDBRANCH  17  19
ENDBRANCH   1  17
TORSDOF 6
ENDMDL
MODEL 4
REMARK VINA RESULT:      -7.6      3.410      5.545
REMARK  Name = 
REMARK  6 active torsions:
REMARK  status: ('A' for Active; 'I' for Inactive)
REMARK    1  A    between atoms: C_2  and  C_3
REMARK    2  A    between atoms: C_6  and  N_7
REMARK    3  A    between atoms: C_8  and  C_10
REMARK    4  A    between atoms: C_10  and  N_11
REMARK    5  A    between atoms: N_14  and  C_15
REMARK    6  A    between atoms: C_17  and  C_18
REMARK                            x       y       z     vdW  Elec       q    Type
REMARK                         _______ _______ _______ _____ _____    ______ ____
ROOT
ATOM      1  N   UNL     1      17.954  10.250  37.049  0.00  0.00    +0.000 NA
ATOM      2  C   UNL     1      17.465   9.543  35.875  0.00  0.00    +0.000 C 
ATOM      3  C   UNL     1      17.265  10.665  34.835  0.00  0.00    +0.000 C 
ATOM      4  N   UNL     1      16.264  11.558  35.409  0.00  0.00    +0.000 N 
ATOM      5  C   UNL     1      16.057  11.773  36.821  0.00  0.00    +0.000 C 
ATOM      6  C   UNL     1      16.981  11.015  37.718  0.00  0.00    +0.000 C 
ENDROOT
BRANCH   4   7
ATOM      7  C   UNL     1      15.435  12.243  34.496  0.00  0.00    +0.000 A 
ATOM      8  C   UNL     1      15.507  12.054  33.133  0.00  0.00    +0.000 A 
ATOM      9  C   UNL     1      14.677  12.751  32.271  0.00  0.00    +0.000 A 
ATOM     10  N   UNL     1      13.793  13.624  32.795  0.00  0.00    +0.000 NA
ATOM     11  C   UNL     1      13.724  13.807  34.129  0.00  0.00    +0.000 A 
ATOM     12  N   UNL     1      14.541  13.118  34.963  0.00  0.00    +0.000 NA
BRANCH   9  13
ATOM     13  C   UNL     1      14.730  12.529  30.816  0.00  0.00    +0.000 C 
ATOM     14  F   UNL     1      14.517  11.179  30.516  0.00  0.00    +0.000 F 
ATOM     15  F   UNL     1      13.764  13.234  30.149  0.00  0.00    +0.000 F 
ATOM     16  F   UNL     1      16.007  12.840  30.326  0.00  0.00    +0.000 F 
ENDBRANCH   9  13
ENDBRANCH   4   7
BRANCH   1  17
ATOM     17  C   UNL     1      18.942   9.588  37.800  0.00  0.00    +0.000 C 
BRANCH  17  19
ATOM     18  N   UNL     1      17.946   7.963  39.408  0.00  0.00    +0.000 NA
ATOM     19  C   UNL     1      18.615   9.178  39.153  0.00  0.00    +0.000 C 
ATOM     20  O   UNL     1      18.916   9.891  40.169  0.00  0.00    +0.000 OA
BRANCH  18  24
ATOM     21  C   UNL     1      16.952   6.748  43.243  0.00  0.00    +0.000 A 
ATOM     22  C   UNL     1      16.076   7.506  42.512  0.00  0.00    +0.000 A 
ATOM     23  C   UNL     1      16.406   7.906  41.220  0.00  0.00    +0.000 A 
ATOM     24  C   UNL     1      17.616   7.523  40.717  0.00  0.00    +0.000 A 
ATOM     25  C   UNL     1      18.515   6.767  41.408  0.00  0.00    +0.000 A 
ATOM     26  C   UNL     1      18.149   6.384  42.702  0.00  0.00    +0.000 A 
BRANCH  21  28
ATOM     27  C   UNL     1      15.199   6.682  44.887  0.00  0.00    +0.000 C 
ATOM     28  C   UNL     1      16.655   6.309  44.624  0.00  0.00    +0.000 C 
ENDBRANCH  21  28
ENDBRANCH  18  24
ENDBRANCH  17  19
ENDBRANCH   1  17
TORSDOF 6
ENDMDL
MODEL 5
REMARK VINA RESULT:      -7.2      5.217      9.480
REMARK  Name = 
REMARK  6 active torsions:
REMARK  status: ('A' for Active; 'I' for Inactive)
REMARK    1  A    between atoms: C_2  and  C_3
REMARK    2  A    between atoms: C_6  and  N_7
REMARK    3  A    between atoms: C_8  and  C_10
REMARK    4  A    between atoms: C_10  and  N_11
REMARK    5  A    between atoms: N_14  and  C_15
REMARK    6  A    between atoms: C_17  and  C_18
REMARK                            x       y       z     vdW  Elec       q    Type
REMARK                         _______ _______ _______ _____ _____    ______ ____
ROOT
ATOM      1  N   UNL     1      19.486  10.297  37.641  0.00  0.00    +0.000 NA
ATOM      2  C   UNL     1      19.291  11.021  38.887  0.00  0.00    +0.000 C 
ATOM      3  C   UNL     1      19.799  12.441  38.563  0.00  0.00    +0.000 C 
ATOM      4  N   UNL     1      21.208  12.285  38.221  0.00  0.00    +0.000 N 
ATOM      5  C   UNL     1      21.792  11.106  37.627  0.00  0.00    +0.000 C 
ATOM      6  C   UNL     1      20.829  10.001  37.342  0.00  0.00    +0.000 C 
ENDROOT
BRANCH   4   7
ATOM      7  C   UNL     1      22.052  13.377  38.516  0.00  0.00    +0.000 A 
ATOM      8  C   UNL     1      23.426  13.281  38.520  0.00  0.00    +0.000 A 
ATOM      9  C   UNL     1      24.218  14.376  38.820  0.00  0.00    +0.000 A 
ATOM     10  N   UNL     1      23.614  15.546  39.112  0.00  0.00    +0.000 NA
ATOM     11  C   UNL     1      22.269  15.638  39.107  0.00  0.00    +0.000 A 
ATOM     12  N   UNL     1      21.504  14.558  38.810  0.00  0.00    +0.000 NA
BRANCH   9  13
ATOM     13  C   UNL     1      25.688  14.284  38.794  0.00  0.00    +0.000 C 
ATOM     14  F   UNL     1      26.097  13.114  38.147  0.00  0.00    +0.000 F 
ATOM     15  F   UNL     1      26.260  15.327  38.115  0.00  0.00    +0.000 F 
ATOM     16  F   UNL     1      26.190  14.203  40.102  0.00  0.00    +0.000 F 
ENDBRANCH   9  13
ENDBRANCH   4   7
BRANCH   1  17
ATOM     17  C   UNL     1      18.487   9.366  37.306  0.00  0.00    +0.000 C 
BRANCH  17  19
ATOM     18  N   UNL     1      17.468  10.861  35.590  0.00  0.00    +0.000 NA
ATOM     19  C   UNL     1      17.747   9.566  36.074  0.00  0.00    +0.000 C 
ATOM     20  O   UNL     1      17.317   8.588  35.374  0.00  0.00    +0.000 OA
BRANCH  18  24
ATOM     21  C   UNL     1      15.320  11.550  32.114  0.00  0.00    +0.000 A 
ATOM     22  C   UNL     1      14.933  12.135  33.291  0.00  0.00    +0.000 A 
ATOM     23  C   UNL     1      15.660  11.911  34.457  0.00  0.00    +0.000 A 
ATOM     24  C   UNL     1      16.755  11.099  34.386  0.00  0.00    +0.000 A 
ATOM     25  C   UNL     1      17.177  10.499  33.237  0.00  0.00    +0.000 A 
ATOM     26  C   UNL     1      16.421  10.747  32.087  0.00  0.00    +0.000 A 
BRANCH  21  28
ATOM     27  C   UNL     1      13.995  13.155  30.911  0.00  0.00    +0.000 C 
ATOM     28  C   UNL     1      14.574  11.744  30.852  0.00  0.00    +0.000 C 
ENDBRANCH  21  28
ENDBRANCH  18  24
ENDBRANCH  17  19
ENDBRANCH   1  17
TORSDOF 6
ENDMDL
MODEL 6
REMARK VINA RESULT:      -6.9     17.615     20.863
REMARK  Name = 
REMARK  6 active torsions:
REMARK  status: ('A' for Active; 'I' for Inactive)
REMARK    1  A    between atoms: C_2  and  C_3
REMARK    2  A    between atoms: C_6  and  N_7
REMARK    3  A    between atoms: C_8  and  C_10
REMARK    4  A    between atoms: C_10  and  N_11
REMARK    5  A    between atoms: N_14  and  C_15
REMARK    6  A    between atoms: C_17  and  C_18
REMARK                            x       y       z     vdW  Elec       q    Type
REMARK                         _______ _______ _______ _____ _____    ______ ____
ROOT
ATOM      1  N   UNL     1      33.301  -2.318  35.747  0.00  0.00    +0.000 NA
ATOM      2  C   UNL     1      32.204  -1.689  35.029  0.00  0.00    +0.000 C 
ATOM      3  C   UNL     1      32.895  -0.576  34.214  0.00  0.00    +0.000 C 
ATOM      4  N   UNL     1      33.502   0.312  35.199  0.00  0.00    +0.000 N 
ATOM      5  C   UNL     1      33.974  -0.093  36.502  0.00  0.00    +0.000 C 
ATOM      6  C   UNL     1      33.826  -1.549  36.802  0.00  0.00    +0.000 C 
ENDROOT
BRANCH   4   7
ATOM      7  C   UNL     1      33.612   1.671  34.837  0.00  0.00    +0.000 A 
ATOM      8  C   UNL     1      33.872   2.670  35.751  0.00  0.00    +0.000 A 
ATOM      9  C   UNL     1      33.967   3.993  35.354  0.00  0.00    +0.000 A 
ATOM     10  N   UNL     1      33.798   4.287  34.049  0.00  0.00    +0.000 NA
ATOM     11  C   UNL     1      33.545   3.309  33.157  0.00  0.00    +0.000 A 
ATOM     12  N   UNL     1      33.455   2.016  33.557  0.00  0.00    +0.000 NA
BRANCH   9  13
ATOM     13  C   UNL     1      34.276   5.059  36.323  0.00  0.00    +0.000 C 
ATOM     14  F   UNL     1      33.753   4.747  37.582  0.00  0.00    +0.000 F 
ATOM     15  F   UNL     1      35.624   5.231  36.491  0.00  0.00    +0.000 F 
ATOM     16  F   UNL     1      33.662   6.259  35.932  0.00  0.00    +0.000 F 
ENDBRANCH   9  13
ENDBRANCH   4   7
BRANCH   1  17
ATOM     17  C   UNL     1      33.225  -3.715  35.887  0.00  0.00    +0.000 C 
BRANCH  17  19
ATOM     18  N   UNL     1      34.255  -4.351  33.707  0.00  0.00    +0.000 NA
ATOM     19  C   UNL     1      33.255  -4.528  34.687  0.00  0.00    +0.000 C 
ATOM     20  O   UNL     1      32.385  -5.436  34.460  0.00  0.00    +0.000 OA
BRANCH  18  24
ATOM     21  C   UNL     1      34.527  -6.629  30.256  0.00  0.00    +0.000 A 
ATOM     22  C   UNL     1      35.361  -6.878  31.314  0.00  0.00    +0.000 A 
ATOM     23  C   UNL     1      35.263  -6.119  32.477  0.00  0.00    +0.000 A 
ATOM     24  C   UNL     1      34.322  -5.132  32.523  0.00  0.00    +0.000 A 
ATOM     25  C   UNL     1      33.470  -4.852  31.496  0.00  0.00    +0.000 A 
ATOM     26  C   UNL     1      33.599  -5.635  30.345  0.00  0.00    +0.000 A 
BRANCH  21  28
ATOM     27  C   UNL     1      33.776  -6.617  27.972  0.00  0.00    +0.000 C 
ATOM     28  C   UNL     1      34.600  -7.397  28.994  0.00  0.00    +0.000 C 
ENDBRANCH  21  28
ENDBRANCH  18  24
ENDBRANCH  17  19
ENDBRANCH   1  17
TORSDOF 6
ENDMDL
MODEL 7
REMARK VINA RESULT:      -6.9     17.559     21.107
REMARK  Name = 
REMARK  6 active torsions:
REMARK  status: ('A' for Active; 'I' for Inactive)
REMARK    1  A    between atoms: C_2  and  C_3
REMARK    2  A    between atoms: C_6  and  N_7
REMARK    3  A    between atoms: C_8  and  C_10
REMARK    4  A    between atoms: C_10  and  N_11
REMARK    5  A    between atoms: N_14  and  C_15
REMARK    6  A    between atoms: C_17  and  C_18
REMARK                            x       y       z     vdW  Elec       q    Type
REMARK                         _______ _______ _______ _____ _____    ______ ____
ROOT
ATOM      1  N   UNL     1      33.247  -2.609  35.607  0.00  0.00    +0.000 NA
ATOM      2  C   UNL     1      34.608  -2.145  35.826  0.00  0.00    +0.000 C 
ATOM      3  C   UNL     1      34.426  -0.893  36.709  0.00  0.00    +0.000 C 
ATOM      4  N   UNL     1      33.637   0.039  35.912  0.00  0.00    +0.000 N 
ATOM      5  C   UNL     1      32.672  -0.340  34.907  0.00  0.00    +0.000 C 
ATOM      6  C   UNL     1      32.491  -1.812  34.728  0.00  0.00    +0.000 C 
ENDROOT
BRANCH   4   7
ATOM      7  C   UNL     1      33.861   1.412  36.145  0.00  0.00    +0.000 A 
ATOM      8  C   UNL     1      33.739   2.368  35.160  0.00  0.00    +0.000 A 
ATOM      9  C   UNL     1      33.973   3.705  35.430  0.00  0.00    +0.000 A 
ATOM     10  N   UNL     1      34.327   4.056  36.683  0.00  0.00    +0.000 NA
ATOM     11  C   UNL     1      34.446   3.119  37.645  0.00  0.00    +0.000 A 
ATOM     12  N   UNL     1      34.213   1.813  37.369  0.00  0.00    +0.000 NA
BRANCH   9  13
ATOM     13  C   UNL     1      33.812   4.733  34.387  0.00  0.00    +0.000 C 
ATOM     14  F   UNL     1      33.718   4.142  33.123  0.00  0.00    +0.000 F 
ATOM     15  F   UNL     1      32.671   5.471  34.559  0.00  0.00    +0.000 F 
ATOM     16  F   UNL     1      34.943   5.562  34.347  0.00  0.00    +0.000 F 
ENDBRANCH   9  13
ENDBRANCH   4   7
BRANCH   1  17
ATOM     17  C   UNL     1      33.065  -4.004  35.596  0.00  0.00    +0.000 C 
BRANCH  17  19
ATOM     18  N   UNL     1      34.226  -4.635  33.482  0.00  0.00    +0.000 NA
ATOM     19  C   UNL     1      33.092  -4.689  34.319  0.00  0.00    +0.000 C 
ATOM     20  O   UNL     1      32.098  -5.369  33.892  0.00  0.00    +0.000 OA
BRANCH  18  24
ATOM     21  C   UNL     1      34.498  -6.580  29.833  0.00  0.00    +0.000 A 
ATOM     22  C   UNL     1      35.217  -7.030  30.909  0.00  0.00    +0.000 A 
ATOM     23  C   UNL     1      35.118  -6.383  32.138  0.00  0.00    +0.000 A 
ATOM     24  C   UNL     1      34.294  -5.299  32.229  0.00  0.00    +0.000 A 
ATOM     25  C   UNL     1      33.559  -4.819  31.186  0.00  0.00    +0.000 A 
ATOM     26  C   UNL     1      33.684  -5.495  29.968  0.00  0.00    +0.000 A 
BRANCH  21  28
ATOM     27  C   UNL     1      34.933  -8.687  28.759  0.00  0.00    +0.000 C 
ATOM     28  C   UNL     1      34.578  -7.224  28.504  0.00  0.00    +0.000 C 
ENDBRANCH  21  28
ENDBRANCH  18  24
ENDBRANCH  17  19
ENDBRANCH   1  17
TORSDOF 6
ENDMDL
MODEL 8
REMARK VINA RESULT:      -6.6     18.210     21.707
REMARK  Name = 
REMARK  6 active torsions:
REMARK  status: ('A' for Active; 'I' for Inactive)
REMARK    1  A    between atoms: C_2  and  C_3
REMARK    2  A    between atoms: C_6  and  N_7
REMARK    3  A    between atoms: C_8  and  C_10
REMARK    4  A    between atoms: C_10  and  N_11
REMARK    5  A    between atoms: N_14  and  C_15
REMARK    6  A    between atoms: C_17  and  C_18
REMARK                            x       y       z     vdW  Elec       q    Type
REMARK                         _______ _______ _______ _____ _____    ______ ____
ROOT
ATOM      1  N   UNL     1      33.763  -3.589  35.035  0.00  0.00    +0.000 NA
ATOM      2  C   UNL     1      32.639  -4.487  35.247  0.00  0.00    +0.000 C 
ATOM      3  C   UNL     1      33.024  -5.745  34.441  0.00  0.00    +0.000 C 
ATOM      4  N   UNL     1      33.136  -5.305  33.056  0.00  0.00    +0.000 N 
ATOM      5  C   UNL     1      33.515  -3.977  32.635  0.00  0.00    +0.000 C 
ATOM      6  C   UNL     1      33.828  -3.029  33.746  0.00  0.00    +0.000 C 
ENDROOT
BRANCH   4   7
ATOM      7  C   UNL     1      32.830  -6.261  32.065  0.00  0.00    +0.000 A 
ATOM      8  C   UNL     1      33.350  -6.211  30.790  0.00  0.00    +0.000 A 
ATOM      9  C   UNL     1      33.020  -7.168  29.845  0.00  0.00    +0.000 A 
ATOM     10  N   UNL     1      32.172  -8.155  30.199  0.00  0.00    +0.000 NA
ATOM     11  C   UNL     1      31.664  -8.203  31.447  0.00  0.00    +0.000 A 
ATOM     12  N   UNL     1      31.996  -7.260  32.364  0.00  0.00    +0.000 NA
BRANCH   9  13
ATOM     13  C   UNL     1      33.599  -7.135  28.492  0.00  0.00    +0.000 C 
ATOM     14  F   UNL     1      33.098  -6.048  27.768  0.00  0.00    +0.000 F 
ATOM     15  F   UNL     1      34.961  -6.994  28.515  0.00  0.00    +0.000 F 
ATOM     16  F   UNL     1      33.225  -8.284  27.778  0.00  0.00    +0.000 F 
ENDBRANCH   9  13
ENDBRANCH   4   7
BRANCH   1  17
ATOM     17  C   UNL     1      34.148  -2.811  36.142  0.00  0.00    +0.000 C 
BRANCH  17  19
ATOM     18  N   UNL     1      33.391  -0.486  35.656  0.00  0.00    +0.000 NA
ATOM     19  C   UNL     1      34.427  -1.404  35.928  0.00  0.00    +0.000 C 
ATOM     20  O   UNL     1      35.613  -0.932  35.976  0.00  0.00    +0.000 OA
BRANCH  18  24
ATOM     21  C   UNL     1      34.033   3.573  35.118  0.00  0.00    +0.000 A 
ATOM     22  C   UNL     1      34.209   3.004  36.352  0.00  0.00    +0.000 A 
ATOM     23  C   UNL     1      34.002   1.639  36.531  0.00  0.00    +0.000 A 
ATOM     24  C   UNL     1      33.622   0.900  35.449  0.00  0.00    +0.000 A 
ATOM     25  C   UNL     1      33.439   1.422  34.203  0.00  0.00    +0.000 A 
ATOM     26  C   UNL     1      33.655   2.797  34.063  0.00  0.00    +0.000 A 
BRANCH  21  28
ATOM     27  C   UNL     1      32.916   5.532  34.285  0.00  0.00    +0.000 C 
ATOM     28  C   UNL     1      34.225   5.020  34.879  0.00  0.00    +0.000 C 
ENDBRANCH  21  28
ENDBRANCH  18  24
ENDBRANCH  17  19
ENDBRANCH   1  17
TORSDOF 6
ENDMDL
MODEL 9
REMARK VINA RESULT:      -6.5     18.416     21.831
REMARK  Name = 
REMARK  6 active torsions:
REMARK  status: ('A' for Active; 'I' for Inactive)
REMARK    1  A    between atoms: C_2  and  C_3
REMARK    2  A    between atoms: C_6  and  N_7
REMARK    3  A    between atoms: C_8  and  C_10
REMARK    4  A    between atoms: C_10  and  N_11
REMARK    5  A    between atoms: N_14  and  C_15
REMARK    6  A    between atoms: C_17  and  C_18
REMARK                            x       y       z     vdW  Elec       q    Type
REMARK                         _______ _______ _______ _____ _____    ______ ____
ROOT
ATOM      1  N   UNL     1      33.647  -4.126  34.541  0.00  0.00    +0.000 NA
ATOM      2  C   UNL     1      34.679  -5.045  34.087  0.00  0.00    +0.000 C 
ATOM      3  C   UNL     1      34.522  -5.037  32.552  0.00  0.00    +0.000 C 
ATOM      4  N   UNL     1      33.175  -5.535  32.294  0.00  0.00    +0.000 N 
ATOM      5  C   UNL     1      32.048  -5.380  33.183  0.00  0.00    +0.000 C 
ATOM      6  C   UNL     1      32.335  -4.625  34.439  0.00  0.00    +0.000 C 
ENDROOT
BRANCH   4   7
ATOM      7  C   UNL     1      32.984  -6.232  31.082  0.00  0.00    +0.000 A 
ATOM      8  C   UNL     1      32.098  -7.279  30.953  0.00  0.00    +0.000 A 
ATOM      9  C   UNL     1      31.945  -7.941  29.746  0.00  0.00    +0.000 A 
ATOM     10  N   UNL     1      32.686  -7.539  28.694  0.00  0.00    +0.000 NA
ATOM     11  C   UNL     1      33.552  -6.514  28.822  0.00  0.00    +0.000 A 
ATOM     12  N   UNL     1      33.693  -5.873  30.009  0.00  0.00    +0.000 NA
BRANCH   9  13
ATOM     13  C   UNL     1      30.975  -9.039  29.597  0.00  0.00    +0.000 C 
ATOM     14  F   UNL     1      29.687  -8.535  29.392  0.00  0.00    +0.000 F 
ATOM     15  F   UNL     1      31.259  -9.837  28.520  0.00  0.00    +0.000 F 
ATOM     16  F   UNL     1      30.915  -9.794  30.778  0.00  0.00    +0.000 F 
ENDBRANCH   9  13
ENDBRANCH   4   7
BRANCH   1  17
ATOM     17  C   UNL     1      33.987  -3.307  35.632  0.00  0.00    +0.000 C 
BRANCH  17  19
ATOM     18  N   UNL     1      33.216  -0.975  35.199  0.00  0.00    +0.000 NA
ATOM     19  C   UNL     1      34.262  -1.906  35.379  0.00  0.00    +0.000 C 
ATOM     20  O   UNL     1      35.453  -1.449  35.307  0.00  0.00    +0.000 OA
BRANCH  18  24
ATOM     21  C   UNL     1      33.845   3.070  34.558  0.00  0.00    +0.000 A 
ATOM     22  C   UNL     1      33.985   2.541  35.814  0.00  0.00    +0.000 A 
ATOM     23  C   UNL     1      33.783   1.180  36.028  0.00  0.00    +0.000 A 
ATOM     24  C   UNL     1      33.444   0.405  34.957  0.00  0.00    +0.000 A 
ATOM     25  C   UNL     1      33.297   0.888  33.691  0.00  0.00    +0.000 A 
ATOM     26  C   UNL     1      33.507   2.259  33.515  0.00  0.00    +0.000 A 
BRANCH  21  28
ATOM     27  C   UNL     1      32.650   5.071  33.965  0.00  0.00    +0.000 C 
ATOM     28  C   UNL     1      34.035   4.510  34.281  0.00  0.00    +0.000 C 
ENDBRANCH  21  28
ENDBRANCH  18  24
ENDBRANCH  17  19
ENDBRANCH   1  17
TORSDOF 6
ENDMDL
MODEL 10
REMARK VINA RESULT:      -6.5      6.256      9.967
REMARK  Name = 
REMARK  6 active torsions:
REMARK  status: ('A' for Active; 'I' for Inactive)
REMARK    1  A    between atoms: C_2  and  C_3
REMARK    2  A    between atoms: C_6  and  N_7
REMARK    3  A    between atoms: C_8  and  C_10
REMARK    4  A    between atoms: C_10  and  N_11
REMARK    5  A    between atoms: N_14  and  C_15
REMARK    6  A    between atoms: C_17  and  C_18
REMARK                            x       y       z     vdW  Elec       q    Type
REMARK                         _______ _______ _______ _____ _____    ______ ____
ROOT
ATOM      1  N   UNL     1      18.842  10.273  38.965  0.00  0.00    +0.000 NA
ATOM      2  C   UNL     1      17.634   9.472  38.845  0.00  0.00    +0.000 C 
ATOM      3  C   UNL     1      17.615   8.648  40.149  0.00  0.00    +0.000 C 
ATOM      4  N   UNL     1      18.828   7.840  40.120  0.00  0.00    +0.000 N 
ATOM      5  C   UNL     1      20.059   8.214  39.466  0.00  0.00    +0.000 C 
ATOM      6  C   UNL     1      20.040   9.552  38.803  0.00  0.00    +0.000 C 
ENDROOT
BRANCH   4   7
ATOM      7  C   UNL     1      18.768   6.591  40.775  0.00  0.00    +0.000 A 
ATOM      8  C   UNL     1      19.449   5.479  40.330  0.00  0.00    +0.000 A 
ATOM      9  C   UNL     1      19.359   4.271  41.001  0.00  0.00    +0.000 A 
ATOM     10  N   UNL     1      18.585   4.203  42.103  0.00  0.00    +0.000 NA
ATOM     11  C   UNL     1      17.920   5.293  42.537  0.00  0.00    +0.000 A 
ATOM     12  N   UNL     1      18.017   6.471  41.873  0.00  0.00    +0.000 NA
BRANCH   9  13
ATOM     13  C   UNL     1      20.110   3.089  40.546  0.00  0.00    +0.000 C 
ATOM     14  F   UNL     1      20.964   2.630  41.554  0.00  0.00    +0.000 F 
ATOM     15  F   UNL     1      19.286   2.043  40.225  0.00  0.00    +0.000 F 
ATOM     16  F   UNL     1      20.934   3.428  39.462  0.00  0.00    +0.000 F 
ENDBRANCH   9  13
ENDBRANCH   4   7
BRANCH   1  17
ATOM     17  C   UNL     1      18.761  11.589  38.475  0.00  0.00    +0.000 C 
BRANCH  17  19
ATOM     18  N   UNL     1      17.623  10.741  36.424  0.00  0.00    +0.000 NA
ATOM     19  C   UNL     1      18.041  11.816  37.236  0.00  0.00    +0.000 C 
ATOM     20  O   UNL     1      17.754  12.991  36.824  0.00  0.00    +0.000 OA
BRANCH  18  24
ATOM     21  C   UNL     1      15.608  11.284  32.845  0.00  0.00    +0.000 A 
ATOM     22  C   UNL     1      16.809  10.627  32.866  0.00  0.00    +0.000 A 
ATOM     23  C   UNL     1      17.482  10.436  34.070  0.00  0.00    +0.000 A 
ATOM     24  C   UNL     1      16.910  10.922  35.210  0.00  0.00    +0.000 A 
ATOM     25  C   UNL     1      15.716  11.578  35.236  0.00  0.00    +0.000 A 
ATOM     26  C   UNL     1      15.070  11.751  34.007  0.00  0.00    +0.000 A 
BRANCH  21  28
ATOM     27  C   UNL     1      15.612  12.629  30.852  0.00  0.00    +0.000 C 
ATOM     28  C   UNL     1      14.860  11.525  31.591  0.00  0.00    +0.000 C 
ENDBRANCH  21  28
ENDBRANCH  18  24
ENDBRANCH  17  19
ENDBRANCH   1  17
TORSDOF 6
ENDMDL
