MODEL 1
REMARK VINA RESULT:      -6.4      0.000      0.000
REMARK  Name = 
REMARK  2 active torsions:
REMARK  status: ('A' for Active; 'I' for Inactive)
REMARK    1  A    between atoms: C_7  and  N_8
REMARK    2  A    between atoms: C_9  and  C_11
REMARK                            x       y       z     vdW  Elec       q    Type
REMARK                         _______ _______ _______ _____ _____    ______ ____
ROOT
ATOM      1  N   UNL     1      17.733   8.678  40.189  0.00  0.00    +0.000 NA
ATOM      2  C   UNL     1      18.561   9.151  39.193  0.00  0.00    +0.000 C 
ATOM      3  O   UNL     1      19.801   9.174  39.399  0.00  0.00    +0.000 OA
ENDROOT
BRANCH   2   4
ATOM      4  C   UNL     1      18.012   9.613  37.934  0.00  0.00    +0.000 A 
ATOM      5  N   UNL     1      16.970  10.430  37.796  0.00  0.00    +0.000 NA
ATOM      6  C   UNL     1      16.710  10.668  36.504  0.00  0.00    +0.000 A 
ATOM      7  C   UNL     1      15.781  11.414  35.823  0.00  0.00    +0.000 A 
ATOM      8  C   UNL     1      15.791  11.443  34.440  0.00  0.00    +0.000 A 
ATOM      9  C   UNL     1      16.718  10.736  33.716  0.00  0.00    +0.000 A 
ATOM     10  C   UNL     1      17.648   9.990  34.422  0.00  0.00    +0.000 A 
ATOM     11  C   UNL     1      17.644   9.955  35.794  0.00  0.00    +0.000 A 
ATOM     12  N   UNL     1      18.432   9.315  36.691  0.00  0.00    +0.000 NA
ENDBRANCH   2   4
BRANCH   1  19
ATOM     13  C   UNL     1      17.773   6.009  40.833  0.00  0.00    +0.000 C 
ATOM     14  C   UNL     1      17.335   7.030  42.012  0.00  0.00    +0.000 C 
ATOM     15  C   UNL     1      15.969   7.450  41.314  0.00  0.00    +0.000 C 
ATOM     16  C   UNL     1      15.685   8.851  41.344  0.00  0.00    +0.000 C 
ATOM     17  C   UNL     1      16.502   9.781  42.128  0.00  0.00    +0.000 C 
ATOM     18  C   UNL     1      17.839   9.354  42.468  0.00  0.00    +0.000 C 
ATOM     19  C   UNL     1      18.416   8.213  41.483  0.00  0.00    +0.000 C 
ENDBRANCH   1  19
TORSDOF 2
ENDMDL
MODEL 2
REMARK VINA RESULT:      -6.0     23.411     26.186
REMARK  Name = 
REMARK  2 active torsions:
REMARK  status: ('A' for Active; 'I' for Inactive)
REMARK    1  A    between atoms: C_7  and  N_8
REMARK    2  A    between atoms: C_9  and  C_11
REMARK                            x       y       z     vdW  Elec       q    Type
REMARK                         _______ _______ _______ _____ _____    ______ ____
ROOT
ATOM      1  N   UNL     1      29.558  24.183  23.440  0.00  0.00    +0.000 NA
ATOM      2  C   UNL     1      28.963  24.285  22.201  0.00  0.00    +0.000 C 
ATOM      3  O   UNL     1      28.178  23.375  21.832  0.00  0.00    +0.000 OA
ENDROOT
BRANCH   2   4
ATOM      4  C   UNL     1      29.238  25.418  21.341  0.00  0.00    +0.000 A 
ATOM      5  N   UNL     1      29.019  26.695  21.649  0.00  0.00    +0.000 NA
ATOM      6  C   UNL     1      29.377  27.503  20.642  0.00  0.00    +0.000 A 
ATOM      7  C   UNL     1      29.367  28.860  20.437  0.00  0.00    +0.000 A 
ATOM      8  C   UNL     1      29.824  29.386  19.243  0.00  0.00    +0.000 A 
ATOM      9  C   UNL     1      30.297  28.577  18.239  0.00  0.00    +0.000 A 
ATOM     10  C   UNL     1      30.300  27.210  18.466  0.00  0.00    +0.000 A 
ATOM     11  C   UNL     1      29.847  26.681  19.648  0.00  0.00    +0.000 A 
ATOM     12  N   UNL     1      29.752  25.407  20.098  0.00  0.00    +0.000 NA
ENDBRANCH   2   4
BRANCH   1  19
ATOM     13  C   UNL     1      27.697  24.376  25.451  0.00  0.00    +0.000 C 
ATOM     14  C   UNL     1      29.079  23.614  25.817  0.00  0.00    +0.000 C 
ATOM     15  C   UNL     1      29.977  24.922  25.713  0.00  0.00    +0.000 C 
ATOM     16  C   UNL     1      31.215  24.748  25.019  0.00  0.00    +0.000 C 
ATOM     17  C   UNL     1      31.687  23.421  24.615  0.00  0.00    +0.000 C 
ATOM     18  C   UNL     1      30.693  22.380  24.499  0.00  0.00    +0.000 C 
ATOM     19  C   UNL     1      29.198  22.943  24.272  0.00  0.00    +0.000 C 
ENDBRANCH   1  19
TORSDOF 2
ENDMDL
MODEL 3
REMARK VINA RESULT:      -5.8      3.565      5.295
REMARK  Name = 
REMARK  2 active torsions:
REMARK  status: ('A' for Active; 'I' for Inactive)
REMARK    1  A    between atoms: C_7  and  N_8
REMARK    2  A    between atoms: C_9  and  C_11
REMARK                            x       y       z     vdW  Elec       q    Type
REMARK                         _______ _______ _______ _____ _____    ______ ____
ROOT
ATOM      1  N   UNL     1      21.798  10.187  37.787  0.00  0.00    +0.000 NA
ATOM      2  C   UNL     1      20.510   9.804  38.091  0.00  0.00    +0.000 C 
ATOM      3  O   UNL     1      20.299   9.201  39.174  0.00  0.00    +0.000 OA
ENDROOT
BRANCH   2   4
ATOM      4  C   UNL     1      19.420  10.091  37.180  0.00  0.00    +0.000 A 
ATOM      5  N   UNL     1      18.410  10.926  37.420  0.00  0.00    +0.000 NA
ATOM      6  C   UNL     1      17.565  10.973  36.381  0.00  0.00    +0.000 A 
ATOM      7  C   UNL     1      16.402  11.647  36.106  0.00  0.00    +0.000 A 
ATOM      8  C   UNL     1      15.761  11.463  34.895  0.00  0.00    +0.000 A 
ATOM      9  C   UNL     1      16.262  10.610  33.942  0.00  0.00    +0.000 A 
ATOM     10  C   UNL     1      17.437   9.939  34.239  0.00  0.00    +0.000 A 
ATOM     11  C   UNL     1      18.080  10.116  35.438  0.00  0.00    +0.000 A 
ATOM     12  N   UNL     1      19.216   9.587  35.950  0.00  0.00    +0.000 NA
ENDBRANCH   2   4
BRANCH   1  19
ATOM     13  C   UNL     1      23.023  12.183  39.222  0.00  0.00    +0.000 C 
ATOM     14  C   UNL     1      23.995  11.072  38.555  0.00  0.00    +0.000 C 
ATOM     15  C   UNL     1      23.691  11.519  37.060  0.00  0.00    +0.000 C 
ATOM     16  C   UNL     1      23.469  10.444  36.144  0.00  0.00    +0.000 C 
ATOM     17  C   UNL     1      23.701   9.049  36.531  0.00  0.00    +0.000 C 
ATOM     18  C   UNL     1      23.689   8.750  37.943  0.00  0.00    +0.000 C 
ATOM     19  C   UNL     1      22.878   9.835  38.821  0.00  0.00    +0.000 C 
ENDBRANCH   1  19
TORSDOF 2
ENDMDL
MODEL 4
REMARK VINA RESULT:      -5.8     20.623     22.381
REMARK  Name = 
REMARK  2 active torsions:
REMARK  status: ('A' for Active; 'I' for Inactive)
REMARK    1  A    between atoms: C_7  and  N_8
REMARK    2  A    between atoms: C_9  and  C_11
REMARK                            x       y       z     vdW  Elec       q    Type
REMARK                         _______ _______ _______ _____ _____    ______ ____
ROOT
ATOM      1  N   UNL     1      33.264  -5.924  32.101  0.00  0.00    +0.000 NA
ATOM      2  C   UNL     1      32.645  -5.482  33.251  0.00  0.00    +0.000 C 
ATOM      3  O   UNL     1      31.947  -6.293  33.911  0.00  0.00    +0.000 OA
ENDROOT
BRANCH   2   4
ATOM      4  C   UNL     1      32.797  -4.109  33.690  0.00  0.00    +0.000 A 
ATOM      5  N   UNL     1      33.554  -3.187  33.100  0.00  0.00    +0.000 NA
ATOM      6  C   UNL     1      33.481  -2.016  33.747  0.00  0.00    +0.000 A 
ATOM      7  C   UNL     1      34.040  -0.774  33.572  0.00  0.00    +0.000 A 
ATOM      8  C   UNL     1      33.744   0.251  34.451  0.00  0.00    +0.000 A 
ATOM      9  C   UNL     1      32.893   0.062  35.512  0.00  0.00    +0.000 A 
ATOM     10  C   UNL     1      32.339  -1.198  35.671  0.00  0.00    +0.000 A 
ATOM     11  C   UNL     1      32.628  -2.222  34.803  0.00  0.00    +0.000 A 
ATOM     12  N   UNL     1      32.221  -3.512  34.749  0.00  0.00    +0.000 NA
ENDBRANCH   2   4
BRANCH   1  19
ATOM     13  C   UNL     1      35.329  -7.721  32.312  0.00  0.00    +0.000 C 
ATOM     14  C   UNL     1      34.485  -7.751  30.930  0.00  0.00    +0.000 C 
ATOM     15  C   UNL     1      34.989  -6.324  30.443  0.00  0.00    +0.000 C 
ATOM     16  C   UNL     1      33.971  -5.481  29.896  0.00  0.00    +0.000 C 
ATOM     17  C   UNL     1      32.619  -5.983  29.636  0.00  0.00    +0.000 C 
ATOM     18  C   UNL     1      32.206  -7.160  30.365  0.00  0.00    +0.000 C 
ATOM     19  C   UNL     1      33.039  -7.396  31.726  0.00  0.00    +0.000 C 
ENDBRANCH   1  19
TORSDOF 2
ENDMDL
MODEL 5
REMARK VINA RESULT:      -5.6     11.197     12.308
REMARK  Name = 
REMARK  2 active torsions:
REMARK  status: ('A' for Active; 'I' for Inactive)
REMARK    1  A    between atoms: C_7  and  N_8
REMARK    2  A    between atoms: C_9  and  C_11
REMARK                            x       y       z     vdW  Elec       q    Type
REMARK                         _______ _______ _______ _____ _____    ______ ____
ROOT
ATOM      1  N   UNL     1      21.144  20.755  37.736  0.00  0.00    +0.000 NA
ATOM      2  C   UNL     1      21.014  21.567  36.630  0.00  0.00    +0.000 C 
ATOM      3  O   UNL     1      21.969  22.324  36.320  0.00  0.00    +0.000 OA
ENDROOT
BRANCH   2   4
ATOM      4  C   UNL     1      19.799  21.549  35.840  0.00  0.00    +0.000 A 
ATOM      5  N   UNL     1      19.622  20.872  34.707  0.00  0.00    +0.000 NA
ATOM      6  C   UNL     1      18.389  21.062  34.218  0.00  0.00    +0.000 A 
ATOM      7  C   UNL     1      17.703  20.615  33.117  0.00  0.00    +0.000 A 
ATOM      8  C   UNL     1      16.396  21.015  32.902  0.00  0.00    +0.000 A 
ATOM      9  C   UNL     1      15.754  21.860  33.774  0.00  0.00    +0.000 A 
ATOM     10  C   UNL     1      16.464  22.299  34.880  0.00  0.00    +0.000 A 
ATOM     11  C   UNL     1      17.760  21.907  35.100  0.00  0.00    +0.000 A 
ATOM     12  N   UNL     1      18.643  22.193  36.086  0.00  0.00    +0.000 NA
ENDBRANCH   2   4
BRANCH   1  19
ATOM     13  C   UNL     1      22.862  18.613  37.773  0.00  0.00    +0.000 C 
ATOM     14  C   UNL     1      22.555  19.317  39.200  0.00  0.00    +0.000 C 
ATOM     15  C   UNL     1      21.033  18.857  39.242  0.00  0.00    +0.000 C 
ATOM     16  C   UNL     1      20.111  19.867  39.659  0.00  0.00    +0.000 C 
ATOM     17  C   UNL     1      20.573  21.155  40.187  0.00  0.00    +0.000 C 
ATOM     18  C   UNL     1      21.913  21.563  39.838  0.00  0.00    +0.000 C 
ATOM     19  C   UNL     1      22.472  20.852  38.502  0.00  0.00    +0.000 C 
ENDBRANCH   1  19
TORSDOF 2
ENDMDL
MODEL 6
REMARK VINA RESULT:      -5.6     22.266     23.930
REMARK  Name = 
REMARK  2 active torsions:
REMARK  status: ('A' for Active; 'I' for Inactive)
REMARK    1  A    between atoms: C_7  and  N_8
REMARK    2  A    between atoms: C_9  and  C_11
REMARK                            x       y       z     vdW  Elec       q    Type
REMARK                         _______ _______ _______ _____ _____    ______ ____
ROOT
ATOM      1  N   UNL     1      26.509   4.727  17.164  0.00  0.00    +0.000 NA
ATOM      2  C   UNL     1      26.146   3.401  17.064  0.00  0.00    +0.000 C 
ATOM      3  O   UNL     1      27.047   2.540  16.895  0.00  0.00    +0.000 OA
ENDROOT
BRANCH   2   4
ATOM      4  C   UNL     1      24.754   3.007  17.150  0.00  0.00    +0.000 A 
ATOM      5  N   UNL     1      24.207   1.960  16.536  0.00  0.00    +0.000 NA
ATOM      6  C   UNL     1      22.899   1.866  16.816  0.00  0.00    +0.000 A 
ATOM      7  C   UNL     1      21.892   1.004  16.462  0.00  0.00    +0.000 A 
ATOM      8  C   UNL     1      20.610   1.197  16.945  0.00  0.00    +0.000 A 
ATOM      9  C   UNL     1      20.311   2.244  17.782  0.00  0.00    +0.000 A 
ATOM     10  C   UNL     1      21.342   3.102  18.128  0.00  0.00    +0.000 A 
ATOM     11  C   UNL     1      22.617   2.917  17.653  0.00  0.00    +0.000 A 
ATOM     12  N   UNL     1      23.768   3.604  17.843  0.00  0.00    +0.000 NA
ENDBRANCH   2   4
BRANCH   1  19
ATOM     13  C   UNL     1      27.839   5.797  19.316  0.00  0.00    +0.000 C 
ATOM     14  C   UNL     1      28.095   6.507  17.883  0.00  0.00    +0.000 C 
ATOM     15  C   UNL     1      26.616   7.077  17.757  0.00  0.00    +0.000 C 
ATOM     16  C   UNL     1      26.020   6.925  16.466  0.00  0.00    +0.000 C 
ATOM     17  C   UNL     1      26.797   6.456  15.315  0.00  0.00    +0.000 C 
ATOM     18  C   UNL     1      28.003   5.713  15.597  0.00  0.00    +0.000 C 
ATOM     19  C   UNL     1      28.010   5.035  17.061  0.00  0.00    +0.000 C 
ENDBRANCH   1  19
TORSDOF 2
ENDMDL
MODEL 7
REMARK VINA RESULT:      -5.5     21.518     23.550
REMARK  Name = 
REMARK  2 active torsions:
REMARK  status: ('A' for Active; 'I' for Inactive)
REMARK    1  A    between atoms: C_7  and  N_8
REMARK    2  A    between atoms: C_9  and  C_11
REMARK                            x       y       z     vdW  Elec       q    Type
REMARK                         _______ _______ _______ _____ _____    ______ ____
ROOT
ATOM      1  N   UNL     1      22.800  -9.165  23.606  0.00  0.00    +0.000 NA
ATOM      2  C   UNL     1      22.598  -9.008  24.960  0.00  0.00    +0.000 C 
ATOM      3  O   UNL     1      23.411  -9.542  25.757  0.00  0.00    +0.000 OA
ENDROOT
BRANCH   2   4
ATOM      4  C   UNL     1      21.471  -8.244  25.456  0.00  0.00    +0.000 A 
ATOM      5  N   UNL     1      21.309  -6.929  25.323  0.00  0.00    +0.000 NA
ATOM      6  C   UNL     1      20.165  -6.524  25.889  0.00  0.00    +0.000 A 
ATOM      7  C   UNL     1      19.529  -5.316  26.035  0.00  0.00    +0.000 A 
ATOM      8  C   UNL     1      18.316  -5.244  26.695  0.00  0.00    +0.000 A 
ATOM      9  C   UNL     1      17.718  -6.365  27.218  0.00  0.00    +0.000 A 
ATOM     10  C   UNL     1      18.375  -7.574  27.059  0.00  0.00    +0.000 A 
ATOM     11  C   UNL     1      19.580  -7.653  26.406  0.00  0.00    +0.000 A 
ATOM     12  N   UNL     1      20.398  -8.696  26.129  0.00  0.00    +0.000 NA
ENDBRANCH   2   4
BRANCH   1  19
ATOM     13  C   UNL     1      25.134  -7.899  22.906  0.00  0.00    +0.000 C 
ATOM     14  C   UNL     1      24.618  -9.066  21.907  0.00  0.00    +0.000 C 
ATOM     15  C   UNL     1      23.338  -8.259  21.421  0.00  0.00    +0.000 C 
ATOM     16  C   UNL     1      22.134  -9.027  21.348  0.00  0.00    +0.000 C 
ATOM     17  C   UNL     1      22.143 -10.482  21.525  0.00  0.00    +0.000 C 
ATOM     18  C   UNL     1      23.268 -11.050  22.231  0.00  0.00    +0.000 C 
ATOM     19  C   UNL     1      24.024  -9.992  23.187  0.00  0.00    +0.000 C 
ENDBRANCH   1  19
TORSDOF 2
ENDMDL
MODEL 8
REMARK VINA RESULT:      -5.5     19.961     22.600
REMARK  Name = 
REMARK  2 active torsions:
REMARK  status: ('A' for Active; 'I' for Inactive)
REMARK    1  A    between atoms: C_7  and  N_8
REMARK    2  A    between atoms: C_9  and  C_11
REMARK                            x       y       z     vdW  Elec       q    Type
REMARK                         _______ _______ _______ _____ _____    ______ ____
ROOT
ATOM      1  N   UNL     1      27.419  24.087  24.693  0.00  0.00    +0.000 NA
ATOM      2  C   UNL     1      26.327  23.598  25.377  0.00  0.00    +0.000 C 
ATOM      3  O   UNL     1      25.678  22.644  24.876  0.00  0.00    +0.000 OA
ENDROOT
BRANCH   2   4
ATOM      4  C   UNL     1      25.935  24.171  26.649  0.00  0.00    +0.000 A 
ATOM      5  N   UNL     1      25.037  25.141  26.816  0.00  0.00    +0.000 NA
ATOM      6  C   UNL     1      24.897  25.451  28.112  0.00  0.00    +0.000 A 
ATOM      7  C   UNL     1      24.132  26.345  28.819  0.00  0.00    +0.000 A 
ATOM      8  C   UNL     1      24.233  26.409  30.196  0.00  0.00    +0.000 A 
ATOM      9  C   UNL     1      25.090  25.591  30.891  0.00  0.00    +0.000 A 
ATOM     10  C   UNL     1      25.853  24.695  30.159  0.00  0.00    +0.000 A 
ATOM     11  C   UNL     1      25.759  24.625  28.792  0.00  0.00    +0.000 A 
ATOM     12  N   UNL     1      26.385  23.850  27.875  0.00  0.00    +0.000 NA
ENDBRANCH   2   4
BRANCH   1  19
ATOM     13  C   UNL     1      29.789  22.731  24.394  0.00  0.00    +0.000 C 
ATOM     14  C   UNL     1      29.393  23.763  23.210  0.00  0.00    +0.000 C 
ATOM     15  C   UNL     1      29.563  25.062  24.111  0.00  0.00    +0.000 C 
ATOM     16  C   UNL     1      28.527  26.036  23.964  0.00  0.00    +0.000 C 
ATOM     17  C   UNL     1      27.505  25.915  22.920  0.00  0.00    +0.000 C 
ATOM     18  C   UNL     1      27.280  24.598  22.373  0.00  0.00    +0.000 C 
ATOM     19  C   UNL     1      27.749  23.407  23.356  0.00  0.00    +0.000 C 
ENDBRANCH   1  19
TORSDOF 2
ENDMDL
MODEL 9
REMARK VINA RESULT:      -5.5     21.422     22.856
REMARK  Name = 
REMARK  2 active torsions:
REMARK  status: ('A' for Active; 'I' for Inactive)
REMARK    1  A    between atoms: C_7  and  N_8
REMARK    2  A    between atoms: C_9  and  C_11
REMARK                            x       y       z     vdW  Elec       q    Type
REMARK                         _______ _______ _______ _____ _____    ______ ____
ROOT
ATOM      1  N   UNL     1      34.174  -3.934  34.364  0.00  0.00    +0.000 NA
ATOM      2  C   UNL     1      34.715  -5.118  33.911  0.00  0.00    +0.000 C 
ATOM      3  O   UNL     1      35.364  -5.832  34.717  0.00  0.00    +0.000 OA
ENDROOT
BRANCH   2   4
ATOM      4  C   UNL     1      34.539  -5.532  32.533  0.00  0.00    +0.000 A 
ATOM      5  N   UNL     1      35.086  -6.609  31.973  0.00  0.00    +0.000 NA
ATOM      6  C   UNL     1      34.731  -6.715  30.685  0.00  0.00    +0.000 A 
ATOM      7  C   UNL     1      35.000  -7.606  29.676  0.00  0.00    +0.000 A 
ATOM      8  C   UNL     1      34.454  -7.417  28.419  0.00  0.00    +0.000 A 
ATOM      9  C   UNL     1      33.638  -6.348  28.147  0.00  0.00    +0.000 A 
ATOM     10  C   UNL     1      33.378  -5.461  29.179  0.00  0.00    +0.000 A 
ATOM     11  C   UNL     1      33.916  -5.641  30.429  0.00  0.00    +0.000 A 
ATOM     12  N   UNL     1      33.812  -4.928  31.576  0.00  0.00    +0.000 NA
ENDBRANCH   2   4
BRANCH   1  19
ATOM     13  C   UNL     1      32.260  -4.528  36.242  0.00  0.00    +0.000 C 
ATOM     14  C   UNL     1      32.891  -3.037  36.300  0.00  0.00    +0.000 C 
ATOM     15  C   UNL     1      32.245  -2.573  34.923  0.00  0.00    +0.000 C 
ATOM     16  C   UNL     1      33.124  -1.845  34.062  0.00  0.00    +0.000 C 
ATOM     17  C   UNL     1      34.447  -1.405  34.513  0.00  0.00    +0.000 C 
ATOM     18  C   UNL     1      35.026  -2.111  35.633  0.00  0.00    +0.000 C 
ATOM     19  C   UNL     1      34.418  -3.591  35.840  0.00  0.00    +0.000 C 
ENDBRANCH   1  19
TORSDOF 2
ENDMDL
MODEL 10
REMARK VINA RESULT:      -5.5     20.862     22.387
REMARK  Name = 
REMARK  2 active torsions:
REMARK  status: ('A' for Active; 'I' for Inactive)
REMARK    1  A    between atoms: C_7  and  N_8
REMARK    2  A    between atoms: C_9  and  C_11
REMARK                            x       y       z     vdW  Elec       q    Type
REMARK                         _______ _______ _______ _____ _____    ______ ____
ROOT
ATOM      1  N   UNL     1      18.895  -8.104  26.272  0.00  0.00    +0.000 NA
ATOM      2  C   UNL     1      19.684  -7.016  25.966  0.00  0.00    +0.000 C 
ATOM      3  O   UNL     1      19.298  -5.873  26.320  0.00  0.00    +0.000 OA
ENDROOT
BRANCH   2   4
ATOM      4  C   UNL     1      20.932  -7.186  25.250  0.00  0.00    +0.000 A 
ATOM      5  N   UNL     1      21.203  -8.164  24.388  0.00  0.00    +0.000 NA
ATOM      6  C   UNL     1      22.443  -8.044  23.895  0.00  0.00    +0.000 A 
ATOM      7  C   UNL     1      23.204  -8.754  23.001  0.00  0.00    +0.000 A 
ATOM      8  C   UNL     1      24.490  -8.343  22.702  0.00  0.00    +0.000 A 
ATOM      9  C   UNL     1      25.037  -7.225  23.283  0.00  0.00    +0.000 A 
ATOM     10  C   UNL     1      24.252  -6.522  24.182  0.00  0.00    +0.000 A 
ATOM     11  C   UNL     1      22.975  -6.924  24.484  0.00  0.00    +0.000 A 
ATOM     12  N   UNL     1      22.032  -6.414  25.311  0.00  0.00    +0.000 NA
ENDBRANCH   2   4
BRANCH   1  19
ATOM     13  C   UNL     1      18.568  -9.042  28.832  0.00  0.00    +0.000 C 
ATOM     14  C   UNL     1      17.336  -9.290  27.809  0.00  0.00    +0.000 C 
ATOM     15  C   UNL     1      18.134 -10.321  26.898  0.00  0.00    +0.000 C 
ATOM     16  C   UNL     1      17.974 -10.128  25.491  0.00  0.00    +0.000 C 
ATOM     17  C   UNL     1      16.996  -9.177  24.954  0.00  0.00    +0.000 C 
ATOM     18  C   UNL     1      16.556  -8.123  25.837  0.00  0.00    +0.000 C 
ATOM     19  C   UNL     1      17.594  -7.813  27.033  0.00  0.00    +0.000 C 
ENDBRANCH   1  19
TORSDOF 2
ENDMDL
