MODEL 1
REMARK VINA RESULT:      -6.5      0.000      0.000
REMARK  Name = 
REMARK  4 active torsions:
REMARK  status: ('A' for Active; 'I' for Inactive)
REMARK    1  A    between atoms: C_2  and  C_5
REMARK    2  A    between atoms: C_5  and  C_7
REMARK    3  A    between atoms: C_7  and  C_15
REMARK    4  A    between atoms: C_8  and  C_9
REMARK                            x       y       z     vdW  Elec       q    Type
REMARK                         _______ _______ _______ _____ _____    ______ ____
ROOT
ATOM      1  C   UNL     1      29.219  24.727  22.675  0.00  0.00    +0.000 C 
ATOM      2  C   UNL     1      30.286  24.547  23.410  0.00  0.00    +0.000 C 
ENDROOT
BRANCH   2   3
ATOM      3  C   UNL     1      30.253  23.895  24.677  0.00  0.00    +0.000 A 
ATOM      4  C   UNL     1      30.120  22.556  24.866  0.00  0.00    +0.000 A 
ATOM      5  C   UNL     1      30.083  22.008  26.120  0.00  0.00    +0.000 A 
ATOM      6  C   UNL     1      30.185  22.834  27.210  0.00  0.00    +0.000 A 
ATOM      7  C   UNL     1      30.322  24.194  27.082  0.00  0.00    +0.000 A 
ATOM      8  C   UNL     1      30.356  24.722  25.802  0.00  0.00    +0.000 A 
ENDBRANCH   2   3
BRANCH   1   9
ATOM      9  C   UNL     1      27.854  24.335  23.098  0.00  0.00    +0.000 A 
ATOM     10  N   UNL     1      26.991  23.484  22.603  0.00  0.00    +0.000 NA
ATOM     11  C   UNL     1      25.835  23.311  23.158  0.00  0.00    +0.000 A 
ATOM     12  O   UNL     1      24.867  22.399  22.658  0.00  0.00    +0.000 OA
ATOM     13  C   UNL     1      25.553  24.053  24.277  0.00  0.00    +0.000 A 
ATOM     14  S   UNL     1      26.989  24.958  24.456  0.00  0.00    +0.000 S 
ENDBRANCH   1   9
BRANCH   1  15
ATOM     15  C   UNL     1      29.329  25.403  21.375  0.00  0.00    +0.000 C 
ATOM     16  O   UNL     1      29.738  24.800  20.382  0.00  0.00    +0.000 OA
BRANCH  15  18
ATOM     17  C   UNL     1      29.653  27.426  20.082  0.00  0.00    +0.000 C 
ATOM     18  C   UNL     1      28.947  26.831  21.258  0.00  0.00    +0.000 C 
ATOM     19  C   UNL     1      27.433  26.914  21.032  0.00  0.00    +0.000 C 
ATOM     20  C   UNL     1      29.262  27.569  22.563  0.00  0.00    +0.000 C 
ENDBRANCH  15  18
ENDBRANCH   1  15
TORSDOF 4
ENDMDL
MODEL 2
REMARK VINA RESULT:      -5.9      1.465      4.941
REMARK  Name = 
REMARK  4 active torsions:
REMARK  status: ('A' for Active; 'I' for Inactive)
REMARK    1  A    between atoms: C_2  and  C_5
REMARK    2  A    between atoms: C_5  and  C_7
REMARK    3  A    between atoms: C_7  and  C_15
REMARK    4  A    between atoms: C_8  and  C_9
REMARK                            x       y       z     vdW  Elec       q    Type
REMARK                         _______ _______ _______ _____ _____    ______ ____
ROOT
ATOM      1  C   UNL     1      29.436  23.930  24.391  0.00  0.00    +0.000 C 
ATOM      2  C   UNL     1      30.224  24.833  23.864  0.00  0.00    +0.000 C 
ENDROOT
BRANCH   2   3
ATOM      3  C   UNL     1      29.744  25.900  23.050  0.00  0.00    +0.000 A 
ATOM      4  C   UNL     1      29.459  27.154  23.488  0.00  0.00    +0.000 A 
ATOM      5  C   UNL     1      28.988  28.121  22.642  0.00  0.00    +0.000 A 
ATOM      6  C   UNL     1      28.800  27.813  21.319  0.00  0.00    +0.000 A 
ATOM      7  C   UNL     1      29.069  26.563  20.817  0.00  0.00    +0.000 A 
ATOM      8  C   UNL     1      29.545  25.604  21.696  0.00  0.00    +0.000 A 
ENDBRANCH   2   3
BRANCH   1   9
ATOM      9  C   UNL     1      27.975  23.875  24.151  0.00  0.00    +0.000 A 
ATOM     10  N   UNL     1      27.252  23.212  23.283  0.00  0.00    +0.000 NA
ATOM     11  C   UNL     1      25.964  23.331  23.263  0.00  0.00    +0.000 A 
ATOM     12  O   UNL     1      25.138  22.633  22.341  0.00  0.00    +0.000 OA
ATOM     13  C   UNL     1      25.392  24.173  24.182  0.00  0.00    +0.000 A 
ATOM     14  S   UNL     1      26.764  24.743  25.022  0.00  0.00    +0.000 S 
ENDBRANCH   1   9
BRANCH   1  15
ATOM     15  C   UNL     1      30.001  22.861  25.226  0.00  0.00    +0.000 C 
ATOM     16  O   UNL     1      30.592  21.908  24.716  0.00  0.00    +0.000 OA
BRANCH  15  18
ATOM     17  C   UNL     1      31.046  22.288  27.334  0.00  0.00    +0.000 C 
ATOM     18  C   UNL     1      29.854  22.928  26.699  0.00  0.00    +0.000 C 
ATOM     19  C   UNL     1      29.792  24.403  27.116  0.00  0.00    +0.000 C 
ATOM     20  C   UNL     1      28.539  22.271  27.127  0.00  0.00    +0.000 C 
ENDBRANCH  15  18
ENDBRANCH   1  15
TORSDOF 4
ENDMDL
MODEL 3
REMARK VINA RESULT:      -5.9      1.552      1.629
REMARK  Name = 
REMARK  4 active torsions:
REMARK  status: ('A' for Active; 'I' for Inactive)
REMARK    1  A    between atoms: C_2  and  C_5
REMARK    2  A    between atoms: C_5  and  C_7
REMARK    3  A    between atoms: C_7  and  C_15
REMARK    4  A    between atoms: C_8  and  C_9
REMARK                            x       y       z     vdW  Elec       q    Type
REMARK                         _______ _______ _______ _____ _____    ______ ____
ROOT
ATOM      1  C   UNL     1      29.366  24.472  23.165  0.00  0.00    +0.000 C 
ATOM      2  C   UNL     1      30.492  24.093  23.713  0.00  0.00    +0.000 C 
ENDROOT
BRANCH   2   3
ATOM      3  C   UNL     1      30.575  23.585  25.042  0.00  0.00    +0.000 A 
ATOM      4  C   UNL     1      30.150  22.357  25.441  0.00  0.00    +0.000 A 
ATOM      5  C   UNL     1      30.253  21.949  26.743  0.00  0.00    +0.000 A 
ATOM      6  C   UNL     1      30.800  22.803  27.667  0.00  0.00    +0.000 A 
ATOM      7  C   UNL     1      31.247  24.055  27.325  0.00  0.00    +0.000 A 
ATOM      8  C   UNL     1      31.131  24.443  26.000  0.00  0.00    +0.000 A 
ENDBRANCH   2   3
BRANCH   1   9
ATOM      9  C   UNL     1      28.067  24.478  23.878  0.00  0.00    +0.000 A 
ATOM     10  N   UNL     1      27.613  25.203  24.869  0.00  0.00    +0.000 NA
ATOM     11  C   UNL     1      26.420  25.019  25.335  0.00  0.00    +0.000 A 
ATOM     12  O   UNL     1      25.883  25.781  26.407  0.00  0.00    +0.000 OA
ATOM     13  C   UNL     1      25.657  24.039  24.752  0.00  0.00    +0.000 A 
ATOM     14  S   UNL     1      26.723  23.443  23.559  0.00  0.00    +0.000 S 
ENDBRANCH   1   9
BRANCH   1  15
ATOM     15  C   UNL     1      29.355  24.980  21.787  0.00  0.00    +0.000 C 
ATOM     16  O   UNL     1      29.635  24.243  20.840  0.00  0.00    +0.000 OA
BRANCH  15  18
ATOM     17  C   UNL     1      29.648  26.832  20.253  0.00  0.00    +0.000 C 
ATOM     18  C   UNL     1      29.008  26.398  21.533  0.00  0.00    +0.000 C 
ATOM     19  C   UNL     1      27.484  26.510  21.396  0.00  0.00    +0.000 C 
ATOM     20  C   UNL     1      29.431  27.266  22.722  0.00  0.00    +0.000 C 
ENDBRANCH  15  18
ENDBRANCH   1  15
TORSDOF 4
ENDMDL
MODEL 4
REMARK VINA RESULT:      -5.8     20.535     22.122
REMARK  Name = 
REMARK  4 active torsions:
REMARK  status: ('A' for Active; 'I' for Inactive)
REMARK    1  A    between atoms: C_2  and  C_5
REMARK    2  A    between atoms: C_5  and  C_7
REMARK    3  A    between atoms: C_7  and  C_15
REMARK    4  A    between atoms: C_8  and  C_9
REMARK                            x       y       z     vdW  Elec       q    Type
REMARK                         _______ _______ _______ _____ _____    ______ ____
ROOT
ATOM      1  C   UNL     1      26.302   4.258  17.190  0.00  0.00    +0.000 C 
ATOM      2  C   UNL     1      25.594   3.849  18.213  0.00  0.00    +0.000 C 
ENDROOT
BRANCH   2   3
ATOM      3  C   UNL     1      24.462   2.994  18.079  0.00  0.00    +0.000 A 
ATOM      4  C   UNL     1      24.512   1.650  17.887  0.00  0.00    +0.000 A 
ATOM      5  C   UNL     1      23.375   0.900  17.755  0.00  0.00    +0.000 A 
ATOM      6  C   UNL     1      22.156   1.524  17.818  0.00  0.00    +0.000 A 
ATOM      7  C   UNL     1      22.041   2.879  18.011  0.00  0.00    +0.000 A 
ATOM      8  C   UNL     1      23.207   3.613  18.141  0.00  0.00    +0.000 A 
ENDBRANCH   2   3
BRANCH   1   9
ATOM      9  C   UNL     1      25.972   3.934  15.782  0.00  0.00    +0.000 A 
ATOM     10  N   UNL     1      25.141   4.477  14.928  0.00  0.00    +0.000 NA
ATOM     11  C   UNL     1      25.022   4.008  13.728  0.00  0.00    +0.000 A 
ATOM     12  O   UNL     1      24.135   4.563  12.767  0.00  0.00    +0.000 OA
ATOM     13  C   UNL     1      25.795   2.925  13.392  0.00  0.00    +0.000 A 
ATOM     14  S   UNL     1      26.652   2.656  14.844  0.00  0.00    +0.000 S 
ENDBRANCH   1   9
BRANCH   1  15
ATOM     15  C   UNL     1      27.461   5.134  17.404  0.00  0.00    +0.000 C 
ATOM     16  O   UNL     1      28.595   4.665  17.517  0.00  0.00    +0.000 OA
BRANCH  15  18
ATOM     17  C   UNL     1      27.856   7.095  18.771  0.00  0.00    +0.000 C 
ATOM     18  C   UNL     1      27.264   6.600  17.490  0.00  0.00    +0.000 C 
ATOM     19  C   UNL     1      27.991   7.260  16.311  0.00  0.00    +0.000 C 
ATOM     20  C   UNL     1      25.776   6.940  17.364  0.00  0.00    +0.000 C 
ENDBRANCH  15  18
ENDBRANCH   1  15
TORSDOF 4
ENDMDL
MODEL 5
REMARK VINA RESULT:      -5.7     14.720     17.809
REMARK  Name = 
REMARK  4 active torsions:
REMARK  status: ('A' for Active; 'I' for Inactive)
REMARK    1  A    between atoms: C_2  and  C_5
REMARK    2  A    between atoms: C_5  and  C_7
REMARK    3  A    between atoms: C_7  and  C_15
REMARK    4  A    between atoms: C_8  and  C_9
REMARK                            x       y       z     vdW  Elec       q    Type
REMARK                         _______ _______ _______ _____ _____    ______ ____
ROOT
ATOM      1  C   UNL     1      12.204  23.260  21.508  0.00  0.00    +0.000 C 
ATOM      2  C   UNL     1      12.002  22.014  21.852  0.00  0.00    +0.000 C 
ENDROOT
BRANCH   2   3
ATOM      3  C   UNL     1      10.913  21.240  21.354  0.00  0.00    +0.000 A 
ATOM      4  C   UNL     1       9.657  21.229  21.872  0.00  0.00    +0.000 A 
ATOM      5  C   UNL     1       8.668  20.445  21.341  0.00  0.00    +0.000 A 
ATOM      6  C   UNL     1       8.956  19.652  20.260  0.00  0.00    +0.000 A 
ATOM      7  C   UNL     1      10.206  19.621  19.693  0.00  0.00    +0.000 A 
ATOM      8  C   UNL     1      11.188  20.424  20.250  0.00  0.00    +0.000 A 
ENDBRANCH   2   3
BRANCH   1   9
ATOM      9  C   UNL     1      11.298  24.025  20.620  0.00  0.00    +0.000 A 
ATOM     10  N   UNL     1      11.322  24.259  19.331  0.00  0.00    +0.000 NA
ATOM     11  C   UNL     1      10.402  24.973  18.769  0.00  0.00    +0.000 A 
ATOM     12  O   UNL     1      10.385  25.254  17.376  0.00  0.00    +0.000 OA
ATOM     13  C   UNL     1       9.408  25.472  19.572  0.00  0.00    +0.000 A 
ATOM     14  S   UNL     1       9.872  24.870  21.100  0.00  0.00    +0.000 S 
ENDBRANCH   1   9
BRANCH   1  15
ATOM     15  C   UNL     1      13.352  23.995  22.057  0.00  0.00    +0.000 C 
ATOM     16  O   UNL     1      13.199  24.829  22.950  0.00  0.00    +0.000 OA
BRANCH  15  18
ATOM     17  C   UNL     1      15.476  25.016  21.498  0.00  0.00    +0.000 C 
ATOM     18  C   UNL     1      14.710  23.732  21.526  0.00  0.00    +0.000 C 
ATOM     19  C   UNL     1      15.418  22.745  22.464  0.00  0.00    +0.000 C 
ATOM     20  C   UNL     1      14.619  23.075  20.146  0.00  0.00    +0.000 C 
ENDBRANCH  15  18
ENDBRANCH   1  15
TORSDOF 4
ENDMDL
MODEL 6
REMARK VINA RESULT:      -5.6     21.101     24.008
REMARK  Name = 
REMARK  4 active torsions:
REMARK  status: ('A' for Active; 'I' for Inactive)
REMARK    1  A    between atoms: C_2  and  C_5
REMARK    2  A    between atoms: C_5  and  C_7
REMARK    3  A    between atoms: C_7  and  C_15
REMARK    4  A    between atoms: C_8  and  C_9
REMARK                            x       y       z     vdW  Elec       q    Type
REMARK                         _______ _______ _______ _____ _____    ______ ____
ROOT
ATOM      1  C   UNL     1      18.409   9.881  39.367  0.00  0.00    +0.000 C 
ATOM      2  C   UNL     1      17.246  10.041  38.788  0.00  0.00    +0.000 C 
ENDROOT
BRANCH   2   3
ATOM      3  C   UNL     1      17.101  10.583  37.478  0.00  0.00    +0.000 A 
ATOM      4  C   UNL     1      16.783  11.873  37.193  0.00  0.00    +0.000 A 
ATOM      5  C   UNL     1      16.650  12.312  35.904  0.00  0.00    +0.000 A 
ATOM      6  C   UNL     1      16.841  11.425  34.875  0.00  0.00    +0.000 A 
ATOM      7  C   UNL     1      17.163  10.110  35.100  0.00  0.00    +0.000 A 
ATOM      8  C   UNL     1      17.293   9.692  36.414  0.00  0.00    +0.000 A 
ENDBRANCH   2   3
BRANCH   1   9
ATOM      9  C   UNL     1      19.693  10.301  38.759  0.00  0.00    +0.000 A 
ATOM     10  N   UNL     1      20.565   9.663  38.020  0.00  0.00    +0.000 NA
ATOM     11  C   UNL     1      21.638  10.253  37.601  0.00  0.00    +0.000 A 
ATOM     12  O   UNL     1      22.612   9.602  36.797  0.00  0.00    +0.000 OA
ATOM     13  C   UNL     1      21.822  11.564  37.961  0.00  0.00    +0.000 A 
ATOM     14  S   UNL     1      20.421  11.861  38.889  0.00  0.00    +0.000 S 
ENDBRANCH   1   9
BRANCH   1  15
ATOM     15  C   UNL     1      18.482   9.309  40.718  0.00  0.00    +0.000 C 
ATOM     16  O   UNL     1      18.842   9.996  41.675  0.00  0.00    +0.000 OA
BRANCH  15  18
ATOM     17  C   UNL     1      18.644   7.079  39.786  0.00  0.00    +0.000 C 
ATOM     18  C   UNL     1      18.124   7.887  40.931  0.00  0.00    +0.000 C 
ATOM     19  C   UNL     1      18.786   7.406  42.228  0.00  0.00    +0.000 C 
ATOM     20  C   UNL     1      16.609   7.746  41.105  0.00  0.00    +0.000 C 
ENDBRANCH  15  18
ENDBRANCH   1  15
TORSDOF 4
ENDMDL
MODEL 7
REMARK VINA RESULT:      -5.4     20.806     22.587
REMARK  Name = 
REMARK  4 active torsions:
REMARK  status: ('A' for Active; 'I' for Inactive)
REMARK    1  A    between atoms: C_2  and  C_5
REMARK    2  A    between atoms: C_5  and  C_7
REMARK    3  A    between atoms: C_7  and  C_15
REMARK    4  A    between atoms: C_8  and  C_9
REMARK                            x       y       z     vdW  Elec       q    Type
REMARK                         _______ _______ _______ _____ _____    ______ ____
ROOT
ATOM      1  C   UNL     1      24.693   3.718  16.618  0.00  0.00    +0.000 C 
ATOM      2  C   UNL     1      24.676   4.818  17.326  0.00  0.00    +0.000 C 
ENDROOT
BRANCH   2   3
ATOM      3  C   UNL     1      25.847   5.587  17.591  0.00  0.00    +0.000 A 
ATOM      4  C   UNL     1      26.327   6.582  16.800  0.00  0.00    +0.000 A 
ATOM      5  C   UNL     1      27.469   7.265  17.119  0.00  0.00    +0.000 A 
ATOM      6  C   UNL     1      28.144   6.934  18.266  0.00  0.00    +0.000 A 
ATOM      7  C   UNL     1      27.709   5.938  19.105  0.00  0.00    +0.000 A 
ATOM      8  C   UNL     1      26.550   5.263  18.758  0.00  0.00    +0.000 A 
ENDBRANCH   2   3
BRANCH   1   9
ATOM      9  C   UNL     1      25.928   3.114  16.067  0.00  0.00    +0.000 A 
ATOM     10  N   UNL     1      26.792   2.268  16.571  0.00  0.00    +0.000 NA
ATOM     11  C   UNL     1      27.818   1.880  15.886  0.00  0.00    +0.000 A 
ATOM     12  O   UNL     1      28.781   0.964  16.388  0.00  0.00    +0.000 OA
ATOM     13  C   UNL     1      27.964   2.388  14.620  0.00  0.00    +0.000 A 
ATOM     14  S   UNL     1      26.595   3.402  14.502  0.00  0.00    +0.000 S 
ENDBRANCH   1   9
BRANCH   1  15
ATOM     15  C   UNL     1      23.445   2.980  16.380  0.00  0.00    +0.000 C 
ATOM     16  O   UNL     1      22.880   3.030  15.287  0.00  0.00    +0.000 OA
BRANCH  15  18
ATOM     17  C   UNL     1      21.502   2.714  17.804  0.00  0.00    +0.000 C 
ATOM     18  C   UNL     1      22.855   2.169  17.472  0.00  0.00    +0.000 C 
ATOM     19  C   UNL     1      22.710   0.723  16.982  0.00  0.00    +0.000 C 
ATOM     20  C   UNL     1      23.793   2.156  18.683  0.00  0.00    +0.000 C 
ENDBRANCH  15  18
ENDBRANCH   1  15
TORSDOF 4
ENDMDL
MODEL 8
REMARK VINA RESULT:      -5.4      3.479      4.969
REMARK  Name = 
REMARK  4 active torsions:
REMARK  status: ('A' for Active; 'I' for Inactive)
REMARK    1  A    between atoms: C_2  and  C_5
REMARK    2  A    between atoms: C_5  and  C_7
REMARK    3  A    between atoms: C_7  and  C_15
REMARK    4  A    between atoms: C_8  and  C_9
REMARK                            x       y       z     vdW  Elec       q    Type
REMARK                         _______ _______ _______ _____ _____    ______ ____
ROOT
ATOM      1  C   UNL     1      27.949  23.492  25.631  0.00  0.00    +0.000 C 
ATOM      2  C   UNL     1      26.950  22.998  26.317  0.00  0.00    +0.000 C 
ENDROOT
BRANCH   2   3
ATOM      3  C   UNL     1      26.879  23.065  27.739  0.00  0.00    +0.000 A 
ATOM      4  C   UNL     1      27.547  22.250  28.597  0.00  0.00    +0.000 A 
ATOM      5  C   UNL     1      27.414  22.372  29.953  0.00  0.00    +0.000 A 
ATOM      6  C   UNL     1      26.584  23.341  30.456  0.00  0.00    +0.000 A 
ATOM      7  C   UNL     1      25.883  24.194  29.640  0.00  0.00    +0.000 A 
ATOM      8  C   UNL     1      26.037  24.049  28.271  0.00  0.00    +0.000 A 
ENDBRANCH   2   3
BRANCH   1   9
ATOM      9  C   UNL     1      29.143  24.115  26.250  0.00  0.00    +0.000 A 
ATOM     10  N   UNL     1      30.295  23.620  26.628  0.00  0.00    +0.000 NA
ATOM     11  C   UNL     1      31.200  24.376  27.159  0.00  0.00    +0.000 A 
ATOM     12  O   UNL     1      32.465  23.886  27.583  0.00  0.00    +0.000 OA
ATOM     13  C   UNL     1      30.905  25.708  27.309  0.00  0.00    +0.000 A 
ATOM     14  S   UNL     1      29.325  25.779  26.667  0.00  0.00    +0.000 S 
ENDBRANCH   1   9
BRANCH   1  15
ATOM     15  C   UNL     1      27.952  23.392  24.165  0.00  0.00    +0.000 C 
ATOM     16  O   UNL     1      28.814  22.736  23.579  0.00  0.00    +0.000 OA
BRANCH  15  18
ATOM     17  C   UNL     1      27.405  24.299  21.987  0.00  0.00    +0.000 C 
ATOM     18  C   UNL     1      26.908  24.093  23.382  0.00  0.00    +0.000 C 
ATOM     19  C   UNL     1      25.652  23.213  23.345  0.00  0.00    +0.000 C 
ATOM     20  C   UNL     1      26.530  25.410  24.067  0.00  0.00    +0.000 C 
ENDBRANCH  15  18
ENDBRANCH   1  15
TORSDOF 4
ENDMDL
MODEL 9
REMARK VINA RESULT:      -5.4     30.670     32.717
REMARK  Name = 
REMARK  4 active torsions:
REMARK  status: ('A' for Active; 'I' for Inactive)
REMARK    1  A    between atoms: C_2  and  C_5
REMARK    2  A    between atoms: C_5  and  C_7
REMARK    3  A    between atoms: C_7  and  C_15
REMARK    4  A    between atoms: C_8  and  C_9
REMARK                            x       y       z     vdW  Elec       q    Type
REMARK                         _______ _______ _______ _____ _____    ______ ____
ROOT
ATOM      1  C   UNL     1      34.187  -5.832  32.971  0.00  0.00    +0.000 C 
ATOM      2  C   UNL     1      34.913  -5.611  31.905  0.00  0.00    +0.000 C 
ENDROOT
BRANCH   2   3
ATOM      3  C   UNL     1      34.627  -6.197  30.637  0.00  0.00    +0.000 A 
ATOM      4  C   UNL     1      35.029  -7.430  30.234  0.00  0.00    +0.000 A 
ATOM      5  C   UNL     1      34.723  -7.916  28.992  0.00  0.00    +0.000 A 
ATOM      6  C   UNL     1      33.990  -7.135  28.135  0.00  0.00    +0.000 A 
ATOM      7  C   UNL     1      33.555  -5.881  28.485  0.00  0.00    +0.000 A 
ATOM      8  C   UNL     1      33.879  -5.414  29.748  0.00  0.00    +0.000 A 
ENDBRANCH   2   3
BRANCH   1   9
ATOM      9  C   UNL     1      33.032  -6.758  33.000  0.00  0.00    +0.000 A 
ATOM     10  N   UNL     1      32.934  -8.031  33.293  0.00  0.00    +0.000 NA
ATOM     11  C   UNL     1      31.793  -8.638  33.243  0.00  0.00    +0.000 A 
ATOM     12  O   UNL     1      31.637 -10.016  33.553  0.00  0.00    +0.000 OA
ATOM     13  C   UNL     1      30.698  -7.899  32.872  0.00  0.00    +0.000 A 
ATOM     14  S   UNL     1      31.396  -6.362  32.618  0.00  0.00    +0.000 S 
ENDBRANCH   1   9
BRANCH   1  15
ATOM     15  C   UNL     1      34.539  -5.188  34.243  0.00  0.00    +0.000 C 
ATOM     16  O   UNL     1      35.379  -5.687  34.993  0.00  0.00    +0.000 OA
BRANCH  15  18
ATOM     17  C   UNL     1      32.698  -4.243  35.503  0.00  0.00    +0.000 C 
ATOM     18  C   UNL     1      33.871  -3.923  34.633  0.00  0.00    +0.000 C 
ATOM     19  C   UNL     1      34.868  -3.069  35.425  0.00  0.00    +0.000 C 
ATOM     20  C   UNL     1      33.473  -3.131  33.384  0.00  0.00    +0.000 C 
ENDBRANCH  15  18
ENDBRANCH   1  15
TORSDOF 4
ENDMDL
MODEL 10
REMARK VINA RESULT:      -5.4      2.187      4.564
REMARK  Name = 
REMARK  4 active torsions:
REMARK  status: ('A' for Active; 'I' for Inactive)
REMARK    1  A    between atoms: C_2  and  C_5
REMARK    2  A    between atoms: C_5  and  C_7
REMARK    3  A    between atoms: C_7  and  C_15
REMARK    4  A    between atoms: C_8  and  C_9
REMARK                            x       y       z     vdW  Elec       q    Type
REMARK                         _______ _______ _______ _____ _____    ______ ____
ROOT
ATOM      1  C   UNL     1      28.162  23.915  25.313  0.00  0.00    +0.000 C 
ATOM      2  C   UNL     1      29.218  23.686  26.051  0.00  0.00    +0.000 C 
ENDROOT
BRANCH   2   3
ATOM      3  C   UNL     1      30.543  23.988  25.622  0.00  0.00    +0.000 A 
ATOM      4  C   UNL     1      31.373  23.130  24.974  0.00  0.00    +0.000 A 
ATOM      5  C   UNL     1      32.640  23.495  24.607  0.00  0.00    +0.000 A 
ATOM      6  C   UNL     1      33.080  24.760  24.903  0.00  0.00    +0.000 A 
ATOM      7  C   UNL     1      32.288  25.671  25.556  0.00  0.00    +0.000 A 
ATOM      8  C   UNL     1      31.010  25.276  25.916  0.00  0.00    +0.000 A 
ENDBRANCH   2   3
BRANCH   1   9
ATOM      9  C   UNL     1      28.225  24.449  23.932  0.00  0.00    +0.000 A 
ATOM     10  N   UNL     1      28.987  24.152  22.910  0.00  0.00    +0.000 NA
ATOM     11  C   UNL     1      28.856  24.771  21.781  0.00  0.00    +0.000 A 
ATOM     12  O   UNL     1      29.657  24.483  20.644  0.00  0.00    +0.000 OA
ATOM     13  C   UNL     1      27.893  25.746  21.703  0.00  0.00    +0.000 A 
ATOM     14  S   UNL     1      27.236  25.702  23.277  0.00  0.00    +0.000 S 
ENDBRANCH   1   9
BRANCH   1  15
ATOM     15  C   UNL     1      26.825  23.583  25.823  0.00  0.00    +0.000 C 
ATOM     16  O   UNL     1      26.167  22.668  25.324  0.00  0.00    +0.000 OA
BRANCH  15  18
ATOM     17  C   UNL     1      26.327  23.533  28.193  0.00  0.00    +0.000 C 
ATOM     18  C   UNL     1      26.258  24.361  26.950  0.00  0.00    +0.000 C 
ATOM     19  C   UNL     1      27.100  25.628  27.141  0.00  0.00    +0.000 C 
ATOM     20  C   UNL     1      24.828  24.801  26.620  0.00  0.00    +0.000 C 
ENDBRANCH  15  18
ENDBRANCH   1  15
TORSDOF 4
ENDMDL
