MODEL 1
REMARK VINA RESULT:      -7.3      0.000      0.000
REMARK  Name = 
REMARK  4 active torsions:
REMARK  status: ('A' for Active; 'I' for Inactive)
REMARK    1  A    between atoms: C_2  and  C_5
REMARK    2  A    between atoms: C_7  and  C_8
REMARK    3  A    between atoms: N_10  and  N_11
REMARK    4  A    between atoms: C_12  and  C_13
REMARK                            x       y       z     vdW  Elec       q    Type
REMARK                         _______ _______ _______ _____ _____    ______ ____
ROOT
ATOM      1  C   UNL     1      15.446  11.447  35.975  0.00  0.00    +0.000 C 
ATOM      2  O   UNL     1      14.460  11.916  36.554  0.00  0.00    +0.000 OA
ATOM      3  N   UNL     1      16.427  10.765  36.722  0.00  0.00    +0.000 NA
ENDROOT
BRANCH   1   6
ATOM      4  C   UNL     1      15.385  12.218  32.378  0.00  0.00    +0.000 A 
ATOM      5  C   UNL     1      14.909  12.404  33.655  0.00  0.00    +0.000 A 
ATOM      6  C   UNL     1      15.601  11.596  34.534  0.00  0.00    +0.000 A 
ATOM      7  N   UNL     1      16.502  10.923  33.758  0.00  0.00    +0.000 NA
ATOM      8  N   UNL     1      16.358  11.302  32.505  0.00  0.00    +0.000 NA
BRANCH   4  10
ATOM      9  C   UNL     1      14.377  11.763  30.203  0.00  0.00    +0.000 C 
ATOM     10  C   UNL     1      14.977  12.844  31.102  0.00  0.00    +0.000 C 
ATOM     11  C   UNL     1      13.898  13.883  31.323  0.00  0.00    +0.000 C 
ATOM     12  C   UNL     1      16.184  13.477  30.436  0.00  0.00    +0.000 C 
ENDBRANCH   4  10
ENDBRANCH   1   6
BRANCH   3  13
ATOM     13  N   UNL     1      16.330  10.598  38.118  0.00  0.00    +0.000 NA
ATOM     14  C   UNL     1      17.337   9.985  38.645  0.00  0.00    +0.000 C 
BRANCH  14  15
ATOM     15  C   UNL     1      17.418   9.722  40.056  0.00  0.00    +0.000 A 
ATOM     16  C   UNL     1      16.273   9.529  40.785  0.00  0.00    +0.000 A 
ATOM     17  C   UNL     1      16.349   9.274  42.162  0.00  0.00    +0.000 A 
ATOM     18  C   UNL     1      17.575   9.217  42.779  0.00  0.00    +0.000 A 
ATOM     19  F   UNL     1      17.645   8.968  44.116  0.00  0.00    +0.000 F 
ATOM     20  C   UNL     1      18.731   9.408  42.062  0.00  0.00    +0.000 A 
ATOM     21  C   UNL     1      18.633   9.661  40.692  0.00  0.00    +0.000 A 
ENDBRANCH  14  15
ENDBRANCH   3  13
TORSDOF 4
ENDMDL
MODEL 2
REMARK VINA RESULT:      -6.9      3.710      9.261
REMARK  Name = 
REMARK  4 active torsions:
REMARK  status: ('A' for Active; 'I' for Inactive)
REMARK    1  A    between atoms: C_2  and  C_5
REMARK    2  A    between atoms: C_7  and  C_8
REMARK    3  A    between atoms: N_10  and  N_11
REMARK    4  A    between atoms: C_12  and  C_13
REMARK                            x       y       z     vdW  Elec       q    Type
REMARK                         _______ _______ _______ _____ _____    ______ ____
ROOT
ATOM      1  C   UNL     1      17.778  10.793  37.413  0.00  0.00    +0.000 C 
ATOM      2  O   UNL     1      18.339  11.851  37.107  0.00  0.00    +0.000 OA
ATOM      3  N   UNL     1      17.057  10.083  36.433  0.00  0.00    +0.000 NA
ENDROOT
BRANCH   1   6
ATOM      4  C   UNL     1      17.387   9.380  40.788  0.00  0.00    +0.000 A 
ATOM      5  C   UNL     1      16.869   9.720  39.559  0.00  0.00    +0.000 A 
ATOM      6  C   UNL     1      17.855  10.281  38.775  0.00  0.00    +0.000 A 
ATOM      7  N   UNL     1      18.976  10.269  39.557  0.00  0.00    +0.000 NA
ATOM      8  N   UNL     1      18.679   9.739  40.726  0.00  0.00    +0.000 NA
BRANCH   4  10
ATOM      9  C   UNL     1      17.720   7.763  42.585  0.00  0.00    +0.000 C 
ATOM     10  C   UNL     1      16.741   8.758  41.963  0.00  0.00    +0.000 C 
ATOM     11  C   UNL     1      16.427   9.790  43.025  0.00  0.00    +0.000 C 
ATOM     12  C   UNL     1      15.471   8.050  41.530  0.00  0.00    +0.000 C 
ENDBRANCH   4  10
ENDBRANCH   1   6
BRANCH   3  13
ATOM     13  N   UNL     1      16.945  10.537  35.104  0.00  0.00    +0.000 NA
ATOM     14  C   UNL     1      15.837  11.151  34.850  0.00  0.00    +0.000 C 
BRANCH  14  15
ATOM     15  C   UNL     1      15.542  11.685  33.548  0.00  0.00    +0.000 A 
ATOM     16  C   UNL     1      16.188  11.196  32.442  0.00  0.00    +0.000 A 
ATOM     17  C   UNL     1      15.902  11.717  31.171  0.00  0.00    +0.000 A 
ATOM     18  C   UNL     1      14.972  12.719  31.038  0.00  0.00    +0.000 A 
ATOM     19  F   UNL     1      14.696  13.222  29.802  0.00  0.00    +0.000 F 
ATOM     20  C   UNL     1      14.316  13.219  32.137  0.00  0.00    +0.000 A 
ATOM     21  C   UNL     1      14.615  12.687  33.393  0.00  0.00    +0.000 A 
ENDBRANCH  14  15
ENDBRANCH   3  13
TORSDOF 4
ENDMDL
MODEL 3
REMARK VINA RESULT:      -6.8     20.471     22.082
REMARK  Name = 
REMARK  4 active torsions:
REMARK  status: ('A' for Active; 'I' for Inactive)
REMARK    1  A    between atoms: C_2  and  C_5
REMARK    2  A    between atoms: C_7  and  C_8
REMARK    3  A    between atoms: N_10  and  N_11
REMARK    4  A    between atoms: C_12  and  C_13
REMARK                            x       y       z     vdW  Elec       q    Type
REMARK                         _______ _______ _______ _____ _____    ______ ____
ROOT
ATOM      1  C   UNL     1      32.847  -1.906  34.600  0.00  0.00    +0.000 C 
ATOM      2  O   UNL     1      32.119  -1.709  35.578  0.00  0.00    +0.000 OA
ATOM      3  N   UNL     1      33.640  -0.852  34.105  0.00  0.00    +0.000 NA
ENDROOT
BRANCH   1   6
ATOM      4  C   UNL     1      33.343  -4.953  32.599  0.00  0.00    +0.000 A 
ATOM      5  C   UNL     1      33.622  -3.633  32.867  0.00  0.00    +0.000 A 
ATOM      6  C   UNL     1      32.888  -3.212  33.957  0.00  0.00    +0.000 A 
ATOM      7  N   UNL     1      32.164  -4.307  34.337  0.00  0.00    +0.000 NA
ATOM      8  N   UNL     1      32.446  -5.310  33.531  0.00  0.00    +0.000 NA
BRANCH   4  10
ATOM      9  C   UNL     1      35.385  -5.933  31.692  0.00  0.00    +0.000 C 
ATOM     10  C   UNL     1      33.867  -5.849  31.545  0.00  0.00    +0.000 C 
ATOM     11  C   UNL     1      33.329  -7.255  31.706  0.00  0.00    +0.000 C 
ATOM     12  C   UNL     1      33.497  -5.300  30.180  0.00  0.00    +0.000 C 
ENDBRANCH   4  10
ENDBRANCH   1   6
BRANCH   3  13
ATOM     13  N   UNL     1      33.634   0.433  34.684  0.00  0.00    +0.000 NA
ATOM     14  C   UNL     1      33.580   1.396  33.826  0.00  0.00    +0.000 C 
BRANCH  14  15
ATOM     15  C   UNL     1      33.565   2.777  34.228  0.00  0.00    +0.000 A 
ATOM     16  C   UNL     1      33.047   3.730  33.390  0.00  0.00    +0.000 A 
ATOM     17  C   UNL     1      33.033   5.078  33.779  0.00  0.00    +0.000 A 
ATOM     18  C   UNL     1      33.540   5.440  35.004  0.00  0.00    +0.000 A 
ATOM     19  F   UNL     1      33.523   6.749  35.379  0.00  0.00    +0.000 F 
ATOM     20  C   UNL     1      34.062   4.495  35.854  0.00  0.00    +0.000 A 
ATOM     21  C   UNL     1      34.067   3.160  35.447  0.00  0.00    +0.000 A 
ENDBRANCH  14  15
ENDBRANCH   3  13
TORSDOF 4
ENDMDL
MODEL 4
REMARK VINA RESULT:      -6.7      2.081      2.362
REMARK  Name = 
REMARK  4 active torsions:
REMARK  status: ('A' for Active; 'I' for Inactive)
REMARK    1  A    between atoms: C_2  and  C_5
REMARK    2  A    between atoms: C_7  and  C_8
REMARK    3  A    between atoms: N_10  and  N_11
REMARK    4  A    between atoms: C_12  and  C_13
REMARK                            x       y       z     vdW  Elec       q    Type
REMARK                         _______ _______ _______ _____ _____    ______ ____
ROOT
ATOM      1  C   UNL     1      15.755  11.296  35.975  0.00  0.00    +0.000 C 
ATOM      2  O   UNL     1      15.159  11.383  37.054  0.00  0.00    +0.000 OA
ATOM      3  N   UNL     1      16.935  10.530  35.898  0.00  0.00    +0.000 NA
ENDROOT
BRANCH   1   6
ATOM      4  C   UNL     1      14.816  12.626  32.676  0.00  0.00    +0.000 A 
ATOM      5  C   UNL     1      15.504  11.727  33.458  0.00  0.00    +0.000 A 
ATOM      6  C   UNL     1      15.250  11.977  34.791  0.00  0.00    +0.000 A 
ATOM      7  N   UNL     1      14.396  13.043  34.792  0.00  0.00    +0.000 NA
ATOM      8  N   UNL     1      14.157  13.404  33.548  0.00  0.00    +0.000 NA
BRANCH   4  10
ATOM      9  C   UNL     1      13.682  13.798  30.861  0.00  0.00    +0.000 C 
ATOM     10  C   UNL     1      14.760  12.771  31.205  0.00  0.00    +0.000 C 
ATOM     11  C   UNL     1      16.068  13.304  30.659  0.00  0.00    +0.000 C 
ATOM     12  C   UNL     1      14.436  11.431  30.573  0.00  0.00    +0.000 C 
ENDBRANCH   4  10
ENDBRANCH   1   6
BRANCH   3  13
ATOM     13  N   UNL     1      17.471   9.857  37.014  0.00  0.00    +0.000 NA
ATOM     14  C   UNL     1      18.454  10.475  37.580  0.00  0.00    +0.000 C 
BRANCH  14  15
ATOM     15  C   UNL     1      19.129   9.943  38.733  0.00  0.00    +0.000 A 
ATOM     16  C   UNL     1      18.900   8.650  39.126  0.00  0.00    +0.000 A 
ATOM     17  C   UNL     1      19.557   8.129  40.251  0.00  0.00    +0.000 A 
ATOM     18  C   UNL     1      20.429   8.920  40.958  0.00  0.00    +0.000 A 
ATOM     19  F   UNL     1      21.065   8.410  42.050  0.00  0.00    +0.000 F 
ATOM     20  C   UNL     1      20.668  10.218  40.577  0.00  0.00    +0.000 A 
ATOM     21  C   UNL     1      20.005  10.717  39.454  0.00  0.00    +0.000 A 
ENDBRANCH  14  15
ENDBRANCH   3  13
TORSDOF 4
ENDMDL
MODEL 5
REMARK VINA RESULT:      -6.5      4.905      7.938
REMARK  Name = 
REMARK  4 active torsions:
REMARK  status: ('A' for Active; 'I' for Inactive)
REMARK    1  A    between atoms: C_2  and  C_5
REMARK    2  A    between atoms: C_7  and  C_8
REMARK    3  A    between atoms: N_10  and  N_11
REMARK    4  A    between atoms: C_12  and  C_13
REMARK                            x       y       z     vdW  Elec       q    Type
REMARK                         _______ _______ _______ _____ _____    ______ ____
ROOT
ATOM      1  C   UNL     1      19.190   9.977  38.529  0.00  0.00    +0.000 C 
ATOM      2  O   UNL     1      18.571   9.841  39.590  0.00  0.00    +0.000 OA
ATOM      3  N   UNL     1      18.474  10.165  37.331  0.00  0.00    +0.000 NA
ENDROOT
BRANCH   1   6
ATOM      4  C   UNL     1      22.815  10.066  37.911  0.00  0.00    +0.000 A 
ATOM      5  C   UNL     1      21.519  10.245  37.487  0.00  0.00    +0.000 A 
ATOM      6  C   UNL     1      20.646   9.942  38.511  0.00  0.00    +0.000 A 
ATOM      7  N   UNL     1      21.445   9.579  39.558  0.00  0.00    +0.000 NA
ATOM      8  N   UNL     1      22.706   9.659  39.185  0.00  0.00    +0.000 NA
BRANCH   4  10
ATOM      9  C   UNL     1      23.906   9.813  35.742  0.00  0.00    +0.000 C 
ATOM     10  C   UNL     1      24.094  10.256  37.193  0.00  0.00    +0.000 C 
ATOM     11  C   UNL     1      24.491  11.717  37.161  0.00  0.00    +0.000 C 
ATOM     12  C   UNL     1      25.180   9.434  37.861  0.00  0.00    +0.000 C 
ENDBRANCH   4  10
ENDBRANCH   1   6
BRANCH   3  13
ATOM     13  N   UNL     1      17.066  10.200  37.291  0.00  0.00    +0.000 NA
ATOM     14  C   UNL     1      16.573  11.389  37.176  0.00  0.00    +0.000 C 
BRANCH  14  15
ATOM     15  C   UNL     1      15.155  11.625  37.120  0.00  0.00    +0.000 A 
ATOM     16  C   UNL     1      14.313  10.952  37.967  0.00  0.00    +0.000 A 
ATOM     17  C   UNL     1      12.930  11.180  37.911  0.00  0.00    +0.000 A 
ATOM     18  C   UNL     1      12.422  12.080  37.007  0.00  0.00    +0.000 A 
ATOM     19  F   UNL     1      11.078  12.299  36.957  0.00  0.00    +0.000 F 
ATOM     20  C   UNL     1      13.254  12.762  36.152  0.00  0.00    +0.000 A 
ATOM     21  C   UNL     1      14.627  12.521  36.223  0.00  0.00    +0.000 A 
ENDBRANCH  14  15
ENDBRANCH   3  13
TORSDOF 4
ENDMDL
MODEL 6
REMARK VINA RESULT:      -6.5      3.938      4.686
REMARK  Name = 
REMARK  4 active torsions:
REMARK  status: ('A' for Active; 'I' for Inactive)
REMARK    1  A    between atoms: C_2  and  C_5
REMARK    2  A    between atoms: C_7  and  C_8
REMARK    3  A    between atoms: N_10  and  N_11
REMARK    4  A    between atoms: C_12  and  C_13
REMARK                            x       y       z     vdW  Elec       q    Type
REMARK                         _______ _______ _______ _____ _____    ______ ____
ROOT
ATOM      1  C   UNL     1      17.492  10.416  36.422  0.00  0.00    +0.000 C 
ATOM      2  O   UNL     1      17.122  10.101  37.558  0.00  0.00    +0.000 OA
ATOM      3  N   UNL     1      18.839  10.227  36.057  0.00  0.00    +0.000 NA
ENDROOT
BRANCH   1   6
ATOM      4  C   UNL     1      15.493  11.640  33.586  0.00  0.00    +0.000 A 
ATOM      5  C   UNL     1      16.595  10.986  34.086  0.00  0.00    +0.000 A 
ATOM      6  C   UNL     1      16.550  10.981  35.465  0.00  0.00    +0.000 A 
ATOM      7  N   UNL     1      15.398  11.644  35.782  0.00  0.00    +0.000 NA
ATOM      8  N   UNL     1      14.799  12.019  34.671  0.00  0.00    +0.000 NA
BRANCH   4  10
ATOM      9  C   UNL     1      16.349  12.148  31.358  0.00  0.00    +0.000 C 
ATOM     10  C   UNL     1      15.089  11.909  32.189  0.00  0.00    +0.000 C 
ATOM     11  C   UNL     1      14.382  10.714  31.586  0.00  0.00    +0.000 C 
ATOM     12  C   UNL     1      14.187  13.128  32.146  0.00  0.00    +0.000 C 
ENDBRANCH   4  10
ENDBRANCH   1   6
BRANCH   3  13
ATOM     13  N   UNL     1      19.793   9.692  36.945  0.00  0.00    +0.000 NA
ATOM     14  C   UNL     1      21.013   9.999  36.655  0.00  0.00    +0.000 C 
BRANCH  14  15
ATOM     15  C   UNL     1      22.125   9.545  37.446  0.00  0.00    +0.000 A 
ATOM     16  C   UNL     1      23.340   9.313  36.854  0.00  0.00    +0.000 A 
ATOM     17  C   UNL     1      24.424   8.868  37.624  0.00  0.00    +0.000 A 
ATOM     18  C   UNL     1      24.267   8.665  38.973  0.00  0.00    +0.000 A 
ATOM     19  F   UNL     1      25.323   8.234  39.717  0.00  0.00    +0.000 F 
ATOM     20  C   UNL     1      23.055   8.894  39.580  0.00  0.00    +0.000 A 
ATOM     21  C   UNL     1      21.988   9.336  38.796  0.00  0.00    +0.000 A 
ENDBRANCH  14  15
ENDBRANCH   3  13
TORSDOF 4
ENDMDL
MODEL 7
REMARK VINA RESULT:      -6.5     20.720     22.281
REMARK  Name = 
REMARK  4 active torsions:
REMARK  status: ('A' for Active; 'I' for Inactive)
REMARK    1  A    between atoms: C_2  and  C_5
REMARK    2  A    between atoms: C_7  and  C_8
REMARK    3  A    between atoms: N_10  and  N_11
REMARK    4  A    between atoms: C_12  and  C_13
REMARK                            x       y       z     vdW  Elec       q    Type
REMARK                         _______ _______ _______ _____ _____    ______ ____
ROOT
ATOM      1  C   UNL     1      33.079  -2.263  34.312  0.00  0.00    +0.000 C 
ATOM      2  O   UNL     1      32.614  -2.152  35.451  0.00  0.00    +0.000 OA
ATOM      3  N   UNL     1      33.670  -1.143  33.695  0.00  0.00    +0.000 NA
ENDROOT
BRANCH   1   6
ATOM      4  C   UNL     1      33.351  -5.247  32.177  0.00  0.00    +0.000 A 
ATOM      5  C   UNL     1      33.745  -3.974  32.519  0.00  0.00    +0.000 A 
ATOM      6  C   UNL     1      33.017  -3.536  33.606  0.00  0.00    +0.000 A 
ATOM      7  N   UNL     1      32.179  -4.572  33.909  0.00  0.00    +0.000 NA
ATOM      8  N   UNL     1      32.392  -5.559  33.063  0.00  0.00    +0.000 NA
BRANCH   4  10
ATOM      9  C   UNL     1      33.713  -5.392  29.768  0.00  0.00    +0.000 C 
ATOM     10  C   UNL     1      33.823  -6.140  31.096  0.00  0.00    +0.000 C 
ATOM     11  C   UNL     1      35.282  -6.497  31.282  0.00  0.00    +0.000 C 
ATOM     12  C   UNL     1      32.976  -7.397  31.068  0.00  0.00    +0.000 C 
ENDBRANCH   4  10
ENDBRANCH   1   6
BRANCH   3  13
ATOM     13  N   UNL     1      33.750   0.112  34.329  0.00  0.00    +0.000 NA
ATOM     14  C   UNL     1      33.420   1.106  33.572  0.00  0.00    +0.000 C 
BRANCH  14  15
ATOM     15  C   UNL     1      33.440   2.464  34.044  0.00  0.00    +0.000 A 
ATOM     16  C   UNL     1      33.821   2.738  35.332  0.00  0.00    +0.000 A 
ATOM     17  C   UNL     1      33.838   4.062  35.794  0.00  0.00    +0.000 A 
ATOM     18  C   UNL     1      33.475   5.085  34.952  0.00  0.00    +0.000 A 
ATOM     19  F   UNL     1      33.495   6.369  35.404  0.00  0.00    +0.000 F 
ATOM     20  C   UNL     1      33.092   4.825  33.658  0.00  0.00    +0.000 A 
ATOM     21  C   UNL     1      33.080   3.500  33.218  0.00  0.00    +0.000 A 
ENDBRANCH  14  15
ENDBRANCH   3  13
TORSDOF 4
ENDMDL
MODEL 8
REMARK VINA RESULT:      -6.5      3.892      9.292
REMARK  Name = 
REMARK  4 active torsions:
REMARK  status: ('A' for Active; 'I' for Inactive)
REMARK    1  A    between atoms: C_2  and  C_5
REMARK    2  A    between atoms: C_7  and  C_8
REMARK    3  A    between atoms: N_10  and  N_11
REMARK    4  A    between atoms: C_12  and  C_13
REMARK                            x       y       z     vdW  Elec       q    Type
REMARK                         _______ _______ _______ _____ _____    ______ ____
ROOT
ATOM      1  C   UNL     1      17.675  10.849  37.367  0.00  0.00    +0.000 C 
ATOM      2  O   UNL     1      17.850  12.071  37.418  0.00  0.00    +0.000 OA
ATOM      3  N   UNL     1      16.776  10.318  36.421  0.00  0.00    +0.000 NA
ENDROOT
BRANCH   1   6
ATOM      4  C   UNL     1      18.922   8.473  39.884  0.00  0.00    +0.000 A 
ATOM      5  C   UNL     1      17.887   9.132  39.263  0.00  0.00    +0.000 A 
ATOM      6  C   UNL     1      18.384   9.959  38.277  0.00  0.00    +0.000 A 
ATOM      7  N   UNL     1      19.738   9.782  38.319  0.00  0.00    +0.000 NA
ATOM      8  N   UNL     1      20.029   8.911  39.263  0.00  0.00    +0.000 NA
BRANCH   4  10
ATOM      9  C   UNL     1      17.615   6.681  40.902  0.00  0.00    +0.000 C 
ATOM     10  C   UNL     1      18.908   7.490  40.989  0.00  0.00    +0.000 C 
ATOM     11  C   UNL     1      20.053   6.508  40.863  0.00  0.00    +0.000 C 
ATOM     12  C   UNL     1      18.988   8.218  42.318  0.00  0.00    +0.000 C 
ENDBRANCH   4  10
ENDBRANCH   1   6
BRANCH   3  13
ATOM     13  N   UNL     1      16.059  11.134  35.523  0.00  0.00    +0.000 NA
ATOM     14  C   UNL     1      16.158  10.769  34.288  0.00  0.00    +0.000 C 
BRANCH  14  15
ATOM     15  C   UNL     1      15.496  11.479  33.226  0.00  0.00    +0.000 A 
ATOM     16  C   UNL     1      14.789  12.622  33.501  0.00  0.00    +0.000 A 
ATOM     17  C   UNL     1      14.142  13.314  32.468  0.00  0.00    +0.000 A 
ATOM     18  C   UNL     1      14.219  12.846  31.179  0.00  0.00    +0.000 A 
ATOM     19  F   UNL     1      13.589  13.522  30.178  0.00  0.00    +0.000 F 
ATOM     20  C   UNL     1      14.924  11.703  30.888  0.00  0.00    +0.000 A 
ATOM     21  C   UNL     1      15.560  11.027  31.932  0.00  0.00    +0.000 A 
ENDBRANCH  14  15
ENDBRANCH   3  13
TORSDOF 4
ENDMDL
MODEL 9
REMARK VINA RESULT:      -6.4     22.341     25.670
REMARK  Name = 
REMARK  4 active torsions:
REMARK  status: ('A' for Active; 'I' for Inactive)
REMARK    1  A    between atoms: C_2  and  C_5
REMARK    2  A    between atoms: C_7  and  C_8
REMARK    3  A    between atoms: N_10  and  N_11
REMARK    4  A    between atoms: C_12  and  C_13
REMARK                            x       y       z     vdW  Elec       q    Type
REMARK                         _______ _______ _______ _____ _____    ______ ____
ROOT
ATOM      1  C   UNL     1      29.368  26.365  20.122  0.00  0.00    +0.000 C 
ATOM      2  O   UNL     1      28.548  26.894  20.879  0.00  0.00    +0.000 OA
ATOM      3  N   UNL     1      29.764  25.033  20.354  0.00  0.00    +0.000 NA
ENDROOT
BRANCH   1   6
ATOM      4  C   UNL     1      30.221  28.450  17.213  0.00  0.00    +0.000 A 
ATOM      5  C   UNL     1      29.309  27.984  18.131  0.00  0.00    +0.000 A 
ATOM      6  C   UNL     1      29.926  27.107  18.999  0.00  0.00    +0.000 A 
ATOM      7  N   UNL     1      31.227  27.057  18.583  0.00  0.00    +0.000 NA
ATOM      8  N   UNL     1      31.375  27.849  17.540  0.00  0.00    +0.000 NA
BRANCH   4  10
ATOM      9  C   UNL     1      28.706  30.104  16.250  0.00  0.00    +0.000 C 
ATOM     10  C   UNL     1      30.052  29.398  16.090  0.00  0.00    +0.000 C 
ATOM     11  C   UNL     1      31.119  30.472  16.117  0.00  0.00    +0.000 C 
ATOM     12  C   UNL     1      30.102  28.644  14.775  0.00  0.00    +0.000 C 
ENDBRANCH   4  10
ENDBRANCH   1   6
BRANCH   3  13
ATOM     13  N   UNL     1      29.261  24.274  21.428  0.00  0.00    +0.000 NA
ATOM     14  C   UNL     1      29.899  24.446  22.538  0.00  0.00    +0.000 C 
BRANCH  14  15
ATOM     15  C   UNL     1      29.531  23.756  23.745  0.00  0.00    +0.000 A 
ATOM     16  C   UNL     1      28.239  23.810  24.201  0.00  0.00    +0.000 A 
ATOM     17  C   UNL     1      27.879  23.139  25.379  0.00  0.00    +0.000 A 
ATOM     18  C   UNL     1      28.825  22.427  26.075  0.00  0.00    +0.000 A 
ATOM     19  F   UNL     1      28.471  21.775  27.217  0.00  0.00    +0.000 F 
ATOM     20  C   UNL     1      30.123  22.363  25.630  0.00  0.00    +0.000 A 
ATOM     21  C   UNL     1      30.461  23.038  24.455  0.00  0.00    +0.000 A 
ENDBRANCH  14  15
ENDBRANCH   3  13
TORSDOF 4
ENDMDL
MODEL 10
REMARK VINA RESULT:      -6.3     29.644     31.832
REMARK  Name = 
REMARK  4 active torsions:
REMARK  status: ('A' for Active; 'I' for Inactive)
REMARK    1  A    between atoms: C_2  and  C_5
REMARK    2  A    between atoms: C_7  and  C_8
REMARK    3  A    between atoms: N_10  and  N_11
REMARK    4  A    between atoms: C_12  and  C_13
REMARK                            x       y       z     vdW  Elec       q    Type
REMARK                         _______ _______ _______ _____ _____    ______ ____
ROOT
ATOM      1  C   UNL     1      32.913  20.433  11.171  0.00  0.00    +0.000 C 
ATOM      2  O   UNL     1      32.461  20.611  10.034  0.00  0.00    +0.000 OA
ATOM      3  N   UNL     1      32.067  20.600  12.285  0.00  0.00    +0.000 NA
ENDROOT
BRANCH   1   6
ATOM      4  C   UNL     1      36.316  19.540  12.246  0.00  0.00    +0.000 A 
ATOM      5  C   UNL     1      35.018  19.893  12.535  0.00  0.00    +0.000 A 
ATOM      6  C   UNL     1      34.307  20.059  11.364  0.00  0.00    +0.000 A 
ATOM      7  N   UNL     1      35.205  19.797  10.368  0.00  0.00    +0.000 NA
ATOM      8  N   UNL     1      36.369  19.497  10.906  0.00  0.00    +0.000 NA
BRANCH   4  10
ATOM      9  C   UNL     1      36.906  18.741  14.475  0.00  0.00    +0.000 C 
ATOM     10  C   UNL     1      37.456  19.255  13.145  0.00  0.00    +0.000 C 
ATOM     11  C   UNL     1      38.337  18.162  12.579  0.00  0.00    +0.000 C 
ATOM     12  C   UNL     1      38.264  20.521  13.360  0.00  0.00    +0.000 C 
ENDBRANCH   4  10
ENDBRANCH   1   6
BRANCH   3  13
ATOM     13  N   UNL     1      30.713  20.968  12.155  0.00  0.00    +0.000 NA
ATOM     14  C   UNL     1      30.443  22.146  12.610  0.00  0.00    +0.000 C 
BRANCH  14  15
ATOM     15  C   UNL     1      29.114  22.695  12.565  0.00  0.00    +0.000 A 
ATOM     16  C   UNL     1      28.683  23.531  13.563  0.00  0.00    +0.000 A 
ATOM     17  C   UNL     1      27.387  24.066  13.521  0.00  0.00    +0.000 A 
ATOM     18  C   UNL     1      26.552  23.752  12.477  0.00  0.00    +0.000 A 
ATOM     19  F   UNL     1      25.295  24.276  12.440  0.00  0.00    +0.000 F 
ATOM     20  C   UNL     1      26.971  22.917  11.470  0.00  0.00    +0.000 A 
ATOM     21  C   UNL     1      28.264  22.394  11.530  0.00  0.00    +0.000 A 
ENDBRANCH  14  15
ENDBRANCH   3  13
TORSDOF 4
ENDMDL
