MODEL 1
REMARK VINA RESULT:      -8.0      0.000      0.000
REMARK  Name = 
REMARK  7 active torsions:
REMARK  status: ('A' for Active; 'I' for Inactive)
REMARK    1  A    between atoms: C_2  and  C_3
REMARK    2  A    between atoms: C_3  and  O_4
REMARK    3  A    between atoms: O_4  and  C_5
REMARK    4  A    between atoms: C_8  and  C_9
REMARK    5  A    between atoms: C_19  and  O_20
REMARK    6  A    between atoms: O_20  and  C_21
REMARK    7  A    between atoms: C_21  and  C_22
REMARK                            x       y       z     vdW  Elec       q    Type
REMARK                         _______ _______ _______ _____ _____    ______ ____
ROOT
ATOM      1  C   UNL     1      36.758   2.650  13.935  0.00  0.00    +0.000 C 
ATOM      2  N   UNL     1      35.354   2.798  14.566  0.00  0.00    +0.000 NA
ATOM      3  C   UNL     1      35.263   3.114  15.882  0.00  0.00    +0.000 C 
ATOM      4  C   UNL     1      36.442   2.597  16.682  0.00  0.00    +0.000 C 
ATOM      5  C   UNL     1      37.510   3.507  16.208  0.00  0.00    +0.000 A 
ATOM      6  C   UNL     1      37.642   3.533  14.850  0.00  0.00    +0.000 A 
ATOM      7  N   UNL     1      38.606   4.381  14.538  0.00  0.00    +0.000 NA
ATOM      8  C   UNL     1      39.108   4.912  15.702  0.00  0.00    +0.000 A 
ATOM      9  C   UNL     1      40.100   5.824  15.957  0.00  0.00    +0.000 A 
ATOM     10  C   UNL     1      40.361   6.147  17.250  0.00  0.00    +0.000 A 
ATOM     11  C   UNL     1      39.683   5.608  18.315  0.00  0.00    +0.000 A 
ATOM     12  C   UNL     1      38.688   4.694  18.069  0.00  0.00    +0.000 A 
ATOM     13  C   UNL     1      38.399   4.347  16.779  0.00  0.00    +0.000 A 
ENDROOT
BRANCH   1  17
ATOM     14  C   UNL     1      37.869  -1.231  15.623  0.00  0.00    +0.000 A 
ATOM     15  C   UNL     1      36.535  -0.863  15.463  0.00  0.00    +0.000 A 
ATOM     16  C   UNL     1      36.210   0.359  14.932  0.00  0.00    +0.000 A 
ATOM     17  C   UNL     1      37.134   1.221  14.557  0.00  0.00    +0.000 A 
ATOM     18  C   UNL     1      38.466   0.933  14.680  0.00  0.00    +0.000 A 
ATOM     19  C   UNL     1      38.798  -0.300  15.218  0.00  0.00    +0.000 A 
BRANCH  14  20
ATOM     20  O   UNL     1      38.208  -2.460  16.160  0.00  0.00    +0.000 OA
BRANCH  20  21
ATOM     21  C   UNL     1      37.955  -2.964  17.403  0.00  0.00    +0.000 C 
BRANCH  21  23
ATOM     22  C   UNL     1      37.059  -1.454  19.236  0.00  0.00    +0.000 C 
ATOM     23  C   UNL     1      38.205  -2.178  18.608  0.00  0.00    +0.000 C 
ENDBRANCH  21  23
ENDBRANCH  20  21
ENDBRANCH  14  20
ENDBRANCH   1  17
BRANCH  11  24
ATOM     24  O   UNL     1      40.032   6.008  19.574  0.00  0.00    +0.000 OA
BRANCH  24  25
ATOM     25  C   UNL     1      40.872   7.071  19.846  0.00  0.00    +0.000 C 
BRANCH  25  26
ATOM     26  C   UNL     1      42.285   6.757  20.086  0.00  0.00    +0.000 A 
ATOM     27  C   UNL     1      42.681   6.086  21.224  0.00  0.00    +0.000 A 
ATOM     28  C   UNL     1      44.000   5.781  21.471  0.00  0.00    +0.000 A 
ATOM     29  C   UNL     1      44.998   6.130  20.591  0.00  0.00    +0.000 A 
ATOM     30  C   UNL     1      44.618   6.802  19.448  0.00  0.00    +0.000 A 
ATOM     31  C   UNL     1      43.300   7.101  19.211  0.00  0.00    +0.000 A 
ENDBRANCH  25  26
ENDBRANCH  24  25
ENDBRANCH  11  24
TORSDOF 7
ENDMDL
MODEL 2
REMARK VINA RESULT:      -8.0      1.534      2.681
REMARK  Name = 
REMARK  7 active torsions:
REMARK  status: ('A' for Active; 'I' for Inactive)
REMARK    1  A    between atoms: C_2  and  C_3
REMARK    2  A    between atoms: C_3  and  O_4
REMARK    3  A    between atoms: O_4  and  C_5
REMARK    4  A    between atoms: C_8  and  C_9
REMARK    5  A    between atoms: C_19  and  O_20
REMARK    6  A    between atoms: O_20  and  C_21
REMARK    7  A    between atoms: C_21  and  C_22
REMARK                            x       y       z     vdW  Elec       q    Type
REMARK                         _______ _______ _______ _____ _____    ______ ____
ROOT
ATOM      1  C   UNL     1      36.372   2.379  14.062  0.00  0.00    +0.000 C 
ATOM      2  N   UNL     1      35.017   2.438  14.805  0.00  0.00    +0.000 NA
ATOM      3  C   UNL     1      35.014   2.739  16.127  0.00  0.00    +0.000 C 
ATOM      4  C   UNL     1      36.283   2.289  16.824  0.00  0.00    +0.000 C 
ATOM      5  C   UNL     1      37.252   3.265  16.277  0.00  0.00    +0.000 A 
ATOM      6  C   UNL     1      37.272   3.308  14.912  0.00  0.00    +0.000 A 
ATOM      7  N   UNL     1      38.155   4.214  14.534  0.00  0.00    +0.000 NA
ATOM      8  C   UNL     1      38.717   4.768  15.660  0.00  0.00    +0.000 A 
ATOM      9  C   UNL     1      39.670   5.736  15.845  0.00  0.00    +0.000 A 
ATOM     10  C   UNL     1      40.015   6.067  17.116  0.00  0.00    +0.000 A 
ATOM     11  C   UNL     1      39.459   5.480  18.226  0.00  0.00    +0.000 A 
ATOM     12  C   UNL     1      38.503   4.509  18.051  0.00  0.00    +0.000 A 
ATOM     13  C   UNL     1      38.132   4.153  16.783  0.00  0.00    +0.000 A 
ENDROOT
BRANCH   1  17
ATOM     14  C   UNL     1      37.681  -1.488  15.637  0.00  0.00    +0.000 A 
ATOM     15  C   UNL     1      38.597  -0.520  15.231  0.00  0.00    +0.000 A 
ATOM     16  C   UNL     1      38.164   0.684  14.739  0.00  0.00    +0.000 A 
ATOM     17  C   UNL     1      36.882   0.971  14.635  0.00  0.00    +0.000 A 
ATOM     18  C   UNL     1      35.920   0.075  15.013  0.00  0.00    +0.000 A 
ATOM     19  C   UNL     1      36.354  -1.145  15.509  0.00  0.00    +0.000 A 
BRANCH  14  20
ATOM     20  O   UNL     1      38.106  -2.707  16.131  0.00  0.00    +0.000 OA
BRANCH  20  21
ATOM     21  C   UNL     1      37.765  -3.342  17.292  0.00  0.00    +0.000 C 
BRANCH  21  23
ATOM     22  C   UNL     1      37.543  -1.832  19.320  0.00  0.00    +0.000 C 
ATOM     23  C   UNL     1      38.285  -2.898  18.582  0.00  0.00    +0.000 C 
ENDBRANCH  21  23
ENDBRANCH  20  21
ENDBRANCH  14  20
ENDBRANCH   1  17
BRANCH  11  24
ATOM     24  O   UNL     1      39.884   5.893  19.457  0.00  0.00    +0.000 OA
BRANCH  24  25
ATOM     25  C   UNL     1      40.683   6.999  19.672  0.00  0.00    +0.000 C 
BRANCH  25  26
ATOM     26  C   UNL     1      40.015   8.222  20.134  0.00  0.00    +0.000 A 
ATOM     27  C   UNL     1      40.723   9.388  20.326  0.00  0.00    +0.000 A 
ATOM     28  C   UNL     1      40.118  10.547  20.759  0.00  0.00    +0.000 A 
ATOM     29  C   UNL     1      38.769  10.602  21.023  0.00  0.00    +0.000 A 
ATOM     30  C   UNL     1      38.047   9.442  20.835  0.00  0.00    +0.000 A 
ATOM     31  C   UNL     1      38.660   8.292  20.403  0.00  0.00    +0.000 A 
ENDBRANCH  25  26
ENDBRANCH  24  25
ENDBRANCH  11  24
TORSDOF 7
ENDMDL
MODEL 3
REMARK VINA RESULT:      -7.6     24.302     27.376
REMARK  Name = 
REMARK  7 active torsions:
REMARK  status: ('A' for Active; 'I' for Inactive)
REMARK    1  A    between atoms: C_2  and  C_3
REMARK    2  A    between atoms: C_3  and  O_4
REMARK    3  A    between atoms: O_4  and  C_5
REMARK    4  A    between atoms: C_8  and  C_9
REMARK    5  A    between atoms: C_19  and  O_20
REMARK    6  A    between atoms: O_20  and  C_21
REMARK    7  A    between atoms: C_21  and  C_22
REMARK                            x       y       z     vdW  Elec       q    Type
REMARK                         _______ _______ _______ _____ _____    ______ ____
ROOT
ATOM      1  C   UNL     1      12.508  -0.583  29.528  0.00  0.00    +0.000 C 
ATOM      2  N   UNL     1      12.065  -1.911  28.871  0.00  0.00    +0.000 NA
ATOM      3  C   UNL     1      12.489  -2.186  27.613  0.00  0.00    +0.000 C 
ATOM      4  C   UNL     1      12.715  -0.931  26.792  0.00  0.00    +0.000 C 
ATOM      5  C   UNL     1      13.941  -0.406  27.435  0.00  0.00    +0.000 A 
ATOM      6  C   UNL     1      13.827  -0.255  28.787  0.00  0.00    +0.000 A 
ATOM      7  N   UNL     1      14.974   0.203  29.256  0.00  0.00    +0.000 NA
ATOM      8  C   UNL     1      15.844   0.352  28.202  0.00  0.00    +0.000 A 
ATOM      9  C   UNL     1      17.143   0.785  28.121  0.00  0.00    +0.000 A 
ATOM     10  C   UNL     1      17.736   0.816  26.900  0.00  0.00    +0.000 A 
ATOM     11  C   UNL     1      17.103   0.438  25.742  0.00  0.00    +0.000 A 
ATOM     12  C   UNL     1      15.802   0.003  25.814  0.00  0.00    +0.000 A 
ATOM     13  C   UNL     1      15.174  -0.042  27.028  0.00  0.00    +0.000 A 
ENDROOT
BRANCH   1  17
ATOM     14  C   UNL     1       9.792   2.046  27.324  0.00  0.00    +0.000 A 
ATOM     15  C   UNL     1      11.074   2.460  27.681  0.00  0.00    +0.000 A 
ATOM     16  C   UNL     1      11.908   1.619  28.372  0.00  0.00    +0.000 A 
ATOM     17  C   UNL     1      11.536   0.403  28.721  0.00  0.00    +0.000 A 
ATOM     18  C   UNL     1      10.294  -0.077  28.406  0.00  0.00    +0.000 A 
ATOM     19  C   UNL     1       9.447   0.771  27.708  0.00  0.00    +0.000 A 
BRANCH  14  20
ATOM     20  O   UNL     1       8.942   2.887  26.629  0.00  0.00    +0.000 OA
BRANCH  20  21
ATOM     21  C   UNL     1       7.585   3.015  26.715  0.00  0.00    +0.000 C 
BRANCH  21  23
ATOM     22  C   UNL     1       7.788   5.285  27.834  0.00  0.00    +0.000 C 
ATOM     23  C   UNL     1       6.970   4.079  27.504  0.00  0.00    +0.000 C 
ENDBRANCH  21  23
ENDBRANCH  20  21
ENDBRANCH  14  20
ENDBRANCH   1  17
BRANCH  11  24
ATOM     24  O   UNL     1      17.800   0.512  24.570  0.00  0.00    +0.000 OA
BRANCH  24  25
ATOM     25  C   UNL     1      19.154   0.775  24.486  0.00  0.00    +0.000 C 
BRANCH  25  26
ATOM     26  C   UNL     1      19.899   0.094  23.421  0.00  0.00    +0.000 A 
ATOM     27  C   UNL     1      19.878  -1.280  23.307  0.00  0.00    +0.000 A 
ATOM     28  C   UNL     1      20.569  -1.941  22.317  0.00  0.00    +0.000 A 
ATOM     29  C   UNL     1      21.321  -1.263  21.385  0.00  0.00    +0.000 A 
ATOM     30  C   UNL     1      21.352   0.112  21.487  0.00  0.00    +0.000 A 
ATOM     31  C   UNL     1      20.659   0.761  22.477  0.00  0.00    +0.000 A 
ENDBRANCH  25  26
ENDBRANCH  24  25
ENDBRANCH  11  24
TORSDOF 7
ENDMDL
MODEL 4
REMARK VINA RESULT:      -7.5      2.301      9.125
REMARK  Name = 
REMARK  7 active torsions:
REMARK  status: ('A' for Active; 'I' for Inactive)
REMARK    1  A    between atoms: C_2  and  C_3
REMARK    2  A    between atoms: C_3  and  O_4
REMARK    3  A    between atoms: O_4  and  C_5
REMARK    4  A    between atoms: C_8  and  C_9
REMARK    5  A    between atoms: C_19  and  O_20
REMARK    6  A    between atoms: O_20  and  C_21
REMARK    7  A    between atoms: C_21  and  C_22
REMARK                            x       y       z     vdW  Elec       q    Type
REMARK                         _______ _______ _______ _____ _____    ______ ____
ROOT
ATOM      1  C   UNL     1      36.190   4.023  14.794  0.00  0.00    +0.000 C 
ATOM      2  N   UNL     1      37.026   3.752  13.522  0.00  0.00    +0.000 NA
ATOM      3  C   UNL     1      37.807   2.644  13.481  0.00  0.00    +0.000 C 
ATOM      4  C   UNL     1      38.296   2.232  14.856  0.00  0.00    +0.000 C 
ATOM      5  C   UNL     1      37.040   1.717  15.447  0.00  0.00    +0.000 A 
ATOM      6  C   UNL     1      36.006   2.607  15.394  0.00  0.00    +0.000 A 
ATOM      7  N   UNL     1      34.940   2.044  15.931  0.00  0.00    +0.000 NA
ATOM      8  C   UNL     1      35.279   0.776  16.340  0.00  0.00    +0.000 A 
ATOM      9  C   UNL     1      34.569  -0.227  16.949  0.00  0.00    +0.000 A 
ATOM     10  C   UNL     1      35.209  -1.392  17.227  0.00  0.00    +0.000 A 
ATOM     11  C   UNL     1      36.531  -1.617  16.930  0.00  0.00    +0.000 A 
ATOM     12  C   UNL     1      37.250  -0.618  16.320  0.00  0.00    +0.000 A 
ATOM     13  C   UNL     1      36.635   0.567  16.025  0.00  0.00    +0.000 A 
ENDROOT
BRANCH   1  17
ATOM     14  C   UNL     1      39.471   5.441  17.316  0.00  0.00    +0.000 A 
ATOM     15  C   UNL     1      38.476   4.607  17.820  0.00  0.00    +0.000 A 
ATOM     16  C   UNL     1      37.456   4.175  17.011  0.00  0.00    +0.000 A 
ATOM     17  C   UNL     1      37.379   4.526  15.743  0.00  0.00    +0.000 A 
ATOM     18  C   UNL     1      38.319   5.342  15.174  0.00  0.00    +0.000 A 
ATOM     19  C   UNL     1      39.351   5.782  15.989  0.00  0.00    +0.000 A 
BRANCH  14  20
ATOM     20  O   UNL     1      40.503   5.884  18.125  0.00  0.00    +0.000 OA
BRANCH  20  21
ATOM     21  C   UNL     1      40.533   6.057  19.479  0.00  0.00    +0.000 C 
BRANCH  21  23
ATOM     22  C   UNL     1      40.182   8.518  19.996  0.00  0.00    +0.000 C 
ATOM     23  C   UNL     1      39.741   7.097  20.131  0.00  0.00    +0.000 C 
ENDBRANCH  21  23
ENDBRANCH  20  21
ENDBRANCH  14  20
ENDBRANCH   1  17
BRANCH  11  24
ATOM     24  O   UNL     1      37.070  -2.829  17.257  0.00  0.00    +0.000 OA
BRANCH  24  25
ATOM     25  C   UNL     1      37.330  -3.835  16.347  0.00  0.00    +0.000 C 
BRANCH  25  26
ATOM     26  C   UNL     1      36.170  -4.542  15.789  0.00  0.00    +0.000 A 
ATOM     27  C   UNL     1      35.816  -5.794  16.243  0.00  0.00    +0.000 A 
ATOM     28  C   UNL     1      34.734  -6.477  15.734  0.00  0.00    +0.000 A 
ATOM     29  C   UNL     1      33.945  -5.942  14.742  0.00  0.00    +0.000 A 
ATOM     30  C   UNL     1      34.287  -4.689  14.278  0.00  0.00    +0.000 A 
ATOM     31  C   UNL     1      35.368  -4.018  14.792  0.00  0.00    +0.000 A 
ENDBRANCH  25  26
ENDBRANCH  24  25
ENDBRANCH  11  24
TORSDOF 7
ENDMDL
MODEL 5
REMARK VINA RESULT:      -7.5     24.469     27.526
REMARK  Name = 
REMARK  7 active torsions:
REMARK  status: ('A' for Active; 'I' for Inactive)
REMARK    1  A    between atoms: C_2  and  C_3
REMARK    2  A    between atoms: C_3  and  O_4
REMARK    3  A    between atoms: O_4  and  C_5
REMARK    4  A    between atoms: C_8  and  C_9
REMARK    5  A    between atoms: C_19  and  O_20
REMARK    6  A    between atoms: O_20  and  C_21
REMARK    7  A    between atoms: C_21  and  C_22
REMARK                            x       y       z     vdW  Elec       q    Type
REMARK                         _______ _______ _______ _____ _____    ______ ____
ROOT
ATOM      1  C   UNL     1      11.741  -1.233  28.717  0.00  0.00    +0.000 C 
ATOM      2  N   UNL     1      11.739  -2.733  28.340  0.00  0.00    +0.000 NA
ATOM      3  C   UNL     1      12.499  -3.141  27.293  0.00  0.00    +0.000 C 
ATOM      4  C   UNL     1      12.664  -2.058  26.244  0.00  0.00    +0.000 C 
ATOM      5  C   UNL     1      13.572  -1.130  26.955  0.00  0.00    +0.000 A 
ATOM      6  C   UNL     1      13.109  -0.745  28.181  0.00  0.00    +0.000 A 
ATOM      7  N   UNL     1      13.997   0.065  28.729  0.00  0.00    +0.000 NA
ATOM      8  C   UNL     1      15.047   0.212  27.855  0.00  0.00    +0.000 A 
ATOM      9  C   UNL     1      16.217   0.926  27.915  0.00  0.00    +0.000 A 
ATOM     10  C   UNL     1      17.068   0.859  26.860  0.00  0.00    +0.000 A 
ATOM     11  C   UNL     1      16.819   0.112  25.734  0.00  0.00    +0.000 A 
ATOM     12  C   UNL     1      15.651  -0.606  25.665  0.00  0.00    +0.000 A 
ATOM     13  C   UNL     1      14.771  -0.561  26.711  0.00  0.00    +0.000 A 
ENDROOT
BRANCH   1  17
ATOM     14  C   UNL     1       9.173   0.151  25.457  0.00  0.00    +0.000 A 
ATOM     15  C   UNL     1      10.229   0.927  25.929  0.00  0.00    +0.000 A 
ATOM     16  C   UNL     1      11.021   0.473  26.953  0.00  0.00    +0.000 A 
ATOM     17  C   UNL     1      10.818  -0.699  27.522  0.00  0.00    +0.000 A 
ATOM     18  C   UNL     1       9.801  -1.519  27.114  0.00  0.00    +0.000 A 
ATOM     19  C   UNL     1       8.997  -1.063  26.080  0.00  0.00    +0.000 A 
BRANCH  14  20
ATOM     20  O   UNL     1       8.366   0.601  24.427  0.00  0.00    +0.000 OA
BRANCH  20  21
ATOM     21  C   UNL     1       7.010   0.760  24.392  0.00  0.00    +0.000 C 
BRANCH  21  23
ATOM     22  C   UNL     1       6.348   2.742  25.832  0.00  0.00    +0.000 C 
ATOM     23  C   UNL     1       6.396   2.081  24.494  0.00  0.00    +0.000 C 
ENDBRANCH  21  23
ENDBRANCH  20  21
ENDBRANCH  14  20
ENDBRANCH   1  17
BRANCH  11  24
ATOM     24  O   UNL     1      17.749   0.121  24.734  0.00  0.00    +0.000 OA
BRANCH  24  25
ATOM     25  C   UNL     1      19.059  -0.291  24.887  0.00  0.00    +0.000 C 
BRANCH  25  26
ATOM     26  C   UNL     1      19.816  -0.568  23.661  0.00  0.00    +0.000 A 
ATOM     27  C   UNL     1      20.455   0.443  22.976  0.00  0.00    +0.000 A 
ATOM     28  C   UNL     1      21.170   0.208  21.824  0.00  0.00    +0.000 A 
ATOM     29  C   UNL     1      21.286  -1.055  21.292  0.00  0.00    +0.000 A 
ATOM     30  C   UNL     1      20.651  -2.078  21.965  0.00  0.00    +0.000 A 
ATOM     31  C   UNL     1      19.941  -1.833  23.113  0.00  0.00    +0.000 A 
ENDBRANCH  25  26
ENDBRANCH  24  25
ENDBRANCH  11  24
TORSDOF 7
ENDMDL
MODEL 6
REMARK VINA RESULT:      -7.4      3.543      9.907
REMARK  Name = 
REMARK  7 active torsions:
REMARK  status: ('A' for Active; 'I' for Inactive)
REMARK    1  A    between atoms: C_2  and  C_3
REMARK    2  A    between atoms: C_3  and  O_4
REMARK    3  A    between atoms: O_4  and  C_5
REMARK    4  A    between atoms: C_8  and  C_9
REMARK    5  A    between atoms: C_19  and  O_20
REMARK    6  A    between atoms: O_20  and  C_21
REMARK    7  A    between atoms: C_21  and  C_22
REMARK                            x       y       z     vdW  Elec       q    Type
REMARK                         _______ _______ _______ _____ _____    ______ ____
ROOT
ATOM      1  C   UNL     1      42.171   8.161  18.543  0.00  0.00    +0.000 C 
ATOM      2  N   UNL     1      42.683   7.450  19.818  0.00  0.00    +0.000 NA
ATOM      3  C   UNL     1      41.907   6.492  20.384  0.00  0.00    +0.000 C 
ATOM      4  C   UNL     1      40.429   6.733  20.148  0.00  0.00    +0.000 C 
ATOM      5  C   UNL     1      40.330   6.414  18.705  0.00  0.00    +0.000 A 
ATOM      6  C   UNL     1      41.208   7.115  17.930  0.00  0.00    +0.000 A 
ATOM      7  N   UNL     1      41.044   6.746  16.672  0.00  0.00    +0.000 NA
ATOM      8  C   UNL     1      40.052   5.796  16.625  0.00  0.00    +0.000 A 
ATOM      9  C   UNL     1      39.490   5.087  15.595  0.00  0.00    +0.000 A 
ATOM     10  C   UNL     1      38.504   4.200  15.886  0.00  0.00    +0.000 A 
ATOM     11  C   UNL     1      38.040   3.977  17.159  0.00  0.00    +0.000 A 
ATOM     12  C   UNL     1      38.597   4.682  18.197  0.00  0.00    +0.000 A 
ATOM     13  C   UNL     1      39.593   5.583  17.939  0.00  0.00    +0.000 A 
ENDROOT
BRANCH   1  17
ATOM     14  C   UNL     1      39.245  10.759  20.500  0.00  0.00    +0.000 A 
ATOM     15  C   UNL     1      38.958  10.118  19.297  0.00  0.00    +0.000 A 
ATOM     16  C   UNL     1      39.891   9.309  18.701  0.00  0.00    +0.000 A 
ATOM     17  C   UNL     1      41.079   9.107  19.236  0.00  0.00    +0.000 A 
ATOM     18  C   UNL     1      41.436   9.700  20.416  0.00  0.00    +0.000 A 
ATOM     19  C   UNL     1      40.496  10.520  21.021  0.00  0.00    +0.000 A 
BRANCH  14  20
ATOM     20  O   UNL     1      38.313  11.580  21.108  0.00  0.00    +0.000 OA
BRANCH  20  21
ATOM     21  C   UNL     1      38.432  12.878  21.515  0.00  0.00    +0.000 C 
BRANCH  21  23
ATOM     22  C   UNL     1      37.609  14.077  23.595  0.00  0.00    +0.000 C 
ATOM     23  C   UNL     1      38.629  13.219  22.921  0.00  0.00    +0.000 C 
ENDBRANCH  21  23
ENDBRANCH  20  21
ENDBRANCH  14  20
ENDBRANCH   1  17
BRANCH  11  24
ATOM     24  O   UNL     1      37.043   3.059  17.333  0.00  0.00    +0.000 OA
BRANCH  24  25
ATOM     25  C   UNL     1      36.242   2.580  16.314  0.00  0.00    +0.000 C 
BRANCH  25  26
ATOM     26  C   UNL     1      35.901   1.153  16.353  0.00  0.00    +0.000 A 
ATOM     27  C   UNL     1      34.948   0.674  17.227  0.00  0.00    +0.000 A 
ATOM     28  C   UNL     1      34.612  -0.660  17.283  0.00  0.00    +0.000 A 
ATOM     29  C   UNL     1      35.211  -1.590  16.465  0.00  0.00    +0.000 A 
ATOM     30  C   UNL     1      36.166  -1.126  15.585  0.00  0.00    +0.000 A 
ATOM     31  C   UNL     1      36.494   0.206  15.538  0.00  0.00    +0.000 A 
ENDBRANCH  25  26
ENDBRANCH  24  25
ENDBRANCH  11  24
TORSDOF 7
ENDMDL
MODEL 7
REMARK VINA RESULT:      -7.3      5.491      7.588
REMARK  Name = 
REMARK  7 active torsions:
REMARK  status: ('A' for Active; 'I' for Inactive)
REMARK    1  A    between atoms: C_2  and  C_3
REMARK    2  A    between atoms: C_3  and  O_4
REMARK    3  A    between atoms: O_4  and  C_5
REMARK    4  A    between atoms: C_8  and  C_9
REMARK    5  A    between atoms: C_19  and  O_20
REMARK    6  A    between atoms: O_20  and  C_21
REMARK    7  A    between atoms: C_21  and  C_22
REMARK                            x       y       z     vdW  Elec       q    Type
REMARK                         _______ _______ _______ _____ _____    ______ ____
ROOT
ATOM      1  C   UNL     1      36.756  -2.138  18.011  0.00  0.00    +0.000 C 
ATOM      2  N   UNL     1      38.223  -2.467  17.649  0.00  0.00    +0.000 NA
ATOM      3  C   UNL     1      38.742  -1.952  16.506  0.00  0.00    +0.000 C 
ATOM      4  C   UNL     1      37.687  -1.746  15.436  0.00  0.00    +0.000 C 
ATOM      5  C   UNL     1      36.952  -0.592  16.002  0.00  0.00    +0.000 A 
ATOM      6  C   UNL     1      36.513  -0.796  17.278  0.00  0.00    +0.000 A 
ATOM      7  N   UNL     1      35.887   0.293  17.686  0.00  0.00    +0.000 NA
ATOM      8  C   UNL     1      35.916   1.216  16.668  0.00  0.00    +0.000 A 
ATOM      9  C   UNL     1      35.426   2.492  16.553  0.00  0.00    +0.000 A 
ATOM     10  C   UNL     1      35.626   3.157  15.386  0.00  0.00    +0.000 A 
ATOM     11  C   UNL     1      36.293   2.617  14.314  0.00  0.00    +0.000 A 
ATOM     12  C   UNL     1      36.788   1.340  14.420  0.00  0.00    +0.000 A 
ATOM     13  C   UNL     1      36.604   0.643  15.582  0.00  0.00    +0.000 A 
ENDROOT
BRANCH   1  17
ATOM     14  C   UNL     1      34.870  -4.853  15.145  0.00  0.00    +0.000 A 
ATOM     15  C   UNL     1      34.295  -3.627  15.471  0.00  0.00    +0.000 A 
ATOM     16  C   UNL     1      34.903  -2.792  16.372  0.00  0.00    +0.000 A 
ATOM     17  C   UNL     1      36.041  -3.112  16.957  0.00  0.00    +0.000 A 
ATOM     18  C   UNL     1      36.669  -4.297  16.689  0.00  0.00    +0.000 A 
ATOM     19  C   UNL     1      36.056  -5.145  15.779  0.00  0.00    +0.000 A 
BRANCH  14  20
ATOM     20  O   UNL     1      34.263  -5.705  14.239  0.00  0.00    +0.000 OA
BRANCH  20  21
ATOM     21  C   UNL     1      34.064  -7.054  14.313  0.00  0.00    +0.000 C 
BRANCH  21  23
ATOM     22  C   UNL     1      33.806  -9.003  15.918  0.00  0.00    +0.000 C 
ATOM     23  C   UNL     1      33.363  -7.658  15.442  0.00  0.00    +0.000 C 
ENDBRANCH  21  23
ENDBRANCH  20  21
ENDBRANCH  14  20
ENDBRANCH   1  17
BRANCH  11  24
ATOM     24  O   UNL     1      36.434   3.379  13.190  0.00  0.00    +0.000 OA
BRANCH  24  25
ATOM     25  C   UNL     1      36.738   4.727  13.198  0.00  0.00    +0.000 C 
BRANCH  25  26
ATOM     26  C   UNL     1      35.743   5.637  12.618  0.00  0.00    +0.000 A 
ATOM     27  C   UNL     1      34.711   6.140  13.380  0.00  0.00    +0.000 A 
ATOM     28  C   UNL     1      33.765   6.993  12.858  0.00  0.00    +0.000 A 
ATOM     29  C   UNL     1      33.801   7.391  11.541  0.00  0.00    +0.000 A 
ATOM     30  C   UNL     1      34.827   6.895  10.766  0.00  0.00    +0.000 A 
ATOM     31  C   UNL     1      35.765   6.045  11.296  0.00  0.00    +0.000 A 
ENDBRANCH  25  26
ENDBRANCH  24  25
ENDBRANCH  11  24
TORSDOF 7
ENDMDL
MODEL 8
REMARK VINA RESULT:      -7.2      1.866      2.856
REMARK  Name = 
REMARK  7 active torsions:
REMARK  status: ('A' for Active; 'I' for Inactive)
REMARK    1  A    between atoms: C_2  and  C_3
REMARK    2  A    between atoms: C_3  and  O_4
REMARK    3  A    between atoms: O_4  and  C_5
REMARK    4  A    between atoms: C_8  and  C_9
REMARK    5  A    between atoms: C_19  and  O_20
REMARK    6  A    between atoms: O_20  and  C_21
REMARK    7  A    between atoms: C_21  and  C_22
REMARK                            x       y       z     vdW  Elec       q    Type
REMARK                         _______ _______ _______ _____ _____    ______ ____
ROOT
ATOM      1  C   UNL     1      38.771   0.532  12.278  0.00  0.00    +0.000 C 
ATOM      2  N   UNL     1      37.232   0.403  12.206  0.00  0.00    +0.000 NA
ATOM      3  C   UNL     1      36.488   0.915  13.219  0.00  0.00    +0.000 C 
ATOM      4  C   UNL     1      37.226   0.895  14.543  0.00  0.00    +0.000 C 
ATOM      5  C   UNL     1      38.228   1.960  14.310  0.00  0.00    +0.000 A 
ATOM      6  C   UNL     1      38.971   1.775  13.180  0.00  0.00    +0.000 A 
ATOM      7  N   UNL     1      39.816   2.782  13.063  0.00  0.00    +0.000 NA
ATOM      8  C   UNL     1      39.626   3.633  14.126  0.00  0.00    +0.000 A 
ATOM      9  C   UNL     1      40.222   4.812  14.493  0.00  0.00    +0.000 A 
ATOM     10  C   UNL     1      39.795   5.424  15.628  0.00  0.00    +0.000 A 
ATOM     11  C   UNL     1      38.797   4.922  16.427  0.00  0.00    +0.000 A 
ATOM     12  C   UNL     1      38.194   3.742  16.067  0.00  0.00    +0.000 A 
ATOM     13  C   UNL     1      38.599   3.100  14.929  0.00  0.00    +0.000 A 
ENDROOT
BRANCH   1  17
ATOM     14  C   UNL     1      39.444  -2.610  15.246  0.00  0.00    +0.000 A 
ATOM     15  C   UNL     1      40.203  -1.442  15.240  0.00  0.00    +0.000 A 
ATOM     16  C   UNL     1      39.974  -0.470  14.300  0.00  0.00    +0.000 A 
ATOM     17  C   UNL     1      39.041  -0.601  13.378  0.00  0.00    +0.000 A 
ATOM     18  C   UNL     1      38.254  -1.719  13.318  0.00  0.00    +0.000 A 
ATOM     19  C   UNL     1      38.483  -2.704  14.266  0.00  0.00    +0.000 A 
BRANCH  14  20
ATOM     20  O   UNL     1      39.668  -3.598  16.188  0.00  0.00    +0.000 OA
BRANCH  20  21
ATOM     21  C   UNL     1      38.804  -4.151  17.090  0.00  0.00    +0.000 C 
BRANCH  21  23
ATOM     22  C   UNL     1      38.358  -2.278  18.744  0.00  0.00    +0.000 C 
ATOM     23  C   UNL     1      37.841  -3.332  17.821  0.00  0.00    +0.000 C 
ENDBRANCH  21  23
ENDBRANCH  20  21
ENDBRANCH  14  20
ENDBRANCH   1  17
BRANCH  11  24
ATOM     24  O   UNL     1      38.450   5.625  17.546  0.00  0.00    +0.000 OA
BRANCH  24  25
ATOM     25  C   UNL     1      39.008   5.423  18.794  0.00  0.00    +0.000 C 
BRANCH  25  26
ATOM     26  C   UNL     1      39.836   6.507  19.335  0.00  0.00    +0.000 A 
ATOM     27  C   UNL     1      41.092   6.256  19.844  0.00  0.00    +0.000 A 
ATOM     28  C   UNL     1      41.886   7.256  20.358  0.00  0.00    +0.000 A 
ATOM     29  C   UNL     1      41.466   8.566  20.389  0.00  0.00    +0.000 A 
ATOM     30  C   UNL     1      40.212   8.833  19.884  0.00  0.00    +0.000 A 
ATOM     31  C   UNL     1      39.428   7.828  19.374  0.00  0.00    +0.000 A 
ENDBRANCH  25  26
ENDBRANCH  24  25
ENDBRANCH  11  24
TORSDOF 7
ENDMDL
MODEL 9
REMARK VINA RESULT:      -7.2      1.217      7.904
REMARK  Name = 
REMARK  7 active torsions:
REMARK  status: ('A' for Active; 'I' for Inactive)
REMARK    1  A    between atoms: C_2  and  C_3
REMARK    2  A    between atoms: C_3  and  O_4
REMARK    3  A    between atoms: O_4  and  C_5
REMARK    4  A    between atoms: C_8  and  C_9
REMARK    5  A    between atoms: C_19  and  O_20
REMARK    6  A    between atoms: O_20  and  C_21
REMARK    7  A    between atoms: C_21  and  C_22
REMARK                            x       y       z     vdW  Elec       q    Type
REMARK                         _______ _______ _______ _____ _____    ______ ____
ROOT
ATOM      1  C   UNL     1      37.654   6.115  15.158  0.00  0.00    +0.000 C 
ATOM      2  N   UNL     1      38.789   6.287  14.122  0.00  0.00    +0.000 NA
ATOM      3  C   UNL     1      39.559   5.213  13.817  0.00  0.00    +0.000 C 
ATOM      4  C   UNL     1      39.682   4.244  14.976  0.00  0.00    +0.000 C 
ATOM      5  C   UNL     1      38.319   3.666  14.991  0.00  0.00    +0.000 A 
ATOM      6  C   UNL     1      37.330   4.604  15.065  0.00  0.00    +0.000 A 
ATOM      7  N   UNL     1      36.163   3.984  15.059  0.00  0.00    +0.000 NA
ATOM      8  C   UNL     1      36.392   2.631  14.981  0.00  0.00    +0.000 A 
ATOM      9  C   UNL     1      35.555   1.546  14.942  0.00  0.00    +0.000 A 
ATOM     10  C   UNL     1      36.107   0.308  14.861  0.00  0.00    +0.000 A 
ATOM     11  C   UNL     1      37.462   0.087  14.818  0.00  0.00    +0.000 A 
ATOM     12  C   UNL     1      38.308   1.168  14.857  0.00  0.00    +0.000 A 
ATOM     13  C   UNL     1      37.785   2.428  14.937  0.00  0.00    +0.000 A 
ENDROOT
BRANCH   1  17
ATOM     14  C   UNL     1      40.181   6.074  18.730  0.00  0.00    +0.000 A 
ATOM     15  C   UNL     1      39.032   5.291  18.643  0.00  0.00    +0.000 A 
ATOM     16  C   UNL     1      38.254   5.320  17.514  0.00  0.00    +0.000 A 
ATOM     17  C   UNL     1      38.560   6.079  16.480  0.00  0.00    +0.000 A 
ATOM     18  C   UNL     1      39.672   6.875  16.488  0.00  0.00    +0.000 A 
ATOM     19  C   UNL     1      40.460   6.849  17.628  0.00  0.00    +0.000 A 
BRANCH  14  20
ATOM     20  O   UNL     1      40.970   6.054  19.865  0.00  0.00    +0.000 OA
BRANCH  20  21
ATOM     21  C   UNL     1      41.818   7.008  20.351  0.00  0.00    +0.000 C 
BRANCH  21  23
ATOM     22  C   UNL     1      43.664   5.755  21.562  0.00  0.00    +0.000 C 
ATOM     23  C   UNL     1      43.244   6.742  20.522  0.00  0.00    +0.000 C 
ENDBRANCH  21  23
ENDBRANCH  20  21
ENDBRANCH  14  20
ENDBRANCH   1  17
BRANCH  11  24
ATOM     24  O   UNL     1      37.905  -1.203  14.738  0.00  0.00    +0.000 OA
BRANCH  24  25
ATOM     25  C   UNL     1      37.299  -2.273  15.369  0.00  0.00    +0.000 C 
BRANCH  25  26
ATOM     26  C   UNL     1      37.681  -2.524  16.764  0.00  0.00    +0.000 A 
ATOM     27  C   UNL     1      37.263  -1.686  17.776  0.00  0.00    +0.000 A 
ATOM     28  C   UNL     1      37.608  -1.900  19.091  0.00  0.00    +0.000 A 
ATOM     29  C   UNL     1      38.392  -2.967  19.467  0.00  0.00    +0.000 A 
ATOM     30  C   UNL     1      38.818  -3.814  18.465  0.00  0.00    +0.000 A 
ATOM     31  C   UNL     1      38.468  -3.591  17.157  0.00  0.00    +0.000 A 
ENDBRANCH  25  26
ENDBRANCH  24  25
ENDBRANCH  11  24
TORSDOF 7
ENDMDL
MODEL 10
REMARK VINA RESULT:      -7.1      2.059      3.138
REMARK  Name = 
REMARK  7 active torsions:
REMARK  status: ('A' for Active; 'I' for Inactive)
REMARK    1  A    between atoms: C_2  and  C_3
REMARK    2  A    between atoms: C_3  and  O_4
REMARK    3  A    between atoms: O_4  and  C_5
REMARK    4  A    between atoms: C_8  and  C_9
REMARK    5  A    between atoms: C_19  and  O_20
REMARK    6  A    between atoms: O_20  and  C_21
REMARK    7  A    between atoms: C_21  and  C_22
REMARK                            x       y       z     vdW  Elec       q    Type
REMARK                         _______ _______ _______ _____ _____    ______ ____
ROOT
ATOM      1  C   UNL     1      37.984   3.427  13.189  0.00  0.00    +0.000 C 
ATOM      2  N   UNL     1      36.484   3.656  13.488  0.00  0.00    +0.000 NA
ATOM      3  C   UNL     1      36.105   3.886  14.770  0.00  0.00    +0.000 C 
ATOM      4  C   UNL     1      37.021   3.213  15.773  0.00  0.00    +0.000 C 
ATOM      5  C   UNL     1      38.231   4.055  15.641  0.00  0.00    +0.000 A 
ATOM      6  C   UNL     1      38.684   4.164  14.358  0.00  0.00    +0.000 A 
ATOM      7  N   UNL     1      39.751   4.942  14.354  0.00  0.00    +0.000 NA
ATOM      8  C   UNL     1      39.998   5.345  15.645  0.00  0.00    +0.000 A 
ATOM      9  C   UNL     1      40.962   6.146  16.202  0.00  0.00    +0.000 A 
ATOM     10  C   UNL     1      40.929   6.355  17.543  0.00  0.00    +0.000 A 
ATOM     11  C   UNL     1      39.981   5.805  18.371  0.00  0.00    +0.000 A 
ATOM     12  C   UNL     1      39.012   5.002  17.822  0.00  0.00    +0.000 A 
ATOM     13  C   UNL     1      39.015   4.772  16.474  0.00  0.00    +0.000 A 
ENDROOT
BRANCH   1  17
ATOM     14  C   UNL     1      38.220  -0.671  14.703  0.00  0.00    +0.000 A 
ATOM     15  C   UNL     1      39.307   0.197  14.782  0.00  0.00    +0.000 A 
ATOM     16  C   UNL     1      39.211   1.477  14.301  0.00  0.00    +0.000 A 
ATOM     17  C   UNL     1      38.101   1.932  13.752  0.00  0.00    +0.000 A 
ATOM     18  C   UNL     1      36.990   1.141  13.639  0.00  0.00    +0.000 A 
ATOM     19  C   UNL     1      37.084  -0.154  14.123  0.00  0.00    +0.000 A 
BRANCH  14  20
ATOM     20  O   UNL     1      38.307  -1.965  15.183  0.00  0.00    +0.000 OA
BRANCH  20  21
ATOM     21  C   UNL     1      37.693  -3.100  14.738  0.00  0.00    +0.000 C 
BRANCH  21  23
ATOM     22  C   UNL     1      35.332  -4.025  14.613  0.00  0.00    +0.000 C 
ATOM     23  C   UNL     1      36.531  -3.656  15.425  0.00  0.00    +0.000 C 
ENDBRANCH  21  23
ENDBRANCH  20  21
ENDBRANCH  14  20
ENDBRANCH   1  17
BRANCH  11  24
ATOM     24  O   UNL     1      40.048   6.085  19.706  0.00  0.00    +0.000 OA
BRANCH  24  25
ATOM     25  C   UNL     1      40.740   7.153  20.243  0.00  0.00    +0.000 C 
BRANCH  25  26
ATOM     26  C   UNL     1      39.997   8.406  20.417  0.00  0.00    +0.000 A 
ATOM     27  C   UNL     1      38.620   8.412  20.479  0.00  0.00    +0.000 A 
ATOM     28  C   UNL     1      37.900   9.575  20.641  0.00  0.00    +0.000 A 
ATOM     29  C   UNL     1      38.521  10.798  20.751  0.00  0.00    +0.000 A 
ATOM     30  C   UNL     1      39.899  10.808  20.690  0.00  0.00    +0.000 A 
ATOM     31  C   UNL     1      40.606   9.643  20.528  0.00  0.00    +0.000 A 
ENDBRANCH  25  26
ENDBRANCH  24  25
ENDBRANCH  11  24
TORSDOF 7
ENDMDL
