MODEL 1
REMARK VINA RESULT:      -7.4      0.000      0.000
REMARK  Name = 
REMARK  3 active torsions:
REMARK  status: ('A' for Active; 'I' for Inactive)
REMARK    1  A    between atoms: O_2  and  C_3
REMARK    2  A    between atoms: C_8  and  N_9
REMARK    3  A    between atoms: C_10  and  C_12
REMARK                            x       y       z     vdW  Elec       q    Type
REMARK                         _______ _______ _______ _____ _____    ______ ____
ROOT
ATOM      1  N   UNL     1      15.052  11.535  34.489  0.00  0.00    +0.000 NA
ATOM      2  C   UNL     1      16.022  11.775  35.460  0.00  0.00    +0.000 C 
ATOM      3  O   UNL     1      17.021  12.461  35.138  0.00  0.00    +0.000 OA
ENDROOT
BRANCH   2   4
ATOM      4  C   UNL     1      15.868  11.227  36.834  0.00  0.00    +0.000 A 
ATOM      5  C   UNL     1      16.984  10.750  37.467  0.00  0.00    +0.000 A 
ATOM      6  N   UNL     1      18.346  10.679  37.022  0.00  0.00    +0.000 NA
ATOM      7  S   UNL     1      16.398  10.231  38.971  0.00  0.00    +0.000 S 
ATOM      8  C   UNL     1      14.747  10.625  38.776  0.00  0.00    +0.000 A 
ATOM      9  C   UNL     1      14.698  11.159  37.527  0.00  0.00    +0.000 A 
ATOM     10  C   UNL     1      13.245  11.556  37.249  0.00  0.00    +0.000 C 
ATOM     11  C   UNL     1      12.463  10.775  38.246  0.00  0.00    +0.000 C 
ATOM     12  C   UNL     1      13.383  10.603  39.439  0.00  0.00    +0.000 C 
ENDBRANCH   2   4
BRANCH   1  18
ATOM     13  C   UNL     1      14.403  13.185  32.881  0.00  0.00    +0.000 A 
ATOM     14  C   UNL     1      14.418  13.689  31.608  0.00  0.00    +0.000 A 
ATOM     15  C   UNL     1      15.101  13.079  30.579  0.00  0.00    +0.000 A 
ATOM     16  C   UNL     1      15.790  11.920  30.851  0.00  0.00    +0.000 A 
ATOM     17  C   UNL     1      15.779  11.412  32.124  0.00  0.00    +0.000 A 
ATOM     18  C   UNL     1      15.103  12.008  33.162  0.00  0.00    +0.000 A 
BRANCH  13  20
ATOM     19  C   UNL     1      13.154  15.094  33.636  0.00  0.00    +0.000 C 
ATOM     20  O   UNL     1      13.704  13.830  33.883  0.00  0.00    +0.000 OA
ENDBRANCH  13  20
ENDBRANCH   1  18
TORSDOF 3
ENDMDL
MODEL 2
REMARK VINA RESULT:      -7.1      1.782      3.509
REMARK  Name = 
REMARK  3 active torsions:
REMARK  status: ('A' for Active; 'I' for Inactive)
REMARK    1  A    between atoms: O_2  and  C_3
REMARK    2  A    between atoms: C_8  and  N_9
REMARK    3  A    between atoms: C_10  and  C_12
REMARK                            x       y       z     vdW  Elec       q    Type
REMARK                         _______ _______ _______ _____ _____    ______ ____
ROOT
ATOM      1  N   UNL     1      14.669  11.966  35.560  0.00  0.00    +0.000 NA
ATOM      2  C   UNL     1      15.700  12.221  36.462  0.00  0.00    +0.000 C 
ATOM      3  O   UNL     1      16.382  13.261  36.298  0.00  0.00    +0.000 OA
ENDROOT
BRANCH   2   4
ATOM      4  C   UNL     1      15.976  11.282  37.581  0.00  0.00    +0.000 A 
ATOM      5  C   UNL     1      14.944  10.961  38.423  0.00  0.00    +0.000 A 
ATOM      6  N   UNL     1      13.575  11.389  38.420  0.00  0.00    +0.000 NA
ATOM      7  S   UNL     1      15.654   9.892  39.532  0.00  0.00    +0.000 S 
ATOM      8  C   UNL     1      17.246   9.868  38.915  0.00  0.00    +0.000 A 
ATOM      9  C   UNL     1      17.180  10.704  37.845  0.00  0.00    +0.000 A 
ATOM     10  C   UNL     1      18.571  10.752  37.206  0.00  0.00    +0.000 C 
ATOM     11  C   UNL     1      19.475  10.253  38.279  0.00  0.00    +0.000 C 
ATOM     12  C   UNL     1      18.638   9.294  39.103  0.00  0.00    +0.000 C 
ENDBRANCH   2   4
BRANCH   1  18
ATOM     13  C   UNL     1      14.707  12.349  33.198  0.00  0.00    +0.000 A 
ATOM     14  C   UNL     1      14.401  13.111  32.102  0.00  0.00    +0.000 A 
ATOM     15  C   UNL     1      13.726  14.307  32.199  0.00  0.00    +0.000 A 
ATOM     16  C   UNL     1      13.350  14.745  33.447  0.00  0.00    +0.000 A 
ATOM     17  C   UNL     1      13.655  13.986  34.548  0.00  0.00    +0.000 A 
ATOM     18  C   UNL     1      14.327  12.790  34.469  0.00  0.00    +0.000 A 
BRANCH  13  20
ATOM     19  C   UNL     1      14.804  10.114  32.322  0.00  0.00    +0.000 C 
ATOM     20  O   UNL     1      15.386  11.154  33.055  0.00  0.00    +0.000 OA
ENDBRANCH  13  20
ENDBRANCH   1  18
TORSDOF 3
ENDMDL
MODEL 3
REMARK VINA RESULT:      -6.6      2.576      6.476
REMARK  Name = 
REMARK  3 active torsions:
REMARK  status: ('A' for Active; 'I' for Inactive)
REMARK    1  A    between atoms: O_2  and  C_3
REMARK    2  A    between atoms: C_8  and  N_9
REMARK    3  A    between atoms: C_10  and  C_12
REMARK                            x       y       z     vdW  Elec       q    Type
REMARK                         _______ _______ _______ _____ _____    ______ ____
ROOT
ATOM      1  N   UNL     1      16.711  10.954  35.589  0.00  0.00    +0.000 NA
ATOM      2  C   UNL     1      15.525  11.445  35.047  0.00  0.00    +0.000 C 
ATOM      3  O   UNL     1      14.528  11.539  35.801  0.00  0.00    +0.000 OA
ENDROOT
BRANCH   2   4
ATOM      4  C   UNL     1      15.455  11.841  33.615  0.00  0.00    +0.000 A 
ATOM      5  C   UNL     1      16.238  11.163  32.719  0.00  0.00    +0.000 A 
ATOM      6  N   UNL     1      17.161  10.085  32.922  0.00  0.00    +0.000 NA
ATOM      7  S   UNL     1      15.874  11.900  31.236  0.00  0.00    +0.000 S 
ATOM      8  C   UNL     1      14.736  13.055  31.772  0.00  0.00    +0.000 A 
ATOM      9  C   UNL     1      14.669  12.832  33.111  0.00  0.00    +0.000 A 
ATOM     10  C   UNL     1      13.660  13.824  33.697  0.00  0.00    +0.000 C 
ATOM     11  C   UNL     1      13.551  14.881  32.655  0.00  0.00    +0.000 C 
ATOM     12  C   UNL     1      13.819  14.183  31.337  0.00  0.00    +0.000 C 
ENDBRANCH   2   4
BRANCH   1  18
ATOM     13  C   UNL     1      18.059   9.865  37.240  0.00  0.00    +0.000 A 
ATOM     14  C   UNL     1      18.276   9.451  38.527  0.00  0.00    +0.000 A 
ATOM     15  C   UNL     1      17.374   9.683  39.540  0.00  0.00    +0.000 A 
ATOM     16  C   UNL     1      16.214  10.358  39.239  0.00  0.00    +0.000 A 
ATOM     17  C   UNL     1      15.992  10.775  37.952  0.00  0.00    +0.000 A 
ATOM     18  C   UNL     1      16.881  10.552  36.929  0.00  0.00    +0.000 A 
BRANCH  13  20
ATOM     19  C   UNL     1      20.353   9.791  36.528  0.00  0.00    +0.000 C 
ATOM     20  O   UNL     1      18.992   9.610  36.254  0.00  0.00    +0.000 OA
ENDBRANCH  13  20
ENDBRANCH   1  18
TORSDOF 3
ENDMDL
MODEL 4
REMARK VINA RESULT:      -6.6      2.108      3.275
REMARK  Name = 
REMARK  3 active torsions:
REMARK  status: ('A' for Active; 'I' for Inactive)
REMARK    1  A    between atoms: O_2  and  C_3
REMARK    2  A    between atoms: C_8  and  N_9
REMARK    3  A    between atoms: C_10  and  C_12
REMARK                            x       y       z     vdW  Elec       q    Type
REMARK                         _______ _______ _______ _____ _____    ______ ____
ROOT
ATOM      1  N   UNL     1      15.740  10.992  36.313  0.00  0.00    +0.000 NA
ATOM      2  C   UNL     1      16.912  11.263  37.016  0.00  0.00    +0.000 C 
ATOM      3  O   UNL     1      17.491  12.353  36.798  0.00  0.00    +0.000 OA
ENDROOT
BRANCH   2   4
ATOM      4  C   UNL     1      17.452  10.281  37.993  0.00  0.00    +0.000 A 
ATOM      5  C   UNL     1      18.655   9.688  37.715  0.00  0.00    +0.000 A 
ATOM      6  N   UNL     1      19.533   9.851  36.593  0.00  0.00    +0.000 NA
ATOM      7  S   UNL     1      18.910   8.663  39.042  0.00  0.00    +0.000 S 
ATOM      8  C   UNL     1      17.490   9.000  39.929  0.00  0.00    +0.000 A 
ATOM      9  C   UNL     1      16.847   9.915  39.157  0.00  0.00    +0.000 A 
ATOM     10  C   UNL     1      15.547  10.295  39.872  0.00  0.00    +0.000 C 
ATOM     11  C   UNL     1      15.330   9.181  40.836  0.00  0.00    +0.000 C 
ATOM     12  C   UNL     1      16.714   8.676  41.192  0.00  0.00    +0.000 C 
ENDBRANCH   2   4
BRANCH   1  18
ATOM     13  C   UNL     1      15.417  11.598  34.021  0.00  0.00    +0.000 A 
ATOM     14  C   UNL     1      14.868  12.404  33.060  0.00  0.00    +0.000 A 
ATOM     15  C   UNL     1      14.051  13.469  33.367  0.00  0.00    +0.000 A 
ATOM     16  C   UNL     1      13.783  13.724  34.692  0.00  0.00    +0.000 A 
ATOM     17  C   UNL     1      14.330  12.920  35.657  0.00  0.00    +0.000 A 
ATOM     18  C   UNL     1      15.147  11.853  35.369  0.00  0.00    +0.000 A 
BRANCH  13  20
ATOM     19  C   UNL     1      16.641  10.399  32.335  0.00  0.00    +0.000 C 
ATOM     20  O   UNL     1      16.232  10.539  33.667  0.00  0.00    +0.000 OA
ENDBRANCH  13  20
ENDBRANCH   1  18
TORSDOF 3
ENDMDL
MODEL 5
REMARK VINA RESULT:      -6.5      2.701      3.957
REMARK  Name = 
REMARK  3 active torsions:
REMARK  status: ('A' for Active; 'I' for Inactive)
REMARK    1  A    between atoms: O_2  and  C_3
REMARK    2  A    between atoms: C_8  and  N_9
REMARK    3  A    between atoms: C_10  and  C_12
REMARK                            x       y       z     vdW  Elec       q    Type
REMARK                         _______ _______ _______ _____ _____    ______ ____
ROOT
ATOM      1  N   UNL     1      17.099   9.984  37.042  0.00  0.00    +0.000 NA
ATOM      2  C   UNL     1      18.034  10.552  37.905  0.00  0.00    +0.000 C 
ATOM      3  O   UNL     1      18.518  11.667  37.598  0.00  0.00    +0.000 OA
ENDROOT
BRANCH   2   4
ATOM      4  C   UNL     1      18.440   9.847  39.150  0.00  0.00    +0.000 A 
ATOM      5  C   UNL     1      19.757   9.502  39.295  0.00  0.00    +0.000 A 
ATOM      6  N   UNL     1      20.874   9.707  38.419  0.00  0.00    +0.000 NA
ATOM      7  S   UNL     1      19.803   8.739  40.810  0.00  0.00    +0.000 S 
ATOM      8  C   UNL     1      18.154   8.868  41.235  0.00  0.00    +0.000 A 
ATOM      9  C   UNL     1      17.605   9.512  40.172  0.00  0.00    +0.000 A 
ATOM     10  C   UNL     1      16.110   9.686  40.455  0.00  0.00    +0.000 C 
ATOM     11  C   UNL     1      15.829   8.686  41.522  0.00  0.00    +0.000 C 
ATOM     12  C   UNL     1      17.123   8.548  42.301  0.00  0.00    +0.000 C 
ENDBRANCH   2   4
BRANCH   1  18
ATOM     13  C   UNL     1      15.603  11.492  35.939  0.00  0.00    +0.000 A 
ATOM     14  C   UNL     1      15.126  12.090  34.803  0.00  0.00    +0.000 A 
ATOM     15  C   UNL     1      15.636  11.819  33.554  0.00  0.00    +0.000 A 
ATOM     16  C   UNL     1      16.664  10.911  33.453  0.00  0.00    +0.000 A 
ATOM     17  C   UNL     1      17.146  10.309  34.587  0.00  0.00    +0.000 A 
ATOM     18  C   UNL     1      16.649  10.569  35.841  0.00  0.00    +0.000 A 
BRANCH  13  20
ATOM     19  C   UNL     1      13.766  11.359  37.482  0.00  0.00    +0.000 C 
ATOM     20  O   UNL     1      15.060  11.795  37.173  0.00  0.00    +0.000 OA
ENDBRANCH  13  20
ENDBRANCH   1  18
TORSDOF 3
ENDMDL
MODEL 6
REMARK VINA RESULT:      -6.3     18.803     20.152
REMARK  Name = 
REMARK  3 active torsions:
REMARK  status: ('A' for Active; 'I' for Inactive)
REMARK    1  A    between atoms: O_2  and  C_3
REMARK    2  A    between atoms: C_8  and  N_9
REMARK    3  A    between atoms: C_10  and  C_12
REMARK                            x       y       z     vdW  Elec       q    Type
REMARK                         _______ _______ _______ _____ _____    ______ ____
ROOT
ATOM      1  N   UNL     1      29.052  22.322  27.196  0.00  0.00    +0.000 NA
ATOM      2  C   UNL     1      29.510  23.227  28.151  0.00  0.00    +0.000 C 
ATOM      3  O   UNL     1      29.468  24.449  27.872  0.00  0.00    +0.000 OA
ENDROOT
BRANCH   2   4
ATOM      4  C   UNL     1      30.032  22.748  29.458  0.00  0.00    +0.000 A 
ATOM      5  C   UNL     1      29.212  22.836  30.551  0.00  0.00    +0.000 A 
ATOM      6  N   UNL     1      27.872  23.332  30.670  0.00  0.00    +0.000 NA
ATOM      7  S   UNL     1      30.157  22.201  31.809  0.00  0.00    +0.000 S 
ATOM      8  C   UNL     1      31.576  21.835  30.932  0.00  0.00    +0.000 A 
ATOM      9  C   UNL     1      31.270  22.221  29.665  0.00  0.00    +0.000 A 
ATOM     10  C   UNL     1      32.488  21.929  28.784  0.00  0.00    +0.000 C 
ATOM     11  C   UNL     1      33.609  21.794  29.754  0.00  0.00    +0.000 C 
ATOM     12  C   UNL     1      32.980  21.270  31.031  0.00  0.00    +0.000 C 
ENDBRANCH   2   4
BRANCH   1  18
ATOM     13  C   UNL     1      29.450  22.732  24.871  0.00  0.00    +0.000 A 
ATOM     14  C   UNL     1      29.007  23.068  23.620  0.00  0.00    +0.000 A 
ATOM     15  C   UNL     1      27.687  23.354  23.356  0.00  0.00    +0.000 A 
ATOM     16  C   UNL     1      26.787  23.298  24.395  0.00  0.00    +0.000 A 
ATOM     17  C   UNL     1      27.226  22.962  25.649  0.00  0.00    +0.000 A 
ATOM     18  C   UNL     1      28.539  22.673  25.930  0.00  0.00    +0.000 A 
BRANCH  13  20
ATOM     19  C   UNL     1      31.754  23.408  24.761  0.00  0.00    +0.000 C 
ATOM     20  O   UNL     1      30.786  22.452  25.091  0.00  0.00    +0.000 OA
ENDBRANCH  13  20
ENDBRANCH   1  18
TORSDOF 3
ENDMDL
MODEL 7
REMARK VINA RESULT:      -6.2     18.303     19.783
REMARK  Name = 
REMARK  3 active torsions:
REMARK  status: ('A' for Active; 'I' for Inactive)
REMARK    1  A    between atoms: O_2  and  C_3
REMARK    2  A    between atoms: C_8  and  N_9
REMARK    3  A    between atoms: C_10  and  C_12
REMARK                            x       y       z     vdW  Elec       q    Type
REMARK                         _______ _______ _______ _____ _____    ______ ____
ROOT
ATOM      1  N   UNL     1      29.412  22.238  27.398  0.00  0.00    +0.000 NA
ATOM      2  C   UNL     1      30.024  23.087  28.318  0.00  0.00    +0.000 C 
ATOM      3  O   UNL     1      30.265  24.265  27.962  0.00  0.00    +0.000 OA
ENDROOT
BRANCH   2   4
ATOM      4  C   UNL     1      30.377  22.600  29.678  0.00  0.00    +0.000 A 
ATOM      5  C   UNL     1      29.430  22.694  30.662  0.00  0.00    +0.000 A 
ATOM      6  N   UNL     1      28.090  23.203  30.618  0.00  0.00    +0.000 NA
ATOM      7  S   UNL     1      30.208  22.047  32.024  0.00  0.00    +0.000 S 
ATOM      8  C   UNL     1      31.720  21.669  31.327  0.00  0.00    +0.000 A 
ATOM      9  C   UNL     1      31.576  22.061  30.033  0.00  0.00    +0.000 A 
ATOM     10  C   UNL     1      32.890  21.758  29.307  0.00  0.00    +0.000 C 
ATOM     11  C   UNL     1      33.881  21.611  30.407  0.00  0.00    +0.000 C 
ATOM     12  C   UNL     1      33.097  21.090  31.596  0.00  0.00    +0.000 C 
ENDBRANCH   2   4
BRANCH   1  18
ATOM     13  C   UNL     1      27.711  22.997  25.895  0.00  0.00    +0.000 A 
ATOM     14  C   UNL     1      27.292  23.360  24.643  0.00  0.00    +0.000 A 
ATOM     15  C   UNL     1      28.132  23.350  23.552  0.00  0.00    +0.000 A 
ATOM     16  C   UNL     1      29.438  22.960  23.737  0.00  0.00    +0.000 A 
ATOM     17  C   UNL     1      29.861  22.596  24.989  0.00  0.00    +0.000 A 
ATOM     18  C   UNL     1      29.038  22.600  26.089  0.00  0.00    +0.000 A 
BRANCH  13  20
ATOM     19  C   UNL     1      25.821  23.987  27.001  0.00  0.00    +0.000 C 
ATOM     20  O   UNL     1      26.834  23.022  26.963  0.00  0.00    +0.000 OA
ENDBRANCH  13  20
ENDBRANCH   1  18
TORSDOF 3
ENDMDL
MODEL 8
REMARK VINA RESULT:      -6.1     20.417     22.570
REMARK  Name = 
REMARK  3 active torsions:
REMARK  status: ('A' for Active; 'I' for Inactive)
REMARK    1  A    between atoms: O_2  and  C_3
REMARK    2  A    between atoms: C_8  and  N_9
REMARK    3  A    between atoms: C_10  and  C_12
REMARK                            x       y       z     vdW  Elec       q    Type
REMARK                         _______ _______ _______ _____ _____    ______ ____
ROOT
ATOM      1  N   UNL     1      30.983  24.702  24.910  0.00  0.00    +0.000 NA
ATOM      2  C   UNL     1      30.471  23.619  24.198  0.00  0.00    +0.000 C 
ATOM      3  O   UNL     1      31.230  22.644  23.982  0.00  0.00    +0.000 OA
ENDROOT
BRANCH   2   4
ATOM      4  C   UNL     1      29.065  23.629  23.714  0.00  0.00    +0.000 A 
ATOM      5  C   UNL     1      28.836  23.955  22.404  0.00  0.00    +0.000 A 
ATOM      6  N   UNL     1      29.755  24.308  21.361  0.00  0.00    +0.000 NA
ATOM      7  S   UNL     1      27.150  23.852  22.257  0.00  0.00    +0.000 S 
ATOM      8  C   UNL     1      26.759  23.397  23.856  0.00  0.00    +0.000 A 
ATOM      9  C   UNL     1      27.971  23.336  24.470  0.00  0.00    +0.000 A 
ATOM     10  C   UNL     1      27.733  22.927  25.926  0.00  0.00    +0.000 C 
ATOM     11  C   UNL     1      26.293  23.227  26.153  0.00  0.00    +0.000 C 
ATOM     12  C   UNL     1      25.624  23.055  24.803  0.00  0.00    +0.000 C 
ENDBRANCH   2   4
BRANCH   1  18
ATOM     13  C   UNL     1      32.498  24.393  26.737  0.00  0.00    +0.000 A 
ATOM     14  C   UNL     1      33.755  24.459  27.275  0.00  0.00    +0.000 A 
ATOM     15  C   UNL     1      34.844  24.905  26.559  0.00  0.00    +0.000 A 
ATOM     16  C   UNL     1      34.651  25.296  25.255  0.00  0.00    +0.000 A 
ATOM     17  C   UNL     1      33.394  25.232  24.711  0.00  0.00    +0.000 A 
ATOM     18  C   UNL     1      32.297  24.790  25.411  0.00  0.00    +0.000 A 
BRANCH  13  20
ATOM     19  C   UNL     1      31.658  23.003  28.508  0.00  0.00    +0.000 C 
ATOM     20  O   UNL     1      31.434  23.940  27.492  0.00  0.00    +0.000 OA
ENDBRANCH  13  20
ENDBRANCH   1  18
TORSDOF 3
ENDMDL
MODEL 9
REMARK VINA RESULT:      -6.1     17.756     19.275
REMARK  Name = 
REMARK  3 active torsions:
REMARK  status: ('A' for Active; 'I' for Inactive)
REMARK    1  A    between atoms: O_2  and  C_3
REMARK    2  A    between atoms: C_8  and  N_9
REMARK    3  A    between atoms: C_10  and  C_12
REMARK                            x       y       z     vdW  Elec       q    Type
REMARK                         _______ _______ _______ _____ _____    ______ ____
ROOT
ATOM      1  N   UNL     1      28.781  23.361  29.803  0.00  0.00    +0.000 NA
ATOM      2  C   UNL     1      27.543  22.835  29.440  0.00  0.00    +0.000 C 
ATOM      3  O   UNL     1      27.292  21.648  29.756  0.00  0.00    +0.000 OA
ENDROOT
BRANCH   2   4
ATOM      4  C   UNL     1      26.557  23.666  28.699  0.00  0.00    +0.000 A 
ATOM      5  C   UNL     1      25.742  24.497  29.421  0.00  0.00    +0.000 A 
ATOM      6  N   UNL     1      25.664  24.723  30.835  0.00  0.00    +0.000 NA
ATOM      7  S   UNL     1      24.790  25.249  28.235  0.00  0.00    +0.000 S 
ATOM      8  C   UNL     1      25.437  24.499  26.844  0.00  0.00    +0.000 A 
ATOM      9  C   UNL     1      26.392  23.673  27.348  0.00  0.00    +0.000 A 
ATOM     10  C   UNL     1      27.046  22.946  26.169  0.00  0.00    +0.000 C 
ATOM     11  C   UNL     1      26.063  23.101  25.062  0.00  0.00    +0.000 C 
ATOM     12  C   UNL     1      25.350  24.412  25.332  0.00  0.00    +0.000 C 
ENDBRANCH   2   4
BRANCH   1  18
ATOM     13  C   UNL     1      30.984  22.425  29.828  0.00  0.00    +0.000 A 
ATOM     14  C   UNL     1      31.991  21.747  30.461  0.00  0.00    +0.000 A 
ATOM     15  C   UNL     1      31.871  21.281  31.751  0.00  0.00    +0.000 A 
ATOM     16  C   UNL     1      30.692  21.510  32.421  0.00  0.00    +0.000 A 
ATOM     17  C   UNL     1      29.680  22.188  31.791  0.00  0.00    +0.000 A 
ATOM     18  C   UNL     1      29.783  22.660  30.504  0.00  0.00    +0.000 A 
BRANCH  13  20
ATOM     19  C   UNL     1      30.876  22.011  27.463  0.00  0.00    +0.000 C 
ATOM     20  O   UNL     1      31.147  22.874  28.531  0.00  0.00    +0.000 OA
ENDBRANCH  13  20
ENDBRANCH   1  18
TORSDOF 3
ENDMDL
MODEL 10
REMARK VINA RESULT:      -6.0     18.271     20.462
REMARK  Name = 
REMARK  3 active torsions:
REMARK  status: ('A' for Active; 'I' for Inactive)
REMARK    1  A    between atoms: O_2  and  C_3
REMARK    2  A    between atoms: C_8  and  N_9
REMARK    3  A    between atoms: C_10  and  C_12
REMARK                            x       y       z     vdW  Elec       q    Type
REMARK                         _______ _______ _______ _____ _____    ______ ____
ROOT
ATOM      1  N   UNL     1      29.616  23.431  27.749  0.00  0.00    +0.000 NA
ATOM      2  C   UNL     1      29.763  22.605  26.637  0.00  0.00    +0.000 C 
ATOM      3  O   UNL     1      30.307  21.487  26.801  0.00  0.00    +0.000 OA
ENDROOT
BRANCH   2   4
ATOM      4  C   UNL     1      29.285  23.046  25.300  0.00  0.00    +0.000 A 
ATOM      5  C   UNL     1      30.220  23.422  24.373  0.00  0.00    +0.000 A 
ATOM      6  N   UNL     1      31.651  23.472  24.463  0.00  0.00    +0.000 NA
ATOM      7  S   UNL     1      29.291  23.843  23.018  0.00  0.00    +0.000 S 
ATOM      8  C   UNL     1      27.732  23.536  23.645  0.00  0.00    +0.000 A 
ATOM      9  C   UNL     1      27.982  23.107  24.910  0.00  0.00    +0.000 A 
ATOM     10  C   UNL     1      26.635  22.795  25.569  0.00  0.00    +0.000 C 
ATOM     11  C   UNL     1      25.647  23.525  24.728  0.00  0.00    +0.000 C 
ATOM     12  C   UNL     1      26.247  23.563  23.336  0.00  0.00    +0.000 C 
ENDBRANCH   2   4
BRANCH   1  18
ATOM     13  C   UNL     1      29.040  22.717  29.960  0.00  0.00    +0.000 A 
ATOM     14  C   UNL     1      29.389  22.392  31.244  0.00  0.00    +0.000 A 
ATOM     15  C   UNL     1      30.691  22.434  31.689  0.00  0.00    +0.000 A 
ATOM     16  C   UNL     1      31.671  22.818  30.803  0.00  0.00    +0.000 A 
ATOM     17  C   UNL     1      31.327  23.144  29.517  0.00  0.00    +0.000 A 
ATOM     18  C   UNL     1      30.033  23.107  29.056  0.00  0.00    +0.000 A 
BRANCH  13  20
ATOM     19  C   UNL     1      26.823  21.836  30.244  0.00  0.00    +0.000 C 
ATOM     20  O   UNL     1      27.720  22.661  29.556  0.00  0.00    +0.000 OA
ENDBRANCH  13  20
ENDBRANCH   1  18
TORSDOF 3
ENDMDL
