REMARK  Name = 
REMARK  4 active torsions:
REMARK  status: ('A' for Active; 'I' for Inactive)
REMARK    1  A    between atoms: C_2  and  C_3
REMARK    2  A    between atoms: C_3  and  N_4
REMARK    3  A    between atoms: N_4  and  C_5
REMARK    4  A    between atoms: N_12  and  N_13
REMARK                            x       y       z     vdW  Elec       q    Type
REMARK                         _______ _______ _______ _____ _____    ______ ____
ROOT
ATOM      1  O   UNL     1      -0.452   0.892   0.346  0.00  0.00    +0.000 OA
ATOM      2  C   UNL     1      -0.086   0.427  -0.772  0.00  0.00    +0.000 C 
ATOM      3  N   UNL     1       1.297   0.121  -0.900  0.00  0.00    +0.000 NA
ENDROOT
BRANCH   3   4
ATOM      4  N   UNL     1       2.174   0.329   0.150  0.00  0.00    +0.000 NA
ATOM      5  C   UNL     1       3.439   0.395   0.056  0.00  0.00    +0.000 C 
ATOM      6  C   UNL     1       4.203   0.259  -1.216  0.00  0.00    +0.000 C 
ATOM      7  C   UNL     1       5.524  -0.410  -0.848  0.00  0.00    +0.000 C 
ATOM      8  C   UNL     1       5.326  -1.378   0.280  0.00  0.00    +0.000 C 
ATOM      9  C   UNL     1       4.959  -0.702   1.569  0.00  0.00    +0.000 C 
ATOM     10  C   UNL     1       4.240   0.624   1.290  0.00  0.00    +0.000 C 
ENDBRANCH   3   4
BRANCH   2  11
ATOM     11  C   UNL     1      -1.051   0.209  -1.897  0.00  0.00    +0.000 C 
BRANCH  11  12
ATOM     12  N   UNL     1      -2.373   0.611  -1.464  0.00  0.00    +0.000 NA
BRANCH  12  13
ATOM     13  C   UNL     1      -3.027   0.006  -0.368  0.00  0.00    +0.000 A 
ATOM     14  C   UNL     1      -2.456  -1.006   0.360  0.00  0.00    +0.000 A 
ATOM     15  C   UNL     1      -3.073  -1.600   1.420  0.00  0.00    +0.000 A 
ATOM     16  C   UNL     1      -4.335  -1.173   1.788  0.00  0.00    +0.000 A 
ATOM     17  C   UNL     1      -4.935  -0.151   1.069  0.00  0.00    +0.000 A 
ATOM     18  C   UNL     1      -4.283   0.429   0.001  0.00  0.00    +0.000 A 
ATOM     19 CL   UNL     1      -5.094   1.712  -0.864  0.00  0.00    +0.000 Cl
ENDBRANCH  12  13
ENDBRANCH  11  12
ENDBRANCH   2  11
TORSDOF 4
