REMARK  Name = 
REMARK  3 active torsions:
REMARK  status: ('A' for Active; 'I' for Inactive)
REMARK    1  A    between atoms: O_2  and  C_3
REMARK    2  A    between atoms: C_8  and  N_9
REMARK    3  A    between atoms: N_9  and  C_10
REMARK                            x       y       z     vdW  Elec       q    Type
REMARK                         _______ _______ _______ _____ _____    ______ ____
ROOT
ATOM      1  C   UNL     1       3.429  -0.569   0.154  0.00  0.00    +0.000 A 
ATOM      2  C   UNL     1       3.459  -1.823   0.713  0.00  0.00    +0.000 A 
ATOM      3  C   UNL     1       2.300  -2.502   1.018  0.00  0.00    +0.000 A 
ATOM      4  C   UNL     1       1.105  -1.873   0.738  0.00  0.00    +0.000 A 
ATOM      5  C   UNL     1       1.059  -0.599   0.170  0.00  0.00    +0.000 A 
ATOM      6  C   UNL     1      -0.142   0.011  -0.101  0.00  0.00    +0.000 A 
ATOM      7  C   UNL     1      -0.157   1.266  -0.660  0.00  0.00    +0.000 A 
ATOM      8  C   UNL     1       1.041   1.885  -0.938  0.00  0.00    +0.000 A 
ATOM      9  C   UNL     1       1.002   3.257  -1.550  0.00  0.00    +0.000 C 
ATOM     10  N   UNL     1       2.223   1.304  -0.680  0.00  0.00    +0.000 NA
ATOM     11  C   UNL     1       2.219   0.076  -0.132  0.00  0.00    +0.000 A 
ENDROOT
BRANCH   1  13
ATOM     12  C   UNL     1       5.831  -0.591   0.161  0.00  0.00    +0.000 C 
ATOM     13  O   UNL     1       4.618   0.066  -0.131  0.00  0.00    +0.000 OA
ENDBRANCH   1  13
BRANCH   6  14
ATOM     14  N   UNL     1      -1.349  -0.653   0.197  0.00  0.00    +0.000 NA
BRANCH  14  15
ATOM     15  C   UNL     1      -2.620  -0.083  -0.056  0.00  0.00    +0.000 A 
ATOM     16  C   UNL     1      -2.667   1.174  -0.617  0.00  0.00    +0.000 A 
ATOM     17  C   UNL     1      -3.904   1.718  -0.858  0.00  0.00    +0.000 A 
ATOM     18  C   UNL     1      -5.042   1.027  -0.548  0.00  0.00    +0.000 A 
ATOM     19  C   UNL     1      -4.970  -0.217   0.007  0.00  0.00    +0.000 A 
ATOM     20  C   UNL     1      -3.746  -0.802   0.266  0.00  0.00    +0.000 A 
ATOM     21  O   UNL     1      -3.689  -2.072   0.832  0.00  0.00    +0.000 OA
ENDBRANCH  14  15
ENDBRANCH   6  14
TORSDOF 3
