REMARK  Name = 
REMARK  3 active torsions:
REMARK  status: ('A' for Active; 'I' for Inactive)
REMARK    1  A    between atoms: C_5  and  C_6
REMARK    2  A    between atoms: C_11  and  O_12
REMARK    3  A    between atoms: C_15  and  O_16
REMARK                            x       y       z     vdW  Elec       q    Type
REMARK                         _______ _______ _______ _____ _____    ______ ____
ROOT
ATOM      1  C   UNL     1       0.493  -0.203   0.684  0.00  0.00    +0.000 A 
ATOM      2  C   UNL     1       0.363  -0.524   2.041  0.00  0.00    +0.000 A 
ATOM      3  N   UNL     1      -0.932  -0.508   2.371  0.00  0.00    +0.000 NA
ATOM      4  C   UNL     1      -1.675  -0.189   1.289  0.00  0.00    +0.000 A 
ATOM      5  C   UNL     1      -3.021  -0.038   1.082  0.00  0.00    +0.000 A 
ATOM      6  C   UNL     1      -3.557   0.300  -0.145  0.00  0.00    +0.000 A 
ATOM      7  C   UNL     1      -2.673   0.482  -1.162  0.00  0.00    +0.000 A 
ATOM      8  C   UNL     1      -1.293   0.338  -0.991  0.00  0.00    +0.000 A 
ATOM      9  C   UNL     1      -0.785   0.003   0.229  0.00  0.00    +0.000 A 
ENDROOT
BRANCH   1  14
ATOM     10  C   UNL     1       5.663  -0.853   1.767  0.00  0.00    +0.000 C 
ATOM     11  N   UNL     1       5.394  -0.502   0.411  0.00  0.00    +0.000 NA
ATOM     12  C   UNL     1       4.045  -0.290  -0.047  0.00  0.00    +0.000 A 
ATOM     13  N   UNL     1       2.913  -0.360   0.587  0.00  0.00    +0.000 NA
ATOM     14  C   UNL     1       1.786  -0.123  -0.043  0.00  0.00    +0.000 A 
ATOM     15  C   UNL     1       1.900   0.193  -1.374  0.00  0.00    +0.000 A 
ATOM     16  S   UNL     1       3.580   0.130  -1.631  0.00  0.00    +0.000 S 
ENDBRANCH   1  14
BRANCH   6  17
ATOM     17  O   UNL     1      -4.907   0.455  -0.364  0.00  0.00    +0.000 OA
ATOM     18  C   UNL     1      -5.841   0.264   0.705  0.00  0.00    +0.000 C 
ENDBRANCH   6  17
BRANCH   8  19
ATOM     19  O   UNL     1      -0.455   0.540  -2.079  0.00  0.00    +0.000 OA
ATOM     20  C   UNL     1      -0.997   0.885  -3.331  0.00  0.00    +0.000 C 
ENDBRANCH   8  19
TORSDOF 3
