REMARK  Name = 
REMARK  4 active torsions:
REMARK  status: ('A' for Active; 'I' for Inactive)
REMARK    1  A    between atoms: C_2  and  C_3
REMARK    2  A    between atoms: C_3  and  O_4
REMARK    3  A    between atoms: O_4  and  C_5
REMARK    4  A    between atoms: C_5  and  C_7
REMARK                            x       y       z     vdW  Elec       q    Type
REMARK                         _______ _______ _______ _____ _____    ______ ____
ROOT
ATOM      1  C   UNL     1       0.857  -1.017   0.130  0.00  0.00    +0.000 A 
ATOM      2  C   UNL     1       0.482  -2.339   0.205  0.00  0.00    +0.000 A 
ATOM      3  C   UNL     1       1.530  -3.386   0.250  0.00  0.00    +0.000 C 
ATOM      4  N   UNL     1      -0.833  -2.570   0.233  0.00  0.00    +0.000 NA
ATOM      5  C   UNL     1      -1.745  -1.554   0.188  0.00  0.00    +0.000 A 
ATOM      6  S   UNL     1      -3.444  -1.544   0.206  0.00  0.00    +0.000 S 
ATOM      7  C   UNL     1      -3.715   0.138   0.119  0.00  0.00    +0.000 A 
ATOM      8  C   UNL     1      -2.458   0.659   0.077  0.00  0.00    +0.000 A 
ATOM      9  C   UNL     1      -1.422  -0.229   0.113  0.00  0.00    +0.000 A 
ATOM     10  C   UNL     1      -0.033   0.026   0.084  0.00  0.00    +0.000 A 
ATOM     11  N   UNL     1       0.495   1.334   0.007  0.00  0.00    +0.000 NA
ATOM     12  C   UNL     1      -2.611   2.183  -0.014  0.00  0.00    +0.000 C 
ATOM     13  C   UNL     1      -3.949   2.406   0.597  0.00  0.00    +0.000 C 
ATOM     14  C   UNL     1      -4.768   1.233   0.079  0.00  0.00    +0.000 C 
ENDROOT
BRANCH   1  15
ATOM     15  C   UNL     1       2.305  -0.712   0.098  0.00  0.00    +0.000 C 
ATOM     16  O   UNL     1       3.143  -1.645   0.139  0.00  0.00    +0.000 OA
BRANCH  15  17
ATOM     17  O   UNL     1       2.749   0.600   0.022  0.00  0.00    +0.000 OA
BRANCH  17  18
ATOM     18  C   UNL     1       4.148   0.812  -0.005  0.00  0.00    +0.000 C 
BRANCH  18  20
ATOM     19  C   UNL     1       4.782   3.381  -0.154  0.00  0.00    +0.000 C 
ATOM     20  C   UNL     1       4.485   2.225  -0.085  0.00  0.00    +0.000 C 
ENDBRANCH  18  20
ENDBRANCH  17  18
ENDBRANCH  15  17
ENDBRANCH   1  15
TORSDOF 4
