REMARK  Name = 
REMARK  2 active torsions:
REMARK  status: ('A' for Active; 'I' for Inactive)
REMARK    1  A    between atoms: N_6  and  C_7
REMARK    2  A    between atoms: C_7  and  C_8
REMARK                            x       y       z     vdW  Elec       q    Type
REMARK                         _______ _______ _______ _____ _____    ______ ____
ROOT
ATOM      1  C   UNL     1       0.510  -0.015   0.240  0.00  0.00    +0.000 C 
ATOM      2  O   UNL     1       0.738   0.864  -0.620  0.00  0.00    +0.000 OA
ATOM      3  N   UNL     1      -0.826  -0.369   0.543  0.00  0.00    +0.000 N 
ATOM      4  C   UNL     1      -1.114  -1.394   1.545  0.00  0.00    +0.000 C 
ATOM      5  C   UNL     1      -2.571  -1.594   1.756  0.00  0.00    +0.000 C 
ATOM      6  C   UNL     1      -3.326  -1.689   0.423  0.00  0.00    +0.000 C 
ATOM      7  C   UNL     1      -3.177  -0.348  -0.194  0.00  0.00    +0.000 A 
ATOM      8  C   UNL     1      -4.244   0.277  -0.834  0.00  0.00    +0.000 A 
ATOM      9  C   UNL     1      -3.975   1.523  -1.366  0.00  0.00    +0.000 A 
ATOM     10  C   UNL     1      -2.750   2.139  -1.290  0.00  0.00    +0.000 A 
ATOM     11  C   UNL     1      -1.723   1.494  -0.653  0.00  0.00    +0.000 A 
ATOM     12  C   UNL     1      -1.940   0.252  -0.107  0.00  0.00    +0.000 A 
ENDROOT
BRANCH   1  13
ATOM     13  C   UNL     1       1.605  -0.692   0.944  0.00  0.00    +0.000 C 
BRANCH  13  19
ATOM     14  N   UNL     1       3.148  -1.859  -1.348  0.00  0.00    +0.000 NA
ATOM     15  C   UNL     1       3.574  -0.732  -0.548  0.00  0.00    +0.000 A 
ATOM     16  S   UNL     1       4.990   0.206  -0.666  0.00  0.00    +0.000 S 
ATOM     17  C   UNL     1       4.683   1.279   0.622  0.00  0.00    +0.000 A 
ATOM     18  C   UNL     1       3.477   0.836   1.073  0.00  0.00    +0.000 A 
ATOM     19  N   UNL     1       2.921  -0.177   0.481  0.00  0.00    +0.000 N 
ENDBRANCH  13  19
ENDBRANCH   1  13
TORSDOF 2
