REMARK  Name = 
REMARK  4 active torsions:
REMARK  status: ('A' for Active; 'I' for Inactive)
REMARK    1  A    between atoms: C_2  and  S_3
REMARK    2  A    between atoms: S_3  and  C_4
REMARK    3  A    between atoms: N_9  and  C_10
REMARK    4  A    between atoms: C_10  and  C_11
REMARK                            x       y       z     vdW  Elec       q    Type
REMARK                         _______ _______ _______ _____ _____    ______ ____
ROOT
ATOM      1  C   UNL     1      -0.790  -0.296  -1.879  0.00  0.00    +0.000 C 
ENDROOT
BRANCH   1   2
ATOM      2  C   UNL     1       0.431   0.113  -1.142  0.00  0.00    +0.000 A 
ATOM      3  C   UNL     1       1.563  -0.663  -1.065  0.00  0.00    +0.000 A 
ATOM      4  C   UNL     1       2.476   0.036  -0.308  0.00  0.00    +0.000 A 
ATOM      5  C   UNL     1       3.763  -0.299   0.066  0.00  0.00    +0.000 A 
ATOM      6  C   UNL     1       4.512   0.558   0.835  0.00  0.00    +0.000 A 
ATOM      7  C   UNL     1       3.970   1.765   1.237  0.00  0.00    +0.000 A 
ATOM      8  C   UNL     1       2.673   2.051   0.833  0.00  0.00    +0.000 A 
ATOM      9  N   UNL     1       1.947   1.196   0.074  0.00  0.00    +0.000 N 
ATOM     10  C   UNL     1       0.704   1.254  -0.427  0.00  0.00    +0.000 A 
ENDBRANCH   1   2
BRANCH   1  16
ATOM     11  C   UNL     1      -2.703  -0.399  -0.352  0.00  0.00    +0.000 A 
ATOM     12  N   UNL     1      -3.378  -1.355   0.298  0.00  0.00    +0.000 NA
ATOM     13  N   UNL     1      -2.824  -2.533   0.005  0.00  0.00    +0.000 NA
ATOM     14  C   UNL     1      -1.786  -2.343  -0.838  0.00  0.00    +0.000 A 
ATOM     15  N   UNL     1      -0.916  -3.336  -1.403  0.00  0.00    +0.000 NA
ATOM     16  N   UNL     1      -1.731  -1.016  -1.044  0.00  0.00    +0.000 N 
BRANCH  11  17
ATOM     17  S   UNL     1      -3.077   1.345  -0.274  0.00  0.00    +0.000 S 
BRANCH  17  19
ATOM     18  C   UNL     1      -2.626   1.748   2.423  0.00  0.00    +0.000 C 
ATOM     19  C   UNL     1      -2.209   2.175   1.053  0.00  0.00    +0.000 C 
ENDBRANCH  17  19
ENDBRANCH  11  17
ENDBRANCH   1  16
TORSDOF 4
