REMARK  Name = 
REMARK  5 active torsions:
REMARK  status: ('A' for Active; 'I' for Inactive)
REMARK    1  A    between atoms: C_2  and  C_3
REMARK    2  A    between atoms: C_3  and  C_4
REMARK    3  A    between atoms: C_4  and  N_5
REMARK    4  A    between atoms: C_6  and  C_8
REMARK    5  A    between atoms: C_14  and  N_15
REMARK                            x       y       z     vdW  Elec       q    Type
REMARK                         _______ _______ _______ _____ _____    ______ ____
ROOT
ATOM      1  C   UNL     1       0.405  -0.465   0.307  0.00  0.00    +0.000 A 
ATOM      2  C   UNL     1       0.025  -0.019   1.553  0.00  0.00    +0.000 A 
ATOM      3  C   UNL     1      -1.276   0.465   1.489  0.00  0.00    +0.000 A 
ATOM      4  C   UNL     1      -2.148   1.019   2.402  0.00  0.00    +0.000 A 
ATOM      5  C   UNL     1      -3.425   1.423   2.048  0.00  0.00    +0.000 A 
ATOM      6  C   UNL     1      -3.795   1.247   0.731  0.00  0.00    +0.000 A 
ATOM      7  C   UNL     1      -2.951   0.699  -0.199  0.00  0.00    +0.000 A 
ATOM      8  C   UNL     1      -1.669   0.299   0.179  0.00  0.00    +0.000 A 
ATOM      9  N   UNL     1      -0.645  -0.258  -0.502  0.00  0.00    +0.000 NA
ENDROOT
BRANCH   1  11
ATOM     10  N   UNL     1       2.748  -1.237   0.840  0.00  0.00    +0.000 NA
ATOM     11  C   UNL     1       1.680  -1.052  -0.099  0.00  0.00    +0.000 C 
ATOM     12  O   UNL     1       1.891  -1.416  -1.280  0.00  0.00    +0.000 OA
BRANCH  10  13
ATOM     13  C   UNL     1       4.012  -1.824   0.416  0.00  0.00    +0.000 C 
BRANCH  13  14
ATOM     14  C   UNL     1       4.661  -0.986  -0.669  0.00  0.00    +0.000 C 
BRANCH  14  16
ATOM     15  C   UNL     1       5.883   0.356   1.016  0.00  0.00    +0.000 C 
ATOM     16  C   UNL     1       4.943   0.424  -0.180  0.00  0.00    +0.000 C 
ENDBRANCH  14  16
ENDBRANCH  13  14
ENDBRANCH  10  13
ENDBRANCH   1  11
BRANCH   7  17
ATOM     17  N   UNL     1      -3.344   0.524  -1.548  0.00  0.00    +0.000 N 
ATOM     18  O   UNL     1      -4.199   1.267  -2.060  0.00  0.00    +0.000 OA
ATOM     19  O   UNL     1      -2.795  -0.465  -2.327  0.00  0.00    +0.000 OA
ENDBRANCH   7  17
TORSDOF 5
