REMARK  Name = 
REMARK  3 active torsions:
REMARK  status: ('A' for Active; 'I' for Inactive)
REMARK    1  A    between atoms: C_5  and  C_6
REMARK    2  A    between atoms: N_8  and  C_9
REMARK    3  A    between atoms: C_18  and  N_19
REMARK                            x       y       z     vdW  Elec       q    Type
REMARK                         _______ _______ _______ _____ _____    ______ ____
ROOT
ATOM      1  C   UNL     1      -0.151  -0.364   0.130  0.00  0.00    +0.000 C 
ATOM      2  O   UNL     1      -0.334  -1.379  -0.573  0.00  0.00    +0.000 OA
ATOM      3  N   UNL     1      -1.307   0.308   0.613  0.00  0.00    +0.000 NA
ENDROOT
BRANCH   3   4
ATOM      4  C   UNL     1      -2.616  -0.157   0.307  0.00  0.00    +0.000 A 
ATOM      5  C   UNL     1      -2.781  -1.282  -0.472  0.00  0.00    +0.000 A 
ATOM      6  C   UNL     1      -4.052  -1.760  -0.788  0.00  0.00    +0.000 A 
ATOM      7  C   UNL     1      -5.180  -1.099  -0.314  0.00  0.00    +0.000 A 
ATOM      8  C   UNL     1      -5.026   0.016   0.459  0.00  0.00    +0.000 A 
ATOM      9  C   UNL     1      -6.248   0.698   0.949  0.00  0.00    +0.000 C 
ATOM     10  C   UNL     1      -3.748   0.479   0.764  0.00  0.00    +0.000 A 
ATOM     11  C   UNL     1      -3.587   1.683   1.599  0.00  0.00    +0.000 C 
ENDBRANCH   3   4
BRANCH   1  16
ATOM     12  C   UNL     1       4.993   1.673   1.478  0.00  0.00    +0.000 C 
ATOM     13  C   UNL     1       3.665   1.105   1.101  0.00  0.00    +0.000 A 
ATOM     14  C   UNL     1       2.549   1.769   1.581  0.00  0.00    +0.000 A 
ATOM     15  C   UNL     1       1.314   1.256   1.241  0.00  0.00    +0.000 A 
ATOM     16  C   UNL     1       1.200   0.129   0.455  0.00  0.00    +0.000 A 
ATOM     17  C   UNL     1       2.326  -0.515  -0.012  0.00  0.00    +0.000 A 
ATOM     18  C   UNL     1       3.575  -0.026   0.311  0.00  0.00    +0.000 A 
BRANCH  18  19
ATOM     19  N   UNL     1       4.771  -0.663  -0.152  0.00  0.00    +0.000 N 
ATOM     20  O   UNL     1       4.689  -1.887  -0.380  0.00  0.00    +0.000 OA
ATOM     21  O   UNL     1       5.946   0.017  -0.340  0.00  0.00    +0.000 OA
ENDBRANCH  18  19
ENDBRANCH   1  16
TORSDOF 3
