REMARK  Name = 
REMARK  3 active torsions:
REMARK  status: ('A' for Active; 'I' for Inactive)
REMARK    1  A    between atoms: C_8  and  C_9
REMARK    2  A    between atoms: C_12  and  S_13
REMARK    3  A    between atoms: S_13  and  C_14
REMARK                            x       y       z     vdW  Elec       q    Type
REMARK                         _______ _______ _______ _____ _____    ______ ____
ROOT
ATOM      1  C   UNL     1      -1.190   0.342  -0.170  0.00  0.00    +0.000 A 
ATOM      2  C   UNL     1      -0.508   0.242   1.002  0.00  0.00    +0.000 A 
ATOM      3  C   UNL     1       0.791   0.731   1.111  0.00  0.00    +0.000 A 
ATOM      4  C   UNL     1       1.421   1.326   0.046  0.00  0.00    +0.000 A 
ATOM      5  C   UNL     1       0.703   1.415  -1.136  0.00  0.00    +0.000 A 
ATOM      6  C   UNL     1      -0.583   0.933  -1.251  0.00  0.00    +0.000 A 
ENDROOT
BRANCH   1  14
ATOM      7  C   UNL     1      -2.765   0.548   2.018  0.00  0.00    +0.000 C 
ATOM      8  C   UNL     1      -3.046  -0.834   1.152  0.00  0.00    +0.000 C 
ATOM      9  C   UNL     1      -4.662  -0.539   1.030  0.00  0.00    +0.000 C 
ATOM     10  C   UNL     1      -5.096  -1.227  -0.207  0.00  0.00    +0.000 C 
ATOM     11  O   UNL     1      -5.877  -2.220  -0.204  0.00  0.00    +0.000 OA
ATOM     12  N   UNL     1      -4.529  -0.629  -1.352  0.00  0.00    +0.000 NA
ATOM     13  N   UNL     1      -3.272  -0.154  -1.243  0.00  0.00    +0.000 NA
ATOM     14  C   UNL     1      -2.564  -0.191  -0.235  0.00  0.00    +0.000 C 
ENDBRANCH   1  14
BRANCH   4  15
ATOM     15  S   UNL     1       3.089   1.956   0.178  0.00  0.00    +0.000 S 
BRANCH  15  16
ATOM     16  C   UNL     1       4.268   0.685  -0.253  0.00  0.00    +0.000 A 
ATOM     17  N   UNL     1       5.598   0.859  -0.249  0.00  0.00    +0.000 NA
ATOM     18  C   UNL     1       6.232  -0.272  -0.617  0.00  0.00    +0.000 A 
ATOM     19  C   UNL     1       5.225  -1.189  -0.860  0.00  0.00    +0.000 A 
ATOM     20  N   UNL     1       4.030  -0.578  -0.630  0.00  0.00    +0.000 N 
ATOM     21  C   UNL     1       2.734  -1.203  -0.773  0.00  0.00    +0.000 C 
ENDBRANCH  15  16
ENDBRANCH   4  15
TORSDOF 3
