REMARK  Name = 
REMARK  2 active torsions:
REMARK  status: ('A' for Active; 'I' for Inactive)
REMARK    1  A    between atoms: C_4  and  N_5
REMARK    2  A    between atoms: C_13  and  C_14
REMARK                            x       y       z     vdW  Elec       q    Type
REMARK                         _______ _______ _______ _____ _____    ______ ____
ROOT
ATOM      1  C   UNL     1      -3.653   2.853  -0.975  0.00  0.00    +0.000 C 
ATOM      2  C   UNL     1      -2.807   1.705  -0.551  0.00  0.00    +0.000 A 
ATOM      3  C   UNL     1      -1.576   1.856   0.034  0.00  0.00    +0.000 A 
ATOM      4  C   UNL     1      -0.791   0.793   0.427  0.00  0.00    +0.000 A 
ATOM      5  C   UNL     1      -1.299  -0.471   0.206  0.00  0.00    +0.000 A 
ATOM      6  C   UNL     1      -2.539  -0.669  -0.382  0.00  0.00    +0.000 A 
ATOM      7  C   UNL     1      -3.298   0.441  -0.763  0.00  0.00    +0.000 A 
ATOM      8  O   UNL     1      -4.548   0.271  -1.357  0.00  0.00    +0.000 OA
ENDROOT
BRANCH   4   9
ATOM      9  N   UNL     1       0.470   0.931   1.026  0.00  0.00    +0.000 NA
ATOM     10  C   UNL     1       1.568   0.454   0.583  0.00  0.00    +0.000 C 
ATOM     11  C   UNL     1       2.788   0.699   1.344  0.00  0.00    +0.000 C 
ATOM     12  C   UNL     1       3.959   0.218   0.915  0.00  0.00    +0.000 C 
ATOM     13  C   UNL     1       4.063  -0.560  -0.312  0.00  0.00    +0.000 C 
ATOM     14  O   UNL     1       5.177  -1.018  -0.720  0.00  0.00    +0.000 OA
ATOM     15  C   UNL     1       2.845  -0.809  -1.077  0.00  0.00    +0.000 C 
ATOM     16  C   UNL     1       1.691  -0.327  -0.643  0.00  0.00    +0.000 C 
ENDBRANCH   4   9
BRANCH   5  17
ATOM     17  C   UNL     1      -0.539  -1.699   0.590  0.00  0.00    +0.000 C 
ATOM     18  C   UNL     1      -1.300  -2.953   0.250  0.00  0.00    +0.000 C 
ATOM     19  C   UNL     1      -0.210  -1.714   2.056  0.00  0.00    +0.000 C 
ENDBRANCH   5  17
TORSDOF 2
