REMARK  Name = 
REMARK  3 active torsions:
REMARK  status: ('A' for Active; 'I' for Inactive)
REMARK    1  A    between atoms: C_2  and  C_3
REMARK    2  A    between atoms: C_3  and  N_5
REMARK    3  A    between atoms: C_8  and  C_9
REMARK                            x       y       z     vdW  Elec       q    Type
REMARK                         _______ _______ _______ _____ _____    ______ ____
ROOT
ATOM      1  N   UNL     1       1.519  -0.039   0.653  0.00  0.00    +0.000 N 
ATOM      2  C   UNL     1       1.836   1.193   0.495  0.00  0.00    +0.000 A 
ATOM      3  N   UNL     1       3.109   1.787   0.785  0.00  0.00    +0.000 NA
ATOM      4  C   UNL     1       0.711   1.841  -0.011  0.00  0.00    +0.000 A 
ATOM      5  C   UNL     1      -0.276   0.877  -0.129  0.00  0.00    +0.000 A 
ATOM      6  N   UNL     1      -1.537   0.897  -0.545  0.00  0.00    +0.000 NA
ATOM      7  C   UNL     1      -2.310  -0.231  -0.559  0.00  0.00    +0.000 A 
ATOM      8  C   UNL     1      -3.627  -0.151  -1.006  0.00  0.00    +0.000 A 
ATOM      9  C   UNL     1      -4.390  -1.300  -1.012  0.00  0.00    +0.000 A 
ATOM     10  C   UNL     1      -3.856  -2.504  -0.582  0.00  0.00    +0.000 A 
ATOM     11  C   UNL     1      -2.558  -2.595  -0.138  0.00  0.00    +0.000 A 
ATOM     12  C   UNL     1      -1.804  -1.440  -0.137  0.00  0.00    +0.000 A 
ATOM     13  N   UNL     1      -0.516  -1.446   0.286  0.00  0.00    +0.000 NA
ATOM     14  C   UNL     1       0.243  -0.331   0.298  0.00  0.00    +0.000 A 
ENDROOT
BRANCH   1  15
ATOM     15  C   UNL     1       2.427  -1.203   1.200  0.00  0.00    +0.000 C 
ATOM     16  C   UNL     1       3.191  -0.304   2.370  0.00  0.00    +0.000 C 
BRANCH  15  18
ATOM     17  C   UNL     1       3.076  -1.716  -1.107  0.00  0.00    +0.000 C 
ATOM     18  C   UNL     1       3.623  -0.937   0.082  0.00  0.00    +0.000 C 
ENDBRANCH  15  18
ENDBRANCH   1  15
BRANCH   4  19
ATOM     19  C   UNL     1       0.618   3.240  -0.338  0.00  0.00    +0.000 C 
ATOM     20  N   UNL     1       0.523   4.364  -0.607  0.00  0.00    +0.000 NA
ENDBRANCH   4  19
TORSDOF 3
