REMARK  Name = 
REMARK  3 active torsions:
REMARK  status: ('A' for Active; 'I' for Inactive)
REMARK    1  A    between atoms: C_2  and  C_3
REMARK    2  A    between atoms: C_3  and  C_4
REMARK    3  A    between atoms: C_10  and  C_11
REMARK                            x       y       z     vdW  Elec       q    Type
REMARK                         _______ _______ _______ _____ _____    ______ ____
ROOT
ATOM      1  C   UNL     1       3.220  -0.407   1.399  0.00  0.00    +0.000 A 
ATOM      2  C   UNL     1       2.771   0.052   0.205  0.00  0.00    +0.000 A 
ATOM      3  C   UNL     1       1.462   0.059  -0.036  0.00  0.00    +0.000 A 
ATOM      4  C   UNL     1       0.636  -0.406   0.951  0.00  0.00    +0.000 A 
ATOM      5  S   UNL     1       1.761  -0.835   2.188  0.00  0.00    +0.000 S 
ATOM      6  N   UNL     1      -0.777  -0.476   0.857  0.00  0.00    +0.000 NA
ATOM      7  C   UNL     1      -1.394   0.799   0.111  0.00  0.00    +0.000 C 
ATOM      8  N   UNL     1      -0.698   0.401  -1.277  0.00  0.00    +0.000 NA
ATOM      9  C   UNL     1       0.719   0.497  -1.249  0.00  0.00    +0.000 C 
ATOM     10  O   UNL     1       1.351   0.947  -2.234  0.00  0.00    +0.000 OA
ENDROOT
BRANCH   7  11
ATOM     11  C   UNL     1      -2.816   0.202  -0.249  0.00  0.00    +0.000 A 
ATOM     12  C   UNL     1      -3.059  -0.997  -0.753  0.00  0.00    +0.000 A 
ATOM     13  C   UNL     1      -4.326  -1.487  -1.057  0.00  0.00    +0.000 A 
ATOM     14  C   UNL     1      -5.376  -0.654  -0.808  0.00  0.00    +0.000 A 
ATOM     15  C   UNL     1      -5.189   0.599  -0.286  0.00  0.00    +0.000 A 
ATOM     16  C   UNL     1      -3.869   1.035  -0.000  0.00  0.00    +0.000 A 
ENDBRANCH   7  11
BRANCH   1  17
ATOM     17  C   UNL     1       4.634  -0.501   1.870  0.00  0.00    +0.000 C 
BRANCH  17  19
ATOM     18  C   UNL     1       5.402  -0.808  -0.441  0.00  0.00    +0.000 C 
ATOM     19  C   UNL     1       5.547   0.000   0.809  0.00  0.00    +0.000 C 
ENDBRANCH  17  19
ENDBRANCH   1  17
TORSDOF 3
