REMARK  Name = 
REMARK  2 active torsions:
REMARK  status: ('A' for Active; 'I' for Inactive)
REMARK    1  A    between atoms: C_2  and  C_3
REMARK    2  A    between atoms: C_6  and  N_7
REMARK                            x       y       z     vdW  Elec       q    Type
REMARK                         _______ _______ _______ _____ _____    ______ ____
ROOT
ATOM      1  N   UNL     1      -0.134   0.168  -0.329  0.00  0.00    +0.000 N 
ATOM      2  C   UNL     1      -0.611   0.979  -1.398  0.00  0.00    +0.000 C 
ATOM      3  O   UNL     1       0.255   1.422  -2.211  0.00  0.00    +0.000 OA
ATOM      4  N   UNL     1      -2.001   1.256  -1.512  0.00  0.00    +0.000 NA
ATOM      5  C   UNL     1      -2.930   0.723  -0.555  0.00  0.00    +0.000 A 
ATOM      6  C   UNL     1      -4.281   0.982  -0.654  0.00  0.00    +0.000 A 
ATOM      7  C   UNL     1      -5.221   0.495   0.233  0.00  0.00    +0.000 A 
ATOM      8  C   UNL     1      -4.760  -0.296   1.279  0.00  0.00    +0.000 A 
ATOM      9  C   UNL     1      -3.415  -0.543   1.361  0.00  0.00    +0.000 A 
ATOM     10  C   UNL     1      -2.462  -0.069   0.488  0.00  0.00    +0.000 A 
ATOM     11  N   UNL     1      -1.079  -0.320   0.567  0.00  0.00    +0.000 N 
ATOM     12  O   UNL     1      -0.637  -1.096   1.585  0.00  0.00    +0.000 OA
ENDROOT
BRANCH   1  16
ATOM     13  C   UNL     1       3.967  -0.750   0.129  0.00  0.00    +0.000 A 
ATOM     14  C   UNL     1       3.073  -1.082   1.099  0.00  0.00    +0.000 A 
ATOM     15  C   UNL     1       1.741  -0.780   0.946  0.00  0.00    +0.000 A 
ATOM     16  C   UNL     1       1.254  -0.134  -0.184  0.00  0.00    +0.000 A 
ATOM     17  C   UNL     1       2.166   0.194  -1.152  0.00  0.00    +0.000 A 
ATOM     18  C   UNL     1       3.527  -0.105  -1.015  0.00  0.00    +0.000 A 
BRANCH  13  20
ATOM     19  C   UNL     1       6.148   0.042   1.006  0.00  0.00    +0.000 C 
ATOM     20  C   UNL     1       5.399  -1.084   0.319  0.00  0.00    +0.000 C 
ENDBRANCH  13  20
ENDBRANCH   1  16
TORSDOF 2
