REMARK  Name = 
REMARK  4 active torsions:
REMARK  status: ('A' for Active; 'I' for Inactive)
REMARK    1  A    between atoms: C_2  and  N_3
REMARK    2  A    between atoms: C_7  and  C_8
REMARK    3  A    between atoms: N_13  and  C_14
REMARK    4  A    between atoms: C_14  and  C_15
REMARK                            x       y       z     vdW  Elec       q    Type
REMARK                         _______ _______ _______ _____ _____    ______ ____
ROOT
ATOM      1  C   UNL     1       2.171  -1.417  -0.272  0.00  0.00    +0.000 C 
ATOM      2  O   UNL     1       1.866  -2.600   0.202  0.00  0.00    +0.000 OA
ATOM      3  N   UNL     1       1.103  -0.819  -0.943  0.00  0.00    +0.000 N 
ATOM      4  C   UNL     1       1.067   0.461  -1.598  0.00  0.00    +0.000 C 
ATOM      5  C   UNL     1       0.086   1.375  -0.928  0.00  0.00    +0.000 C 
ATOM      6  N   UNL     1      -1.058   0.618  -0.471  0.00  0.00    +0.000 NA
ATOM      7  C   UNL     1      -1.273  -0.484  -1.363  0.00  0.00    +0.000 C 
ATOM      8  C   UNL     1      -0.201  -1.533  -1.044  0.00  0.00    +0.000 C 
ENDROOT
BRANCH   1  13
ATOM      9  N   UNL     1       4.171   0.161  -0.291  0.00  0.00    +0.000 N 
ATOM     10  N   UNL     1       5.457   0.082   0.105  0.00  0.00    +0.000 NA
ATOM     11  C   UNL     1       5.664  -1.114   0.647  0.00  0.00    +0.000 A 
ATOM     12  C   UNL     1       4.471  -1.776   0.576  0.00  0.00    +0.000 A 
ATOM     13  C   UNL     1       3.500  -0.951  -0.034  0.00  0.00    +0.000 A 
BRANCH   9  15
ATOM     14  C   UNL     1       3.128   2.276   0.262  0.00  0.00    +0.000 C 
ATOM     15  C   UNL     1       3.581   1.362  -0.894  0.00  0.00    +0.000 C 
ENDBRANCH   9  15
ENDBRANCH   1  13
BRANCH   6  16
ATOM     16  C   UNL     1      -2.235   1.449  -0.321  0.00  0.00    +0.000 C 
BRANCH  16  17
ATOM     17  C   UNL     1      -3.386   0.661   0.144  0.00  0.00    +0.000 A 
ATOM     18  C   UNL     1      -3.236  -0.705   0.375  0.00  0.00    +0.000 A 
ATOM     19  C   UNL     1      -4.328  -1.421   0.810  0.00  0.00    +0.000 A 
ATOM     20  C   UNL     1      -5.547  -0.795   1.012  0.00  0.00    +0.000 A 
ATOM     21  C   UNL     1      -5.658   0.536   0.776  0.00  0.00    +0.000 A 
ATOM     22  C   UNL     1      -4.597   1.290   0.343  0.00  0.00    +0.000 A 
ATOM     23  I   UNL     1      -4.746   3.344  -0.026  0.00  0.00    +0.000 I 
ENDBRANCH  16  17
ENDBRANCH   6  16
TORSDOF 4
