REMARK  Name = 
REMARK  4 active torsions:
REMARK  status: ('A' for Active; 'I' for Inactive)
REMARK    1  A    between atoms: C_5  and  S_6
REMARK    2  A    between atoms: S_6  and  C_7
REMARK    3  A    between atoms: C_7  and  C_8
REMARK    4  A    between atoms: C_11  and  C_12
REMARK                            x       y       z     vdW  Elec       q    Type
REMARK                         _______ _______ _______ _____ _____    ______ ____
ROOT
ATOM      1  C   UNL     1      -0.289   0.296  -0.785  0.00  0.00    +0.000 C 
ENDROOT
BRANCH   1   2
ATOM      2  C   UNL     1       1.192   0.121  -0.701  0.00  0.00    +0.000 A 
ATOM      3  C   UNL     1       1.774  -1.129  -0.701  0.00  0.00    +0.000 A 
ATOM      4  C   UNL     1       3.142  -1.301  -0.624  0.00  0.00    +0.000 A 
ATOM      5  C   UNL     1       4.003  -0.223  -0.542  0.00  0.00    +0.000 A 
ATOM      6  C   UNL     1       3.417   1.027  -0.542  0.00  0.00    +0.000 A 
ATOM      7  C   UNL     1       2.049   1.199  -0.620  0.00  0.00    +0.000 A 
BRANCH   5   8
ATOM      8  C   UNL     1       5.446  -0.411  -0.461  0.00  0.00    +0.000 C 
ATOM      9  N   UNL     1       6.043  -1.698  -0.461  0.00  0.00    +0.000 NA
ATOM     10  O   UNL     1       6.224   0.571  -0.387  0.00  0.00    +0.000 OA
ENDBRANCH   5   8
ENDBRANCH   1   2
BRANCH   1  11
ATOM     11  S   UNL     1      -0.993   0.319   0.896  0.00  0.00    +0.000 S 
BRANCH  11  16
ATOM     12  C   UNL     1      -7.024   1.033   0.545  0.00  0.00    +0.000 C 
ATOM     13  C   UNL     1      -5.556   0.858   0.664  0.00  0.00    +0.000 A 
ATOM     14  C   UNL     1      -4.922   0.742   1.875  0.00  0.00    +0.000 A 
ATOM     15  C   UNL     1      -3.554   0.581   1.932  0.00  0.00    +0.000 A 
ATOM     16  C   UNL     1      -2.763   0.528   0.806  0.00  0.00    +0.000 A 
ATOM     17  C   UNL     1      -3.403   0.645  -0.414  0.00  0.00    +0.000 A 
ATOM     18  C   UNL     1      -4.786   0.809  -0.479  0.00  0.00    +0.000 A 
ENDBRANCH  11  16
ENDBRANCH   1  11
TORSDOF 4
