REMARK  Name = 
REMARK  4 active torsions:
REMARK  status: ('A' for Active; 'I' for Inactive)
REMARK    1  A    between atoms: C_2  and  C_3
REMARK    2  A    between atoms: C_9  and  N_10
REMARK    3  A    between atoms: C_11  and  C_13
REMARK    4  A    between atoms: C_17  and  N_18
REMARK                            x       y       z     vdW  Elec       q    Type
REMARK                         _______ _______ _______ _____ _____    ______ ____
ROOT
ATOM      1  N   UNL     1       1.308  -0.268  -0.532  0.00  0.00    +0.000 NA
ATOM      2  C   UNL     1       0.127  -0.043   0.223  0.00  0.00    +0.000 C 
ATOM      3  O   UNL     1       0.186   0.811   1.144  0.00  0.00    +0.000 OA
ENDROOT
BRANCH   1  10
ATOM      4  C   UNL     1       3.446   0.031   0.674  0.00  0.00    +0.000 A 
ATOM      5  C   UNL     1       4.577   0.770   0.950  0.00  0.00    +0.000 A 
ATOM      6  C   UNL     1       4.801   1.979   0.338  0.00  0.00    +0.000 A 
ATOM      7  C   UNL     1       3.870   2.439  -0.559  0.00  0.00    +0.000 A 
ATOM      8  C   UNL     1       2.748   1.685  -0.821  0.00  0.00    +0.000 A 
ATOM      9  C   UNL     1       1.715   2.174  -1.804  0.00  0.00    +0.000 C 
ATOM     10  C   UNL     1       2.488   0.463  -0.225  0.00  0.00    +0.000 A 
BRANCH   4  12
ATOM     11  C   UNL     1       3.523  -2.360   0.294  0.00  0.00    +0.000 C 
ATOM     12  C   UNL     1       3.198  -1.294   1.340  0.00  0.00    +0.000 C 
ENDBRANCH   4  12
ENDBRANCH   1  10
BRANCH   2  13
ATOM     13  C   UNL     1      -1.137  -0.726   0.008  0.00  0.00    +0.000 A 
ATOM     14  C   UNL     1      -1.149  -2.078  -0.264  0.00  0.00    +0.000 A 
ATOM     15  C   UNL     1      -2.360  -2.737  -0.465  0.00  0.00    +0.000 A 
ATOM     16  C   UNL     1      -3.561  -2.069  -0.400  0.00  0.00    +0.000 A 
ATOM     17  C   UNL     1      -3.566  -0.720  -0.129  0.00  0.00    +0.000 A 
ATOM     18  C   UNL     1      -2.357  -0.090   0.067  0.00  0.00    +0.000 A 
ATOM     19  C   UNL     1      -2.331   1.371   0.359  0.00  0.00    +0.000 C 
BRANCH  17  20
ATOM     20  N   UNL     1      -4.773   0.027  -0.047  0.00  0.00    +0.000 N 
ATOM     21  O   UNL     1      -4.936   1.016   0.689  0.00  0.00    +0.000 OA
ATOM     22  O   UNL     1      -5.818  -0.379  -0.839  0.00  0.00    +0.000 OA
ENDBRANCH  17  20
ENDBRANCH   2  13
TORSDOF 4
