REMARK  Name = 
REMARK  0 active torsions:
REMARK  status: ('A' for Active; 'I' for Inactive)
REMARK                            x       y       z     vdW  Elec       q    Type
REMARK                         _______ _______ _______ _____ _____    ______ ____
ROOT
ATOM      1  C   UNL     1      -1.720  -0.352   2.009  0.00  0.00    +0.000 C 
ATOM      2  C   UNL     1      -2.283   0.311   0.862  0.00  0.00    +0.000 C 
ATOM      3  C   UNL     1      -1.855   1.648   0.488  0.00  0.00    +0.000 C 
ATOM      4  C   UNL     1      -0.785   1.591  -0.622  0.00  0.00    +0.000 C 
ATOM      5  C   UNL     1       0.141   0.401  -0.301  0.00  0.00    +0.000 A 
ATOM      6  C   UNL     1      -0.494  -0.804  -0.198  0.00  0.00    +0.000 A 
ATOM      7  S   UNL     1       0.679  -1.867   0.143  0.00  0.00    +0.000 S 
ATOM      8  C   UNL     1       2.052  -0.840   0.174  0.00  0.00    +0.000 A 
ATOM      9  C   UNL     1       3.422  -0.944   0.387  0.00  0.00    +0.000 A 
ATOM     10  C   UNL     1       4.280   0.135   0.335  0.00  0.00    +0.000 A 
ATOM     11  O   UNL     1       5.626   0.027   0.546  0.00  0.00    +0.000 OA
ATOM     12  C   UNL     1       3.696   1.345   0.056  0.00  0.00    +0.000 A 
ATOM     13  C   UNL     1       2.365   1.501  -0.160  0.00  0.00    +0.000 A 
ATOM     14  C   UNL     1       1.504   0.380  -0.102  0.00  0.00    +0.000 A 
ATOM     15  C   UNL     1      -2.039  -0.548  -0.482  0.00  0.00    +0.000 C 
ATOM     16  C   UNL     1      -2.631  -1.847   0.295  0.00  0.00    +0.000 C 
ATOM     17  C   UNL     1      -4.001  -1.276   0.174  0.00  0.00    +0.000 C 
ATOM     18  C   UNL     1      -3.904   0.195   0.888  0.00  0.00    +0.000 C 
ATOM     19  O   UNL     1      -4.054   0.945  -0.418  0.00  0.00    +0.000 OA
ENDROOT
TORSDOF 0
