REMARK  Name = 
REMARK  2 active torsions:
REMARK  status: ('A' for Active; 'I' for Inactive)
REMARK    1  A    between atoms: C_7  and  C_8
REMARK    2  A    between atoms: C_11  and  C_12
REMARK                            x       y       z     vdW  Elec       q    Type
REMARK                         _______ _______ _______ _____ _____    ______ ____
ROOT
ATOM      1  C   UNL     1      -0.600  -2.756   0.686  0.00  0.00    +0.000 C 
ATOM      2  C   UNL     1      -1.446  -1.638   0.187  0.00  0.00    +0.000 A 
ATOM      3  C   UNL     1      -2.635  -1.872  -0.512  0.00  0.00    +0.000 A 
ATOM      4  C   UNL     1      -3.433  -0.853  -0.983  0.00  0.00    +0.000 A 
ATOM      5  O   UNL     1      -4.618  -1.113  -1.679  0.00  0.00    +0.000 OA
ATOM      6  C   UNL     1      -3.010   0.434  -0.735  0.00  0.00    +0.000 A 
ATOM      7  C   UNL     1      -1.842   0.685  -0.048  0.00  0.00    +0.000 A 
ATOM      8  C   UNL     1      -1.054  -0.340   0.416  0.00  0.00    +0.000 A 
ENDROOT
BRANCH   8   9
ATOM      9  C   UNL     1       0.247  -0.053   1.194  0.00  0.00    +0.000 C 
ATOM     10  N   UNL     1       1.099  -1.095   0.454  0.00  0.00    +0.000 NA
ATOM     11  C   UNL     1       2.345  -0.584   0.169  0.00  0.00    +0.000 A 
ATOM     12  C   UNL     1       3.487  -1.407   0.079  0.00  0.00    +0.000 A 
ATOM     13  C   UNL     1       4.704  -0.847  -0.199  0.00  0.00    +0.000 A 
ATOM     14  C   UNL     1       4.836   0.520  -0.394  0.00  0.00    +0.000 A 
ATOM     15  C   UNL     1       3.725   1.317  -0.306  0.00  0.00    +0.000 A 
ATOM     16  C   UNL     1       2.505   0.727  -0.024  0.00  0.00    +0.000 A 
ATOM     17  S   UNL     1       0.852   1.429   0.157  0.00  0.00    +0.000 S 
ENDBRANCH   8   9
BRANCH   7  18
ATOM     18  C   UNL     1      -1.350   2.062   0.249  0.00  0.00    +0.000 C 
ATOM     19  C   UNL     1      -2.340   3.015  -0.439  0.00  0.00    +0.000 C 
ATOM     20  C   UNL     1      -1.474   2.370   1.728  0.00  0.00    +0.000 C 
ENDBRANCH   7  18
TORSDOF 2
