REMARK  Name = 
REMARK  3 active torsions:
REMARK  status: ('A' for Active; 'I' for Inactive)
REMARK    1  A    between atoms: C_6  and  S_7
REMARK    2  A    between atoms: S_7  and  C_8
REMARK    3  A    between atoms: C_9  and  N_10
REMARK                            x       y       z     vdW  Elec       q    Type
REMARK                         _______ _______ _______ _____ _____    ______ ____
ROOT
ATOM      1  C   UNL     1       5.958   0.141   0.875  0.00  0.00    +0.000 C 
ATOM      2  C   UNL     1       4.515   0.017   0.496  0.00  0.00    +0.000 A 
ATOM      3  C   UNL     1       3.579  -0.139   1.500  0.00  0.00    +0.000 A 
ATOM      4  C   UNL     1       2.233  -0.252   1.164  0.00  0.00    +0.000 A 
ATOM      5  N   UNL     1       1.106  -0.393   1.877  0.00  0.00    +0.000 NA
ATOM      6  C   UNL     1       0.023  -0.441   1.063  0.00  0.00    +0.000 A 
ATOM      7  N   UNL     1       0.487  -0.327  -0.174  0.00  0.00    +0.000 NA
ATOM      8  C   UNL     1       1.842  -0.208  -0.152  0.00  0.00    +0.000 A 
ATOM      9  C   UNL     1       2.813  -0.049  -1.139  0.00  0.00    +0.000 A 
ATOM     10  C   UNL     1       4.148   0.064  -0.835  0.00  0.00    +0.000 A 
ATOM     11  C   UNL     1       5.215   0.237  -1.864  0.00  0.00    +0.000 C 
ENDROOT
BRANCH   6  12
ATOM     12  S   UNL     1      -1.645  -0.588   1.697  0.00  0.00    +0.000 S 
BRANCH  12  13
ATOM     13  C   UNL     1      -2.848  -0.562   0.407  0.00  0.00    +0.000 A 
ATOM     14  C   UNL     1      -3.368   0.621  -0.116  0.00  0.00    +0.000 A 
ATOM     15  N   UNL     1      -4.289   0.329  -1.058  0.00  0.00    +0.000 NA
ATOM     16  C   UNL     1      -4.356  -1.026  -1.137  0.00  0.00    +0.000 A 
ATOM     17  N   UNL     1      -3.488  -1.538  -0.255  0.00  0.00    +0.000 N 
ATOM     18  C   UNL     1      -3.272  -2.955  -0.038  0.00  0.00    +0.000 C 
BRANCH  14  19
ATOM     19  N   UNL     1      -3.012   1.940   0.239  0.00  0.00    +0.000 N 
ATOM     20  O   UNL     1      -3.105   2.902  -0.572  0.00  0.00    +0.000 OA
ATOM     21  O   UNL     1      -2.537   2.228   1.491  0.00  0.00    +0.000 OA
ENDBRANCH  14  19
ENDBRANCH  12  13
ENDBRANCH   6  12
TORSDOF 3
