REMARK  Name = 
REMARK  3 active torsions:
REMARK  status: ('A' for Active; 'I' for Inactive)
REMARK    1  A    between atoms: C_4  and  C_5
REMARK    2  A    between atoms: N_13  and  C_14
REMARK    3  A    between atoms: C_14  and  C_15
REMARK                            x       y       z     vdW  Elec       q    Type
REMARK                         _______ _______ _______ _____ _____    ______ ____
ROOT
ATOM      1  O   UNL     1      -0.575   2.152   1.835  0.00  0.00    +0.000 OA
ATOM      2  C   UNL     1       0.106   1.251   1.285  0.00  0.00    +0.000 C 
ATOM      3  N   UNL     1       1.422   1.381   0.839  0.00  0.00    +0.000 NA
ATOM      4  C   UNL     1       1.646   0.276  -0.268  0.00  0.00    +0.000 C 
ATOM      5  C   UNL     1       0.673  -0.803   0.395  0.00  0.00    +0.000 C 
ATOM      6  O   UNL     1       0.895  -1.986   0.297  0.00  0.00    +0.000 OA
ATOM      7  N   UNL     1      -0.332  -0.076   1.010  0.00  0.00    +0.000 N 
ENDROOT
BRANCH   4   8
ATOM      8  C   UNL     1       3.013  -0.316   0.478  0.00  0.00    +0.000 C 
ATOM      9  C   UNL     1       3.963   0.845   0.517  0.00  0.00    +0.000 C 
ATOM     10  C   UNL     1       3.882   1.563  -0.805  0.00  0.00    +0.000 C 
ATOM     11  C   UNL     1       4.462   0.626  -1.854  0.00  0.00    +0.000 C 
ATOM     12  C   UNL     1       3.738  -0.696  -1.879  0.00  0.00    +0.000 C 
ATOM     13  C   UNL     1       3.557  -1.309  -0.531  0.00  0.00    +0.000 C 
ENDBRANCH   4   8
BRANCH   7  14
ATOM     14  C   UNL     1      -1.651  -0.593   1.331  0.00  0.00    +0.000 C 
BRANCH  14  15
ATOM     15  C   UNL     1      -2.575  -0.367   0.209  0.00  0.00    +0.000 A 
ATOM     16  C   UNL     1      -2.113   0.258  -0.920  0.00  0.00    +0.000 A 
ATOM     17  C   UNL     1      -2.950   0.475  -1.962  0.00  0.00    +0.000 A 
ATOM     18  C   UNL     1      -4.257   0.068  -1.886  0.00  0.00    +0.000 A 
ATOM     19  C   UNL     1      -4.714  -0.561  -0.746  0.00  0.00    +0.000 A 
ATOM     20  C   UNL     1      -3.877  -0.787   0.319  0.00  0.00    +0.000 A 
ATOM     21  F   UNL     1      -4.314  -1.400   1.436  0.00  0.00    +0.000 F 
ENDBRANCH  14  15
ENDBRANCH   7  14
TORSDOF 3
