REMARK  Name = 
REMARK  4 active torsions:
REMARK  status: ('A' for Active; 'I' for Inactive)
REMARK    1  A    between atoms: C_2  and  C_4
REMARK    2  A    between atoms: C_4  and  O_5
REMARK    3  A    between atoms: O_5  and  C_6
REMARK    4  A    between atoms: C_9  and  C_10
REMARK                            x       y       z     vdW  Elec       q    Type
REMARK                         _______ _______ _______ _____ _____    ______ ____
ROOT
ATOM      1  C   UNL     1       2.095   0.070  -1.216  0.00  0.00    +0.000 A 
ATOM      2  C   UNL     1       2.030   0.561   0.052  0.00  0.00    +0.000 A 
ATOM      3  C   UNL     1       0.931   0.421   0.893  0.00  0.00    +0.000 A 
ATOM      4  C   UNL     1      -0.197  -0.266   0.422  0.00  0.00    +0.000 A 
ATOM      5  C   UNL     1      -0.135  -0.760  -0.851  0.00  0.00    +0.000 A 
ATOM      6  C   UNL     1       0.978  -0.610  -1.678  0.00  0.00    +0.000 A 
ENDROOT
BRANCH   4   7
ATOM      7  C   UNL     1      -1.356  -0.446   1.307  0.00  0.00    +0.000 C 
ATOM      8  C   UNL     1      -2.596  -0.302   0.963  0.00  0.00    +0.000 C 
ATOM      9  N   UNL     1      -3.075   0.047  -0.306  0.00  0.00    +0.000 NA
ATOM     10  C   UNL     1      -4.496   0.090  -0.258  0.00  0.00    +0.000 C 
ATOM     11  S   UNL     1      -5.531   0.449  -1.480  0.00  0.00    +0.000 S 
ATOM     12  N   UNL     1      -4.896  -0.238   1.072  0.00  0.00    +0.000 NA
ATOM     13  C   UNL     1      -3.748  -0.489   1.863  0.00  0.00    +0.000 C 
ATOM     14  O   UNL     1      -3.702  -0.811   3.098  0.00  0.00    +0.000 OA
ENDBRANCH   4   7
BRANCH   1  15
ATOM     15  O   UNL     1       3.237   0.249  -2.003  0.00  0.00    +0.000 OA
BRANCH  15  16
ATOM     16  C   UNL     1       4.360   0.962  -1.493  0.00  0.00    +0.000 C 
BRANCH  16  18
ATOM     17  C   UNL     1       6.077   1.038   0.334  0.00  0.00    +0.000 C 
ATOM     18  C   UNL     1       4.891   0.306  -0.220  0.00  0.00    +0.000 C 
ATOM     19  C   UNL     1       5.133  -1.142  -0.499  0.00  0.00    +0.000 C 
ENDBRANCH  16  18
ENDBRANCH  15  16
ENDBRANCH   1  15
TORSDOF 4
