REMARK  Name = 
REMARK  2 active torsions:
REMARK  status: ('A' for Active; 'I' for Inactive)
REMARK    1  A    between atoms: C_7  and  S_8
REMARK    2  A    between atoms: S_8  and  C_9
REMARK                            x       y       z     vdW  Elec       q    Type
REMARK                         _______ _______ _______ _____ _____    ______ ____
ROOT
ATOM      1  C   UNL     1      -0.144  -1.542   0.164  0.00  0.00    +0.000 A 
ATOM      2  N   UNL     1       0.111  -2.631   0.869  0.00  0.00    +0.000 NA
ATOM      3  C   UNL     1      -0.642  -3.087   1.855  0.00  0.00    +0.000 A 
ATOM      4  N   UNL     1      -1.750  -2.371   2.147  0.00  0.00    +0.000 NA
ATOM      5  C   UNL     1      -2.059  -1.240   1.449  0.00  0.00    +0.000 A 
ATOM      6  S   UNL     1      -3.335  -0.111   1.529  0.00  0.00    +0.000 S 
ATOM      7  C   UNL     1      -2.858   0.935   0.271  0.00  0.00    +0.000 A 
ATOM      8  C   UNL     1      -1.695   0.360  -0.182  0.00  0.00    +0.000 A 
ATOM      9  C   UNL     1      -1.283  -0.760   0.424  0.00  0.00    +0.000 A 
ATOM     10  C   UNL     1      -1.076   1.142  -1.334  0.00  0.00    +0.000 C 
ATOM     11  C   UNL     1      -2.193   1.272  -2.358  0.00  0.00    +0.000 C 
ATOM     12  C   UNL     1      -3.322   2.134  -1.861  0.00  0.00    +0.000 C 
ATOM     13  C   UNL     1      -3.388   2.201  -0.363  0.00  0.00    +0.000 C 
ENDROOT
BRANCH   1  14
ATOM     14  S   UNL     1       1.002  -1.099  -1.127  0.00  0.00    +0.000 S 
BRANCH  14  21
ATOM     15  N   UNL     1       3.316   0.114  -2.547  0.00  0.00    +0.000 NA
ATOM     16  C   UNL     1       3.267   0.454  -1.159  0.00  0.00    +0.000 A 
ATOM     17  C   UNL     1       4.223   1.266  -0.590  0.00  0.00    +0.000 A 
ATOM     18  C   UNL     1       4.188   1.595   0.725  0.00  0.00    +0.000 A 
ATOM     19  C   UNL     1       3.172   1.113   1.534  0.00  0.00    +0.000 A 
ATOM     20  C   UNL     1       2.220   0.299   0.947  0.00  0.00    +0.000 A 
ATOM     21  C   UNL     1       2.244  -0.044  -0.390  0.00  0.00    +0.000 A 
ENDBRANCH  14  21
ENDBRANCH   1  14
TORSDOF 2
