REMARK  Name = 
REMARK  2 active torsions:
REMARK  status: ('A' for Active; 'I' for Inactive)
REMARK    1  A    between atoms: C_2  and  C_4
REMARK    2  A    between atoms: C_9  and  C_10
REMARK                            x       y       z     vdW  Elec       q    Type
REMARK                         _______ _______ _______ _____ _____    ______ ____
ROOT
ATOM      1  C   UNL     1       3.664  -0.132   0.195  0.00  0.00    +0.000 A 
ATOM      2  C   UNL     1       3.510   1.188  -0.176  0.00  0.00    +0.000 A 
ATOM      3  C   UNL     1       2.254   1.746  -0.372  0.00  0.00    +0.000 A 
ATOM      4  C   UNL     1       1.112   0.995  -0.203  0.00  0.00    +0.000 A 
ATOM      5  O   UNL     1      -0.166   1.269  -0.322  0.00  0.00    +0.000 OA
ATOM      6  C   UNL     1      -0.876   0.185  -0.045  0.00  0.00    +0.000 A 
ATOM      7  N   UNL     1      -0.012  -0.793   0.255  0.00  0.00    +0.000 NA
ATOM      8  C   UNL     1       1.248  -0.328   0.168  0.00  0.00    +0.000 A 
ATOM      9  C   UNL     1       2.512  -0.874   0.362  0.00  0.00    +0.000 A 
ENDROOT
BRANCH   6  10
ATOM     10  C   UNL     1      -2.303   0.056  -0.058  0.00  0.00    +0.000 A 
ATOM     11  C   UNL     1      -2.913  -1.131   0.251  0.00  0.00    +0.000 A 
ATOM     12  C   UNL     1      -4.267  -1.280   0.246  0.00  0.00    +0.000 A 
ATOM     13  N   UNL     1      -4.851  -2.542   0.576  0.00  0.00    +0.000 NA
ATOM     14  C   UNL     1      -5.036  -0.180  -0.084  0.00  0.00    +0.000 A 
ATOM     15  C   UNL     1      -4.457   1.031  -0.400  0.00  0.00    +0.000 A 
ATOM     16  C   UNL     1      -3.078   1.134  -0.382  0.00  0.00    +0.000 A 
ATOM     17 CL   UNL     1      -2.399   2.707  -0.795  0.00  0.00    +0.000 Cl
ENDBRANCH   6  10
BRANCH   1  19
ATOM     18  C   UNL     1       6.082  -0.065  -0.379  0.00  0.00    +0.000 C 
ATOM     19  C   UNL     1       4.995  -0.752   0.412  0.00  0.00    +0.000 C 
ATOM     20  C   UNL     1       4.984  -2.234   0.242  0.00  0.00    +0.000 C 
ENDBRANCH   1  19
TORSDOF 2
