REMARK  Name = 
REMARK  2 active torsions:
REMARK  status: ('A' for Active; 'I' for Inactive)
REMARK    1  A    between atoms: N_2  and  C_4
REMARK    2  A    between atoms: C_7  and  C_8
REMARK                            x       y       z     vdW  Elec       q    Type
REMARK                         _______ _______ _______ _____ _____    ______ ____
ROOT
ATOM      1  C   UNL     1      -1.024   0.492  -0.040  0.00  0.00    +0.000 A 
ATOM      2  N   UNL     1      -1.518   1.740  -0.103  0.00  0.00    +0.000 NA
ATOM      3  C   UNL     1      -2.846   1.922  -0.013  0.00  0.00    +0.000 A 
ATOM      4  S   UNL     1      -3.464   3.432  -0.089  0.00  0.00    +0.000 S 
ATOM      5  N   UNL     1      -3.682   0.880   0.139  0.00  0.00    +0.000 NA
ATOM      6  C   UNL     1      -3.203  -0.379   0.204  0.00  0.00    +0.000 A 
ATOM      7  C   UNL     1      -1.850  -0.602   0.116  0.00  0.00    +0.000 A 
ATOM      8  C   UNL     1      -1.589  -2.064   0.215  0.00  0.00    +0.000 C 
ATOM      9  C   UNL     1      -2.948  -2.705  -0.092  0.00  0.00    +0.000 C 
ATOM     10  N   UNL     1      -3.843  -1.657   0.360  0.00  0.00    +0.000 NA
ENDROOT
BRANCH   1  14
ATOM     11  C   UNL     1       3.167  -0.147  -0.318  0.00  0.00    +0.000 A 
ATOM     12  C   UNL     1       2.614   1.102  -0.378  0.00  0.00    +0.000 A 
ATOM     13  C   UNL     1       1.253   1.297  -0.286  0.00  0.00    +0.000 A 
ATOM     14  C   UNL     1       0.411   0.220  -0.131  0.00  0.00    +0.000 A 
ATOM     15  C   UNL     1       0.942  -1.040  -0.069  0.00  0.00    +0.000 A 
ATOM     16  C   UNL     1       2.320  -1.224  -0.163  0.00  0.00    +0.000 A 
BRANCH  11  18
ATOM     17  C   UNL     1       5.502   0.763  -0.578  0.00  0.00    +0.000 C 
ATOM     18  N   UNL     1       4.593  -0.350  -0.414  0.00  0.00    +0.000 N 
ATOM     19  C   UNL     1       5.163  -1.679  -0.350  0.00  0.00    +0.000 C 
ENDBRANCH  11  18
ENDBRANCH   1  14
TORSDOF 2
