REMARK  Name = 
REMARK  0 active torsions:
REMARK  status: ('A' for Active; 'I' for Inactive)
REMARK                            x       y       z     vdW  Elec       q    Type
REMARK                         _______ _______ _______ _____ _____    ______ ____
ROOT
ATOM      1  C   UNL     1      -3.245   0.894  -1.112  0.00  0.00    +0.000 C 
ATOM      2  C   UNL     1      -3.733   0.646   0.314  0.00  0.00    +0.000 C 
ATOM      3  C   UNL     1      -5.092   1.263   0.434  0.00  0.00    +0.000 C 
ATOM      4  C   UNL     1      -3.786  -0.849   0.605  0.00  0.00    +0.000 C 
ATOM      5  C   UNL     1      -2.397  -1.372   0.514  0.00  0.00    +0.000 C 
ATOM      6  O   UNL     1      -2.203  -2.615   0.479  0.00  0.00    +0.000 OA
ATOM      7  C   UNL     1      -1.246  -0.466   0.464  0.00  0.00    +0.000 A 
ATOM      8  C   UNL     1      -1.375   0.858   0.810  0.00  0.00    +0.000 A 
ATOM      9  N   UNL     1      -0.343   1.711   0.774  0.00  0.00    +0.000 NA
ATOM     10  C   UNL     1       0.879   1.253   0.383  0.00  0.00    +0.000 A 
ATOM     11  N   UNL     1       2.085   1.835   0.242  0.00  0.00    +0.000 NA
ATOM     12  C   UNL     1       2.990   0.941  -0.180  0.00  0.00    +0.000 A 
ATOM     13  C   UNL     1       4.338   0.957  -0.487  0.00  0.00    +0.000 A 
ATOM     14  C   UNL     1       5.017  -0.172  -0.913  0.00  0.00    +0.000 A 
ATOM     15  C   UNL     1       4.328  -1.357  -1.036  0.00  0.00    +0.000 A 
ATOM     16  C   UNL     1       2.967  -1.410  -0.734  0.00  0.00    +0.000 A 
ATOM     17  C   UNL     1       2.325  -0.263  -0.313  0.00  0.00    +0.000 A 
ATOM     18  N   UNL     1       1.057  -0.034   0.035  0.00  0.00    +0.000 N 
ATOM     19  C   UNL     1       0.007  -0.899   0.071  0.00  0.00    +0.000 A 
ATOM     20  N   UNL     1       0.142  -2.257  -0.283  0.00  0.00    +0.000 NA
ATOM     21  C   UNL     1      -2.714   1.333   1.232  0.00  0.00    +0.000 C 
ENDROOT
TORSDOF 0
