REMARK  Name = 
REMARK  4 active torsions:
REMARK  status: ('A' for Active; 'I' for Inactive)
REMARK    1  A    between atoms: N_11  and  C_12
REMARK    2  A    between atoms: C_12  and  C_13
REMARK    3  A    between atoms: C_13  and  O_14
REMARK    4  A    between atoms: O_14  and  C_15
REMARK                            x       y       z     vdW  Elec       q    Type
REMARK                         _______ _______ _______ _____ _____    ______ ____
ROOT
ATOM      1  O   UNL     1       1.761   3.066   1.112  0.00  0.00    +0.000 OA
ATOM      2  C   UNL     1       1.958   1.861   0.772  0.00  0.00    +0.000 C 
ATOM      3  N   UNL     1       2.783   0.884   1.411  0.00  0.00    +0.000 NA
ATOM      4  C   UNL     1       3.009  -0.165   0.439  0.00  0.00    +0.000 C 
ATOM      5  C   UNL     1       3.166  -1.519   1.063  0.00  0.00    +0.000 C 
ATOM      6  C   UNL     1       4.239  -2.225   0.287  0.00  0.00    +0.000 C 
ATOM      7  C   UNL     1       4.754  -1.241  -0.732  0.00  0.00    +0.000 C 
ATOM      8  C   UNL     1       4.277   0.116  -0.304  0.00  0.00    +0.000 C 
ATOM      9  C   UNL     1       1.798  -0.070  -0.428  0.00  0.00    +0.000 C 
ATOM     10  O   UNL     1       1.277  -1.007  -1.086  0.00  0.00    +0.000 OA
ATOM     11  N   UNL     1       1.339   1.280  -0.373  0.00  0.00    +0.000 N 
ENDROOT
BRANCH  11  12
ATOM     12  C   UNL     1       0.422   1.940  -1.300  0.00  0.00    +0.000 C 
BRANCH  12  13
ATOM     13  C   UNL     1      -1.004   1.749  -0.798  0.00  0.00    +0.000 C 
BRANCH  13  14
ATOM     14  O   UNL     1      -1.242   0.370  -0.753  0.00  0.00    +0.000 OA
BRANCH  14  15
ATOM     15  C   UNL     1      -2.471  -0.118  -0.329  0.00  0.00    +0.000 A 
ATOM     16  C   UNL     1      -2.735  -1.468  -0.275  0.00  0.00    +0.000 A 
ATOM     17  C   UNL     1      -3.974  -1.919   0.154  0.00  0.00    +0.000 A 
ATOM     18  C   UNL     1      -4.980  -1.058   0.537  0.00  0.00    +0.000 A 
ATOM     19  F   UNL     1      -6.195  -1.524   0.957  0.00  0.00    +0.000 F 
ATOM     20  C   UNL     1      -4.713   0.295   0.481  0.00  0.00    +0.000 A 
ATOM     21  C   UNL     1      -3.470   0.753   0.052  0.00  0.00    +0.000 A 
ENDBRANCH  14  15
ENDBRANCH  13  14
ENDBRANCH  12  13
ENDBRANCH  11  12
TORSDOF 4
