REMARK  Name = 
REMARK  3 active torsions:
REMARK  status: ('A' for Active; 'I' for Inactive)
REMARK    1  A    between atoms: C_7  and  N_8
REMARK    2  A    between atoms: N_8  and  C_9
REMARK    3  A    between atoms: C_13  and  C_14
REMARK                            x       y       z     vdW  Elec       q    Type
REMARK                         _______ _______ _______ _____ _____    ______ ____
ROOT
ATOM      1  C   UNL     1      -0.356   4.674  -0.005  0.00  0.00    +0.000 C 
ATOM      2  C   UNL     1      -1.298   3.596   0.309  0.00  0.00    +0.000 A 
ATOM      3  C   UNL     1      -2.595   3.897   0.659  0.00  0.00    +0.000 A 
ATOM      4  C   UNL     1      -3.444   2.850   0.946  0.00  0.00    +0.000 A 
ATOM      5  C   UNL     1      -2.962   1.559   0.871  0.00  0.00    +0.000 A 
ATOM      6  N   UNL     1      -1.692   1.297   0.527  0.00  0.00    +0.000 N 
ATOM      7  C   UNL     1      -0.985   0.092   0.385  0.00  0.00    +0.000 A 
ATOM      8  C   UNL     1       0.301   0.377   0.011  0.00  0.00    +0.000 A 
ATOM      9  N   UNL     1       0.350   1.758  -0.067  0.00  0.00    +0.000 NA
ATOM     10  C   UNL     1      -0.840   2.272   0.242  0.00  0.00    +0.000 A 
ENDROOT
BRANCH   8  11
ATOM     11  C   UNL     1       1.446  -0.459  -0.304  0.00  0.00    +0.000 A 
ATOM     12  C   UNL     1       2.111  -0.279  -1.528  0.00  0.00    +0.000 A 
ATOM     13  C   UNL     1       3.216  -0.980  -1.883  0.00  0.00    +0.000 A 
ATOM     14  C   UNL     1       3.737  -1.920  -1.027  0.00  0.00    +0.000 A 
ATOM     15  O   UNL     1       4.879  -2.654  -1.375  0.00  0.00    +0.000 OA
ATOM     16  C   UNL     1       3.102  -2.119   0.188  0.00  0.00    +0.000 A 
ATOM     17  C   UNL     1       1.985  -1.390   0.512  0.00  0.00    +0.000 A 
ENDBRANCH   8  11
BRANCH   7  18
ATOM     18  N   UNL     1      -1.630  -1.092   0.580  0.00  0.00    +0.000 NA
BRANCH  18  19
ATOM     19  C   UNL     1      -1.352  -2.437   0.578  0.00  0.00    +0.000 C 
ATOM     20  C   UNL     1      -2.720  -3.189   0.650  0.00  0.00    +0.000 C 
ATOM     21  C   UNL     1      -0.536  -2.934   1.786  0.00  0.00    +0.000 C 
ATOM     22  C   UNL     1      -0.718  -2.918  -0.695  0.00  0.00    +0.000 C 
ENDBRANCH  18  19
ENDBRANCH   7  18
TORSDOF 3
