REMARK  Name = 
REMARK  4 active torsions:
REMARK  status: ('A' for Active; 'I' for Inactive)
REMARK    1  A    between atoms: C_2  and  O_3
REMARK    2  A    between atoms: O_3  and  C_4
REMARK    3  A    between atoms: C_4  and  C_6
REMARK    4  A    between atoms: C_9  and  C_10
REMARK                            x       y       z     vdW  Elec       q    Type
REMARK                         _______ _______ _______ _____ _____    ______ ____
ROOT
ATOM      1  C   UNL     1       1.467  -0.573  -0.043  0.00  0.00    +0.000 C 
ATOM      2  C   UNL     1       0.565  -0.095   0.700  0.00  0.00    +0.000 C 
ATOM      3  C   UNL     1       0.793   1.306   1.263  0.00  0.00    +0.000 C 
ATOM      4  C   UNL     1      -0.754  -0.742   1.121  0.00  0.00    +0.000 C 
ATOM      5  N   UNL     1      -0.823  -2.086   0.496  0.00  0.00    +0.000 NA
ATOM      6  C   UNL     1       0.167  -2.594  -0.310  0.00  0.00    +0.000 C 
ATOM      7  O   UNL     1       0.063  -3.774  -0.834  0.00  0.00    +0.000 OA
ATOM      8  N   UNL     1       1.361  -1.869  -0.623  0.00  0.00    +0.000 NA
ENDROOT
BRANCH   4   9
ATOM      9  C   UNL     1      -1.836   0.019   0.200  0.00  0.00    +0.000 A 
ATOM     10  C   UNL     1      -1.696   0.256  -1.080  0.00  0.00    +0.000 A 
ATOM     11  C   UNL     1      -2.725   0.932  -1.756  0.00  0.00    +0.000 A 
ATOM     12  C   UNL     1      -3.836   1.322  -1.073  0.00  0.00    +0.000 A 
ATOM     13  C   UNL     1      -3.981   1.074   0.264  0.00  0.00    +0.000 A 
ATOM     14  C   UNL     1      -2.940   0.399   0.909  0.00  0.00    +0.000 A 
ATOM     15  F   UNL     1      -3.119   0.171   2.232  0.00  0.00    +0.000 F 
ENDBRANCH   4   9
BRANCH   1  16
ATOM     16  C   UNL     1       2.710   0.210  -0.354  0.00  0.00    +0.000 C 
ATOM     17  O   UNL     1       3.593  -0.263  -1.083  0.00  0.00    +0.000 OA
BRANCH  16  18
ATOM     18  O   UNL     1       2.883   1.482   0.177  0.00  0.00    +0.000 OA
BRANCH  18  20
ATOM     19  C   UNL     1       4.112   2.541  -1.540  0.00  0.00    +0.000 C 
ATOM     20  C   UNL     1       3.997   2.283  -0.053  0.00  0.00    +0.000 C 
ENDBRANCH  18  20
ENDBRANCH  16  18
ENDBRANCH   1  16
TORSDOF 4
