REMARK  Name = 
REMARK  4 active torsions:
REMARK  status: ('A' for Active; 'I' for Inactive)
REMARK    1  A    between atoms: C_2  and  O_3
REMARK    2  A    between atoms: O_3  and  C_4
REMARK    3  A    between atoms: C_4  and  C_6
REMARK    4  A    between atoms: C_17  and  C_18
REMARK                            x       y       z     vdW  Elec       q    Type
REMARK                         _______ _______ _______ _____ _____    ______ ____
ROOT
ATOM      1  C   UNL     1       0.972   0.584  -0.578  0.00  0.00    +0.000 C 
ATOM      2  C   UNL     1       0.558   1.464  -1.392  0.00  0.00    +0.000 C 
ATOM      3  N   UNL     1       1.403   1.683  -2.556  0.00  0.00    +0.000 NA
ATOM      4  O   UNL     1      -0.598   2.164  -1.203  0.00  0.00    +0.000 OA
ATOM      5  C   UNL     1      -1.347   1.905  -0.084  0.00  0.00    +0.000 C 
ATOM      6  C   UNL     1      -1.023   1.047   0.781  0.00  0.00    +0.000 C 
ATOM      7  C   UNL     1      -1.871   0.806   1.978  0.00  0.00    +0.000 C 
ATOM      8  O   UNL     1      -1.372   0.536   3.103  0.00  0.00    +0.000 OA
ATOM      9  C   UNL     1      -3.331   0.896   1.790  0.00  0.00    +0.000 C 
ATOM     10  C   UNL     1      -3.731   1.804   0.672  0.00  0.00    +0.000 C 
ATOM     11  C   UNL     1      -2.637   2.671   0.161  0.00  0.00    +0.000 C 
ATOM     12  C   UNL     1       0.276   0.139   0.756  0.00  0.00    +0.000 C 
ENDROOT
BRANCH  12  13
ATOM     13  C   UNL     1      -0.315  -1.232   0.282  0.00  0.00    +0.000 A 
ATOM     14  C   UNL     1      -0.956  -1.515  -0.864  0.00  0.00    +0.000 A 
ATOM     15  C   UNL     1      -1.364  -2.768  -1.031  0.00  0.00    +0.000 A 
ATOM     16  C   UNL     1      -1.117  -3.680  -0.052  0.00  0.00    +0.000 A 
ATOM     17  S   UNL     1      -0.285  -2.693   1.110  0.00  0.00    +0.000 S 
ENDBRANCH  12  13
BRANCH   1  18
ATOM     18  C   UNL     1       2.238  -0.166  -0.810  0.00  0.00    +0.000 C 
ATOM     19  O   UNL     1       2.928   0.063  -1.830  0.00  0.00    +0.000 OA
BRANCH  18  20
ATOM     20  O   UNL     1       2.684  -1.117   0.072  0.00  0.00    +0.000 OA
BRANCH  20  22
ATOM     21  C   UNL     1       4.995  -0.780  -0.252  0.00  0.00    +0.000 C 
ATOM     22  C   UNL     1       3.894  -1.809  -0.185  0.00  0.00    +0.000 C 
ENDBRANCH  20  22
ENDBRANCH  18  20
ENDBRANCH   1  18
TORSDOF 4
