REMARK  Name = 
REMARK  3 active torsions:
REMARK  status: ('A' for Active; 'I' for Inactive)
REMARK    1  A    between atoms: C_2  and  C_3
REMARK    2  A    between atoms: C_6  and  C_7
REMARK    3  A    between atoms: C_14  and  C_15
REMARK                            x       y       z     vdW  Elec       q    Type
REMARK                         _______ _______ _______ _____ _____    ______ ____
ROOT
ATOM      1  C   UNL     1      -2.738  -1.760  -0.194  0.00  0.00    +0.000 A 
ATOM      2  N   UNL     1      -1.703  -2.575  -0.457  0.00  0.00    +0.000 NA
ATOM      3  N   UNL     1      -0.443  -2.154  -0.473  0.00  0.00    +0.000 NA
ATOM      4  C   UNL     1      -0.140  -0.854  -0.217  0.00  0.00    +0.000 A 
ATOM      5  C   UNL     1      -1.173  -0.004   0.054  0.00  0.00    +0.000 A 
ATOM      6  N   UNL     1      -2.464  -0.469   0.063  0.00  0.00    +0.000 NA
ENDROOT
BRANCH   4   7
ATOM      7  C   UNL     1       1.221  -0.366  -0.233  0.00  0.00    +0.000 A 
ATOM      8  C   UNL     1       1.686   0.569  -1.119  0.00  0.00    +0.000 A 
ATOM      9  C   UNL     1       2.993   0.954  -1.057  0.00  0.00    +0.000 A 
ATOM     10  C   UNL     1       3.870   0.438  -0.131  0.00  0.00    +0.000 A 
ATOM     11  C   UNL     1       5.309   0.900  -0.107  0.00  0.00    +0.000 C 
ATOM     12  C   UNL     1       3.418  -0.500   0.765  0.00  0.00    +0.000 A 
ATOM     13  C   UNL     1       2.104  -0.886   0.701  0.00  0.00    +0.000 A 
ENDBRANCH   4   7
BRANCH   5  14
ATOM     14  C   UNL     1      -0.920   1.403   0.338  0.00  0.00    +0.000 A 
ATOM     15  C   UNL     1      -0.412   2.395  -0.457  0.00  0.00    +0.000 A 
ATOM     16  C   UNL     1      -0.349   3.586   0.217  0.00  0.00    +0.000 A 
ATOM     17  C   UNL     1      -0.839   3.317   1.482  0.00  0.00    +0.000 A 
ATOM     18  N   UNL     1      -1.172   2.018   1.532  0.00  0.00    +0.000 NA
ENDBRANCH   5  14
BRANCH   1  20
ATOM     19  C   UNL     1      -4.104  -3.747  -0.520  0.00  0.00    +0.000 C 
ATOM     20  C   UNL     1      -4.147  -2.266  -0.189  0.00  0.00    +0.000 C 
ENDBRANCH   1  20
TORSDOF 3
