REMARK  Name = 
REMARK  4 active torsions:
REMARK  status: ('A' for Active; 'I' for Inactive)
REMARK    1  A    between atoms: C_2  and  C_3
REMARK    2  A    between atoms: C_3  and  C_4
REMARK    3  A    between atoms: N_6  and  C_7
REMARK    4  A    between atoms: C_10  and  N_11
REMARK                            x       y       z     vdW  Elec       q    Type
REMARK                         _______ _______ _______ _____ _____    ______ ____
ROOT
ATOM      1  C   UNL     1      -2.505   1.091   0.642  0.00  0.00    +0.000 A 
ATOM      2  N   UNL     1      -1.195   1.257   0.589  0.00  0.00    +0.000 NA
ATOM      3  N   UNL     1      -0.564   0.152   0.161  0.00  0.00    +0.000 N 
ATOM      4  C   UNL     1      -1.511  -0.769  -0.072  0.00  0.00    +0.000 A 
ATOM      5  C   UNL     1      -2.749  -0.201   0.225  0.00  0.00    +0.000 A 
ATOM      6  C   UNL     1      -3.839  -1.161  -0.005  0.00  0.00    +0.000 C 
ATOM      7  C   UNL     1      -3.136  -2.249  -0.827  0.00  0.00    +0.000 C 
ATOM      8  N   UNL     1      -1.746  -2.101  -0.503  0.00  0.00    +0.000 NA
ENDROOT
BRANCH   3   9
ATOM      9  C   UNL     1       0.843  -0.009  -0.010  0.00  0.00    +0.000 A 
ATOM     10  C   UNL     1       1.476   0.167  -1.240  0.00  0.00    +0.000 A 
ATOM     11  C   UNL     1       2.847   0.002  -1.363  0.00  0.00    +0.000 A 
ATOM     12  C   UNL     1       3.628  -0.335  -0.300  0.00  0.00    +0.000 A 
ATOM     13  C   UNL     1       3.017  -0.515   0.934  0.00  0.00    +0.000 A 
ATOM     14  C   UNL     1       1.648  -0.349   1.049  0.00  0.00    +0.000 A 
BRANCH  12  15
ATOM     15  N   UNL     1       5.035  -0.497  -0.454  0.00  0.00    +0.000 N 
ATOM     16  O   UNL     1       5.686  -0.808   0.566  0.00  0.00    +0.000 OA
ATOM     17  O   UNL     1       5.662  -0.322  -1.664  0.00  0.00    +0.000 OA
ENDBRANCH  12  15
ENDBRANCH   3   9
BRANCH   1  18
ATOM     18  C   UNL     1      -3.458   2.157   1.080  0.00  0.00    +0.000 C 
BRANCH  18  20
ATOM     19  C   UNL     1      -4.964   1.702  -0.807  0.00  0.00    +0.000 C 
ATOM     20  C   UNL     1      -4.175   2.787  -0.068  0.00  0.00    +0.000 C 
ENDBRANCH  18  20
ENDBRANCH   1  18
TORSDOF 4
