REMARK  Name = 
REMARK  2 active torsions:
REMARK  status: ('A' for Active; 'I' for Inactive)
REMARK    1  A    between atoms: C_2  and  C_3
REMARK    2  A    between atoms: C_13  and  C_14
REMARK                            x       y       z     vdW  Elec       q    Type
REMARK                         _______ _______ _______ _____ _____    ______ ____
ROOT
ATOM      1  C   UNL     1      -0.627  -1.331  -0.800  0.00  0.00    +0.000 C 
ATOM      2  C   UNL     1      -1.788  -1.342  -0.213  0.00  0.00    +0.000 C 
ATOM      3  N   UNL     1      -2.446  -2.623  -0.011  0.00  0.00    +0.000 NA
ATOM      4  O   UNL     1      -2.389  -0.181   0.211  0.00  0.00    +0.000 OA
ATOM      5  C   UNL     1      -1.737   1.045   0.006  0.00  0.00    +0.000 C 
ATOM      6  C   UNL     1      -0.598   1.117  -0.564  0.00  0.00    +0.000 C 
ATOM      7  C   UNL     1       0.090   2.459  -0.775  0.00  0.00    +0.000 C 
ATOM      8  C   UNL     1      -0.486   3.534   0.038  0.00  0.00    +0.000 C 
ATOM      9  C   UNL     1      -2.004   3.468  -0.166  0.00  0.00    +0.000 C 
ATOM     10  C   UNL     1      -2.521   2.236   0.526  0.00  0.00    +0.000 C 
ATOM     11  C   UNL     1       0.185  -0.084  -1.083  0.00  0.00    +0.000 C 
ENDROOT
BRANCH  11  12
ATOM     12  C   UNL     1       1.314  -0.214  -0.009  0.00  0.00    +0.000 A 
ATOM     13  C   UNL     1       1.905  -1.422   0.198  0.00  0.00    +0.000 A 
ATOM     14  C   UNL     1       2.926  -1.567   1.162  0.00  0.00    +0.000 A 
ATOM     15  C   UNL     1       3.304  -0.476   1.874  0.00  0.00    +0.000 A 
ATOM     16  C   UNL     1       2.730   0.743   1.687  0.00  0.00    +0.000 A 
ATOM     17  C   UNL     1       1.732   0.844   0.733  0.00  0.00    +0.000 A 
ENDBRANCH  11  12
BRANCH   1  19
ATOM     18  N   UNL     1       0.434  -3.607  -1.575  0.00  0.00    +0.000 NA
ATOM     19  C   UNL     1      -0.023  -2.601  -1.236  0.00  0.00    +0.000 C 
ENDBRANCH   1  19
TORSDOF 2
