REMARK  Name = 
REMARK  4 active torsions:
REMARK  status: ('A' for Active; 'I' for Inactive)
REMARK    1  A    between atoms: C_2  and  O_4
REMARK    2  A    between atoms: O_4  and  C_5
REMARK    3  A    between atoms: C_14  and  C_15
REMARK    4  A    between atoms: C_15  and  N_17
REMARK                            x       y       z     vdW  Elec       q    Type
REMARK                         _______ _______ _______ _____ _____    ______ ____
ROOT
ATOM      1  C   UNL     1      -0.454   1.124   0.408  0.00  0.00    +0.000 A 
ATOM      2  C   UNL     1      -1.730   1.159   1.116  0.00  0.00    +0.000 A 
ATOM      3  C   UNL     1      -2.560  -0.009   1.182  0.00  0.00    +0.000 A 
ATOM      4  C   UNL     1      -2.113  -1.196   0.564  0.00  0.00    +0.000 A 
ATOM      5  C   UNL     1      -2.753  -2.342   0.655  0.00  0.00    +0.000 A 
ATOM      6  C   UNL     1      -2.233  -3.514   0.117  0.00  0.00    +0.000 A 
ATOM      7  C   UNL     1      -1.038  -3.484  -0.514  0.00  0.00    +0.000 A 
ATOM      8  C   UNL     1      -0.331  -2.326  -0.645  0.00  0.00    +0.000 A 
ATOM      9  C   UNL     1      -0.875  -1.162  -0.105  0.00  0.00    +0.000 A 
ATOM     10  C   UNL     1      -0.152  -0.013  -0.131  0.00  0.00    +0.000 A 
ENDROOT
BRANCH  10  11
ATOM     11  C   UNL     1       1.054  -0.133  -1.085  0.00  0.00    +0.000 C 
ATOM     12  O   UNL     1       0.815   0.196  -2.266  0.00  0.00    +0.000 OA
BRANCH  11  13
ATOM     13  N   UNL     1       2.230  -0.560  -0.618  0.00  0.00    +0.000 NA
ATOM     14  C   UNL     1       3.135  -0.686   0.128  0.00  0.00    +0.000 C 
ATOM     15  N   UNL     1       4.228  -1.524  -0.287  0.00  0.00    +0.000 NA
ATOM     16  N   UNL     1       3.228  -0.133   1.478  0.00  0.00    +0.000 NA
ENDBRANCH  11  13
ENDBRANCH  10  11
BRANCH   1  17
ATOM     17  O   UNL     1       0.302   2.339   0.419  0.00  0.00    +0.000 OA
BRANCH  17  19
ATOM     18  C   UNL     1      -0.509   4.618   1.194  0.00  0.00    +0.000 C 
ATOM     19  C   UNL     1      -0.577   3.489   0.237  0.00  0.00    +0.000 C 
ATOM     20  C   UNL     1       0.332   4.157  -1.035  0.00  0.00    +0.000 C 
ENDBRANCH  17  19
ENDBRANCH   1  17
TORSDOF 4
