REMARK  Name = 
REMARK  5 active torsions:
REMARK  status: ('A' for Active; 'I' for Inactive)
REMARK    1  A    between atoms: C_2  and  N_5
REMARK    2  A    between atoms: N_5  and  C_6
REMARK    3  A    between atoms: C_6  and  N_8
REMARK    4  A    between atoms: C_9  and  C_11
REMARK    5  A    between atoms: C_15  and  N_16
REMARK                            x       y       z     vdW  Elec       q    Type
REMARK                         _______ _______ _______ _____ _____    ______ ____
ROOT
ATOM      1  N   UNL     1       1.194  -1.347   0.842  0.00  0.00    +0.000 NA
ATOM      2  C   UNL     1       0.312  -0.472   0.200  0.00  0.00    +0.000 C 
ATOM      3  O   UNL     1       0.777   0.462  -0.499  0.00  0.00    +0.000 OA
ENDROOT
BRANCH   2   4
ATOM      4  C   UNL     1      -1.159  -0.606   0.312  0.00  0.00    +0.000 A 
ATOM      5  C   UNL     1      -1.810  -1.811   0.133  0.00  0.00    +0.000 A 
ATOM      6  C   UNL     1      -3.191  -1.876   0.253  0.00  0.00    +0.000 A 
ATOM      7  C   UNL     1      -3.942  -0.770   0.547  0.00  0.00    +0.000 A 
ATOM      8  C   UNL     1      -3.296   0.455   0.730  0.00  0.00    +0.000 A 
ATOM      9  C   UNL     1      -1.916   0.494   0.605  0.00  0.00    +0.000 A 
BRANCH   8  10
ATOM     10  N   UNL     1      -4.023   1.626   1.044  0.00  0.00    +0.000 N 
ATOM     11  O   UNL     1      -5.253   1.590   1.106  0.00  0.00    +0.000 OA
ATOM     12  O   UNL     1      -3.370   2.791   1.271  0.00  0.00    +0.000 OA
ENDBRANCH   8  10
ENDBRANCH   2   4
BRANCH   1  13
ATOM     13  C   UNL     1       2.628  -1.246   0.749  0.00  0.00    +0.000 C 
ATOM     14  S   UNL     1       3.482  -2.402   1.616  0.00  0.00    +0.000 S 
BRANCH  13  15
ATOM     15  N   UNL     1       3.235  -0.344   0.026  0.00  0.00    +0.000 NA
BRANCH  15  17
ATOM     16  C   UNL     1       3.583   2.046  -0.352  0.00  0.00    +0.000 C 
ATOM     17  C   UNL     1       3.850   0.570  -0.707  0.00  0.00    +0.000 C 
ATOM     18  C   UNL     1       5.380   0.385  -0.671  0.00  0.00    +0.000 C 
ATOM     19  C   UNL     1       3.519   0.456  -2.212  0.00  0.00    +0.000 C 
ENDBRANCH  15  17
ENDBRANCH  13  15
ENDBRANCH   1  13
TORSDOF 5
