REMARK  Name = 
REMARK  4 active torsions:
REMARK  status: ('A' for Active; 'I' for Inactive)
REMARK    1  A    between atoms: C_2  and  O_3
REMARK    2  A    between atoms: O_3  and  C_4
REMARK    3  A    between atoms: C_4  and  C_6
REMARK    4  A    between atoms: C_9  and  C_10
REMARK                            x       y       z     vdW  Elec       q    Type
REMARK                         _______ _______ _______ _____ _____    ______ ____
ROOT
ATOM      1  C   UNL     1       1.475  -0.446   0.158  0.00  0.00    +0.000 C 
ATOM      2  C   UNL     1       0.563  -0.286   1.034  0.00  0.00    +0.000 C 
ATOM      3  C   UNL     1       0.576   0.902   1.939  0.00  0.00    +0.000 C 
ATOM      4  C   UNL     1      -0.633  -1.227   1.295  0.00  0.00    +0.000 C 
ATOM      5  N   UNL     1      -0.501  -2.341   0.328  0.00  0.00    +0.000 NA
ATOM      6  C   UNL     1       0.479  -2.500  -0.605  0.00  0.00    +0.000 C 
ATOM      7  O   UNL     1       0.510  -3.521  -1.416  0.00  0.00    +0.000 OA
ATOM      8  N   UNL     1       1.532  -1.556  -0.745  0.00  0.00    +0.000 NA
ENDROOT
BRANCH   4   9
ATOM      9  C   UNL     1      -1.772  -0.383   0.579  0.00  0.00    +0.000 A 
ATOM     10  C   UNL     1      -2.839  -1.031   0.045  0.00  0.00    +0.000 A 
ATOM     11  C   UNL     1      -3.828  -0.249  -0.571  0.00  0.00    +0.000 A 
ATOM     12  C   UNL     1      -3.715   1.114  -0.629  0.00  0.00    +0.000 A 
ATOM     13  F   UNL     1      -4.655   1.901  -1.219  0.00  0.00    +0.000 F 
ATOM     14  C   UNL     1      -2.630   1.768  -0.086  0.00  0.00    +0.000 A 
ATOM     15  C   UNL     1      -1.672   0.967   0.515  0.00  0.00    +0.000 A 
ENDBRANCH   4   9
BRANCH   1  16
ATOM     16  C   UNL     1       2.534   0.572   0.068  0.00  0.00    +0.000 C 
ATOM     17  O   UNL     1       2.544   1.566   0.827  0.00  0.00    +0.000 OA
BRANCH  16  18
ATOM     18  O   UNL     1       3.555   0.464  -0.857  0.00  0.00    +0.000 OA
BRANCH  18  20
ATOM     19  C   UNL     1       3.923   2.821  -1.215  0.00  0.00    +0.000 C 
ATOM     20  C   UNL     1       4.553   1.465  -0.909  0.00  0.00    +0.000 C 
ENDBRANCH  18  20
ENDBRANCH  16  18
ENDBRANCH   1  16
TORSDOF 4
