REMARK  Name = 
REMARK  4 active torsions:
REMARK  status: ('A' for Active; 'I' for Inactive)
REMARK    1  A    between atoms: C_2  and  C_3
REMARK    2  A    between atoms: C_9  and  N_10
REMARK    3  A    between atoms: C_11  and  C_13
REMARK    4  A    between atoms: C_17  and  N_18
REMARK                            x       y       z     vdW  Elec       q    Type
REMARK                         _______ _______ _______ _____ _____    ______ ____
ROOT
ATOM      1  N   UNL     1      -1.225  -0.666   0.149  0.00  0.00    +0.000 NA
ATOM      2  C   UNL     1      -0.002   0.064   0.028  0.00  0.00    +0.000 C 
ATOM      3  O   UNL     1      -0.076   1.311   0.057  0.00  0.00    +0.000 OA
ENDROOT
BRANCH   1  10
ATOM      4  C   UNL     1      -3.172   0.417  -0.832  0.00  0.00    +0.000 A 
ATOM      5  C   UNL     1      -4.350   1.114  -0.704  0.00  0.00    +0.000 A 
ATOM      6  C   UNL     1      -4.848   1.474   0.541  0.00  0.00    +0.000 A 
ATOM      7  C   UNL     1      -4.127   1.115   1.670  0.00  0.00    +0.000 A 
ATOM      8  C   UNL     1      -2.944   0.415   1.538  0.00  0.00    +0.000 A 
ATOM      9  C   UNL     1      -2.162   0.026   2.742  0.00  0.00    +0.000 C 
ATOM     10  C   UNL     1      -2.462   0.065   0.296  0.00  0.00    +0.000 A 
BRANCH   4  12
ATOM     11  C   UNL     1      -2.870  -1.466  -2.351  0.00  0.00    +0.000 C 
ATOM     12  C   UNL     1      -2.612   0.016  -2.156  0.00  0.00    +0.000 C 
ENDBRANCH   4  12
ENDBRANCH   1  10
BRANCH   2  13
ATOM     13  C   UNL     1       1.289  -0.570  -0.125  0.00  0.00    +0.000 A 
ATOM     14  C   UNL     1       1.459  -1.935  -0.215  0.00  0.00    +0.000 A 
ATOM     15  C   UNL     1       2.734  -2.453  -0.358  0.00  0.00    +0.000 A 
ATOM     16  C   UNL     1       3.844  -1.632  -0.413  0.00  0.00    +0.000 A 
ATOM     17  C   UNL     1       3.687  -0.252  -0.323  0.00  0.00    +0.000 A 
ATOM     18  C   UNL     1       2.413   0.217  -0.183  0.00  0.00    +0.000 A 
BRANCH  17  19
ATOM     19  N   UNL     1       4.817   0.604  -0.376  0.00  0.00    +0.000 N 
ATOM     20  O   UNL     1       5.979   0.182  -0.504  0.00  0.00    +0.000 OA
ATOM     21  O   UNL     1       4.628   1.957  -0.281  0.00  0.00    +0.000 OA
ENDBRANCH  17  19
ENDBRANCH   2  13
TORSDOF 4
