REMARK  Name = 
REMARK  2 active torsions:
REMARK  status: ('A' for Active; 'I' for Inactive)
REMARK    1  A    between atoms: C_6  and  C_7
REMARK    2  A    between atoms: C_11  and  C_12
REMARK                            x       y       z     vdW  Elec       q    Type
REMARK                         _______ _______ _______ _____ _____    ______ ____
ROOT
ATOM      1  C   UNL     1       0.458   0.006   2.722  0.00  0.00    +0.000 C 
ATOM      2  C   UNL     1      -0.667  -0.013   1.657  0.00  0.00    +0.000 C 
ATOM      3  C   UNL     1      -1.698   0.694   1.882  0.00  0.00    +0.000 C 
ATOM      4  C   UNL     1      -2.974   0.919   1.086  0.00  0.00    +0.000 C 
ATOM      5  C   UNL     1      -3.747  -0.453   1.455  0.00  0.00    +0.000 C 
ATOM      6  C   UNL     1      -2.422   0.462  -0.372  0.00  0.00    +0.000 C 
ATOM      7  C   UNL     1      -1.460   1.389  -0.784  0.00  0.00    +0.000 C 
ATOM      8  O   UNL     1      -0.161   1.400  -0.317  0.00  0.00    +0.000 OA
ATOM      9  C   UNL     1       0.134   0.020  -0.813  0.00  0.00    +0.000 C 
ATOM     10  C   UNL     1      -0.439  -0.901   0.441  0.00  0.00    +0.000 C 
ATOM     11  C   UNL     1      -1.998  -1.058  -0.099  0.00  0.00    +0.000 C 
ATOM     12  C   UNL     1      -1.733  -1.453  -1.650  0.00  0.00    +0.000 C 
ENDROOT
BRANCH   9  13
ATOM     13  C   UNL     1       1.679  -0.050  -0.478  0.00  0.00    +0.000 A 
ATOM     14  C   UNL     1       2.245   0.399   0.608  0.00  0.00    +0.000 A 
ATOM     15  C   UNL     1       3.593   0.311   0.846  0.00  0.00    +0.000 A 
ATOM     16  C   UNL     1       4.417  -0.275  -0.087  0.00  0.00    +0.000 A 
ATOM     17  O   UNL     1       5.804  -0.381   0.126  0.00  0.00    +0.000 OA
ATOM     18  C   UNL     1       3.825  -0.749  -1.234  0.00  0.00    +0.000 A 
ATOM     19  C   UNL     1       2.476  -0.650  -1.449  0.00  0.00    +0.000 A 
ENDBRANCH   9  13
BRANCH   6  20
ATOM     20  C   UNL     1      -3.682   0.373  -1.118  0.00  0.00    +0.000 C 
ATOM     21  O   UNL     1      -3.648   0.008  -2.419  0.00  0.00    +0.000 OA
ENDBRANCH   6  20
TORSDOF 2
