REMARK  Name = 
REMARK  3 active torsions:
REMARK  status: ('A' for Active; 'I' for Inactive)
REMARK    1  A    between atoms: C_2  and  C_3
REMARK    2  A    between atoms: C_3  and  N_4
REMARK    3  A    between atoms: C_7  and  C_8
REMARK                            x       y       z     vdW  Elec       q    Type
REMARK                         _______ _______ _______ _____ _____    ______ ____
ROOT
ATOM      1  C   UNL     1      -1.033  -1.238   0.026  0.00  0.00    +0.000 A 
ATOM      2  C   UNL     1      -1.880  -2.312  -0.087  0.00  0.00    +0.000 A 
ATOM      3  N   UNL     1      -3.160  -1.906  -0.003  0.00  0.00    +0.000 NA
ATOM      4  C   UNL     1      -3.155  -0.583   0.164  0.00  0.00    +0.000 A 
ATOM      5  C   UNL     1      -4.221   0.298   0.302  0.00  0.00    +0.000 A 
ATOM      6  C   UNL     1      -3.975   1.650   0.466  0.00  0.00    +0.000 A 
ATOM      7  C   UNL     1      -5.087   2.645   0.620  0.00  0.00    +0.000 C 
ATOM      8  C   UNL     1      -2.675   2.095   0.489  0.00  0.00    +0.000 A 
ATOM      9  C   UNL     1      -1.614   1.194   0.348  0.00  0.00    +0.000 A 
ATOM     10  C   UNL     1      -1.855  -0.147   0.185  0.00  0.00    +0.000 A 
ENDROOT
BRANCH   1  14
ATOM     11  N   UNL     1       3.451   0.819   0.170  0.00  0.00    +0.000 NA
ATOM     12  C   UNL     1       2.494  -0.265   0.058  0.00  0.00    +0.000 A 
ATOM     13  N   UNL     1       1.176  -0.175   0.103  0.00  0.00    +0.000 NA
ATOM     14  C   UNL     1       0.456  -1.247  -0.013  0.00  0.00    +0.000 A 
ATOM     15  C   UNL     1       1.125  -2.437  -0.180  0.00  0.00    +0.000 A 
ATOM     16  S   UNL     1       2.756  -1.934  -0.159  0.00  0.00    +0.000 S 
BRANCH  11  17
ATOM     17  C   UNL     1       4.840   0.405   0.082  0.00  0.00    +0.000 C 
BRANCH  17  19
ATOM     18  C   UNL     1       6.612   1.562   1.220  0.00  0.00    +0.000 C 
ATOM     19  C   UNL     1       5.747   1.575   0.206  0.00  0.00    +0.000 C 
ENDBRANCH  17  19
ENDBRANCH  11  17
ENDBRANCH   1  14
TORSDOF 3
