REMARK  Name = 
REMARK  5 active torsions:
REMARK  status: ('A' for Active; 'I' for Inactive)
REMARK    1  A    between atoms: C_7  and  N_8
REMARK    2  A    between atoms: N_8  and  C_9
REMARK    3  A    between atoms: C_9  and  N_11
REMARK    4  A    between atoms: C_12  and  C_14
REMARK    5  A    between atoms: C_14  and  C_15
REMARK                            x       y       z     vdW  Elec       q    Type
REMARK                         _______ _______ _______ _____ _____    ______ ____
ROOT
ATOM      1  N   UNL     1      -0.288  -1.284   0.675  0.00  0.00    +0.000 NA
ENDROOT
BRANCH   1   8
ATOM      2  C   UNL     1      -3.207   2.523  -0.028  0.00  0.00    +0.000 C 
ATOM      3  C   UNL     1      -3.003   1.112   0.355  0.00  0.00    +0.000 A 
ATOM      4  C   UNL     1      -4.064   0.303   0.735  0.00  0.00    +0.000 A 
ATOM      5  C   UNL     1      -3.865  -1.011   1.089  0.00  0.00    +0.000 A 
ATOM      6  C   UNL     1      -2.635  -1.550   1.079  0.00  0.00    +0.000 A 
ATOM      7  O   UNL     1      -2.351  -2.876   1.424  0.00  0.00    +0.000 OA
ATOM      8  C   UNL     1      -1.513  -0.785   0.704  0.00  0.00    +0.000 A 
ATOM      9  C   UNL     1      -1.774   0.557   0.349  0.00  0.00    +0.000 A 
ENDBRANCH   1   8
BRANCH   1  10
ATOM     10  C   UNL     1       0.894  -1.766   0.648  0.00  0.00    +0.000 C 
ATOM     11  S   UNL     1       1.158  -3.401   1.035  0.00  0.00    +0.000 S 
BRANCH  10  12
ATOM     12  N   UNL     1       2.169  -1.153   0.312  0.00  0.00    +0.000 NA
ATOM     13  C   UNL     1       2.342   0.183  -0.056  0.00  0.00    +0.000 C 
ATOM     14  O   UNL     1       1.343   0.933  -0.108  0.00  0.00    +0.000 OA
BRANCH  13  15
ATOM     15  C   UNL     1       3.706   0.738  -0.391  0.00  0.00    +0.000 C 
BRANCH  15  16
ATOM     16  C   UNL     1       3.561   2.210  -0.695  0.00  0.00    +0.000 C 
ATOM     17  C   UNL     1       4.903   2.800  -1.039  0.00  0.00    +0.000 C 
ATOM     18  C   UNL     1       2.624   2.466  -1.849  0.00  0.00    +0.000 C 
ENDBRANCH  15  16
ENDBRANCH  13  15
ENDBRANCH  10  12
ENDBRANCH   1  10
TORSDOF 5
