REMARK  Name = 
REMARK  3 active torsions:
REMARK  status: ('A' for Active; 'I' for Inactive)
REMARK    1  A    between atoms: C_4  and  C_5
REMARK    2  A    between atoms: C_10  and  C_11
REMARK    3  A    between atoms: N_13  and  C_14
REMARK                            x       y       z     vdW  Elec       q    Type
REMARK                         _______ _______ _______ _____ _____    ______ ____
ROOT
ATOM      1  C   UNL     1      -0.977  -2.695  -0.181  0.00  0.00    +0.000 C 
ATOM      2  C   UNL     1      -1.688  -1.361  -0.183  0.00  0.00    +0.000 A 
ATOM      3  O   UNL     1      -2.964  -1.162  -0.225  0.00  0.00    +0.000 OA
ATOM      4  C   UNL     1      -3.277   0.126  -0.209  0.00  0.00    +0.000 A 
ATOM      5  C   UNL     1      -2.066   0.804  -0.156  0.00  0.00    +0.000 A 
ATOM      6  C   UNL     1      -1.024  -0.134  -0.139  0.00  0.00    +0.000 A 
ENDROOT
BRANCH   4   7
ATOM      7  C   UNL     1      -4.621   0.764  -0.238  0.00  0.00    +0.000 C 
ATOM      8  C   UNL     1      -4.851   1.517  -1.536  0.00  0.00    +0.000 C 
ATOM      9  C   UNL     1      -4.765   1.723   0.940  0.00  0.00    +0.000 C 
ATOM     10  C   UNL     1      -5.723  -0.255  -0.128  0.00  0.00    +0.000 C 
ENDBRANCH   4   7
BRANCH   6  11
ATOM     11  C   UNL     1       0.391   0.153  -0.064  0.00  0.00    +0.000 C 
ATOM     12  O   UNL     1       0.836   1.305  -0.202  0.00  0.00    +0.000 OA
ATOM     13  N   UNL     1       1.295  -0.915   0.185  0.00  0.00    +0.000 NA
BRANCH  13  14
ATOM     14  C   UNL     1       2.705  -0.610   0.278  0.00  0.00    +0.000 A 
ATOM     15  C   UNL     1       3.572  -1.575   0.713  0.00  0.00    +0.000 A 
ATOM     16  C   UNL     1       4.939  -1.322   0.795  0.00  0.00    +0.000 A 
ATOM     17  C   UNL     1       5.413  -0.073   0.434  0.00  0.00    +0.000 A 
ATOM     18  C   UNL     1       4.561   0.917  -0.009  0.00  0.00    +0.000 A 
ATOM     19  O   UNL     1       5.054   2.165  -0.369  0.00  0.00    +0.000 OA
ATOM     20  C   UNL     1       3.190   0.628  -0.081  0.00  0.00    +0.000 A 
ENDBRANCH  13  14
ENDBRANCH   6  11
TORSDOF 3
