REMARK  Name = 
REMARK  2 active torsions:
REMARK  status: ('A' for Active; 'I' for Inactive)
REMARK    1  A    between atoms: N_11  and  C_12
REMARK    2  A    between atoms: C_12  and  C_13
REMARK                            x       y       z     vdW  Elec       q    Type
REMARK                         _______ _______ _______ _____ _____    ______ ____
ROOT
ATOM      1  C   UNL     1      -0.809  -2.533  -0.993  0.00  0.00    +0.000 C 
ATOM      2  C   UNL     1      -1.635  -1.395  -0.522  0.00  0.00    +0.000 A 
ATOM      3  C   UNL     1      -2.894  -1.642  -0.088  0.00  0.00    +0.000 A 
ATOM      4  C   UNL     1      -3.775  -0.700   0.375  0.00  0.00    +0.000 A 
ATOM      5  O   UNL     1      -5.060  -0.972   0.816  0.00  0.00    +0.000 OA
ATOM      6  C   UNL     1      -3.295   0.601   0.382  0.00  0.00    +0.000 A 
ATOM      7  C   UNL     1      -4.095   1.741   0.843  0.00  0.00    +0.000 C 
ATOM      8  C   UNL     1      -1.996   0.883  -0.062  0.00  0.00    +0.000 A 
ATOM      9  S   UNL     1      -1.037   2.307  -0.217  0.00  0.00    +0.000 S 
ATOM     10  C   UNL     1       0.377   1.591  -0.846  0.00  0.00    +0.000 A 
ATOM     11  N   UNL     1       1.641   2.140  -1.239  0.00  0.00    +0.000 NA
ATOM     12  N   UNL     1       0.050   0.314  -0.906  0.00  0.00    +0.000 NA
ATOM     13  C   UNL     1      -1.132  -0.075  -0.521  0.00  0.00    +0.000 A 
ENDROOT
BRANCH  11  14
ATOM     14  C   UNL     1       2.709   1.345  -1.750  0.00  0.00    +0.000 C 
BRANCH  14  15
ATOM     15  C   UNL     1       3.144   0.322  -0.772  0.00  0.00    +0.000 A 
ATOM     16  C   UNL     1       2.506   0.277   0.444  0.00  0.00    +0.000 A 
ATOM     17  C   UNL     1       2.845  -0.632   1.396  0.00  0.00    +0.000 A 
ATOM     18  C   UNL     1       3.851  -1.525   1.133  0.00  0.00    +0.000 A 
ATOM     19  N   UNL     1       4.458  -1.466  -0.054  0.00  0.00    +0.000 NA
ATOM     20  C   UNL     1       4.147  -0.582  -1.016  0.00  0.00    +0.000 A 
ENDBRANCH  14  15
ENDBRANCH  11  14
TORSDOF 2
