REMARK  Name = 
REMARK  3 active torsions:
REMARK  status: ('A' for Active; 'I' for Inactive)
REMARK    1  A    between atoms: C_2  and  C_3
REMARK    2  A    between atoms: C_3  and  C_4
REMARK    3  A    between atoms: C_10  and  C_11
REMARK                            x       y       z     vdW  Elec       q    Type
REMARK                         _______ _______ _______ _____ _____    ______ ____
ROOT
ATOM      1  C   UNL     1       2.587   0.253  -0.064  0.00  0.00    +0.000 A 
ATOM      2  C   UNL     1       1.840  -0.599  -0.786  0.00  0.00    +0.000 A 
ATOM      3  C   UNL     1       0.682  -1.096  -0.222  0.00  0.00    +0.000 A 
ATOM      4  C   UNL     1       0.409  -0.668   1.020  0.00  0.00    +0.000 A 
ATOM      5  S   UNL     1       1.712   0.385   1.398  0.00  0.00    +0.000 S 
ATOM      6  N   UNL     1      -0.700  -1.029   1.740  0.00  0.00    +0.000 NA
ATOM      7  C   UNL     1      -1.986  -1.542   0.985  0.00  0.00    +0.000 C 
ATOM      8  N   UNL     1      -1.333  -2.472  -0.060  0.00  0.00    +0.000 NA
ATOM      9  C   UNL     1      -0.264  -2.067  -0.799  0.00  0.00    +0.000 C 
ATOM     10  O   UNL     1      -0.037  -2.500  -1.992  0.00  0.00    +0.000 OA
ENDROOT
BRANCH   7  11
ATOM     11  C   UNL     1      -2.199  -0.216   0.119  0.00  0.00    +0.000 A 
ATOM     12  C   UNL     1      -2.458  -0.239  -1.176  0.00  0.00    +0.000 A 
ATOM     13  C   UNL     1      -2.641   0.926  -1.884  0.00  0.00    +0.000 A 
ATOM     14  C   UNL     1      -2.554   2.123  -1.244  0.00  0.00    +0.000 A 
ATOM     15  C   UNL     1      -2.289   2.176   0.086  0.00  0.00    +0.000 A 
ATOM     16  C   UNL     1      -2.113   0.995   0.759  0.00  0.00    +0.000 A 
ENDBRANCH   7  11
BRANCH   1  17
ATOM     17  C   UNL     1       3.880   0.947  -0.408  0.00  0.00    +0.000 C 
BRANCH  17  19
ATOM     18  C   UNL     1       3.192   2.829   1.096  0.00  0.00    +0.000 C 
ATOM     19  C   UNL     1       4.271   1.793   0.787  0.00  0.00    +0.000 C 
ENDBRANCH  17  19
ENDBRANCH   1  17
TORSDOF 3
