REMARK  Name = 
REMARK  1 active torsions:
REMARK  status: ('A' for Active; 'I' for Inactive)
REMARK    1  A    between atoms: C_10  and  C_11
REMARK                            x       y       z     vdW  Elec       q    Type
REMARK                         _______ _______ _______ _____ _____    ______ ____
ROOT
ATOM      1  C   UNL     1       0.011  -1.210  -0.255  0.00  0.00    +0.000 C 
ATOM      2  C   UNL     1      -1.085  -0.525  -0.101  0.00  0.00    +0.000 C 
ATOM      3  C   UNL     1      -1.100   0.796   0.507  0.00  0.00    +0.000 C 
ATOM      4  O   UNL     1      -0.036   1.349   0.962  0.00  0.00    +0.000 OA
ATOM      5  N   UNL     1      -2.341   1.486   0.600  0.00  0.00    +0.000 N 
ATOM      6  C   UNL     1      -2.342   2.810   1.211  0.00  0.00    +0.000 C 
ATOM      7  C   UNL     1      -3.542   0.913   0.116  0.00  0.00    +0.000 C 
ATOM      8  S   UNL     1      -4.983   1.716   0.223  0.00  0.00    +0.000 S 
ATOM      9  N   UNL     1      -3.533  -0.382  -0.480  0.00  0.00    +0.000 N 
ATOM     10  C   UNL     1      -4.801  -0.933  -0.966  0.00  0.00    +0.000 C 
ATOM     11  C   UNL     1      -2.354  -1.130  -0.611  0.00  0.00    +0.000 C 
ATOM     12  O   UNL     1      -2.303  -2.275  -1.131  0.00  0.00    +0.000 OA
ENDROOT
BRANCH   1  22
ATOM     13  C   UNL     1       1.574  -3.077   1.577  0.00  0.00    +0.000 C 
ATOM     14  C   UNL     1       2.111  -1.865   0.872  0.00  0.00    +0.000 A 
ATOM     15  N   UNL     1       3.367  -1.405   0.903  0.00  0.00    +0.000 NA
ATOM     16  C   UNL     1       3.461  -0.299   0.147  0.00  0.00    +0.000 A 
ATOM     17  C   UNL     1       4.556   0.510  -0.133  0.00  0.00    +0.000 A 
ATOM     18  C   UNL     1       4.419   1.590  -0.957  0.00  0.00    +0.000 A 
ATOM     19  C   UNL     1       3.196   1.871  -1.506  0.00  0.00    +0.000 A 
ATOM     20  C   UNL     1       2.126   1.065  -1.220  0.00  0.00    +0.000 A 
ATOM     21  C   UNL     1       2.231  -0.016  -0.404  0.00  0.00    +0.000 A 
ATOM     22  C   UNL     1       1.369  -0.990   0.042  0.00  0.00    +0.000 A 
ENDBRANCH   1  22
TORSDOF 1
