REMARK  Name = 
REMARK  3 active torsions:
REMARK  status: ('A' for Active; 'I' for Inactive)
REMARK    1  A    between atoms: C_5  and  C_6
REMARK    2  A    between atoms: C_14  and  N_15
REMARK    3  A    between atoms: N_15  and  C_16
REMARK                            x       y       z     vdW  Elec       q    Type
REMARK                         _______ _______ _______ _____ _____    ______ ____
ROOT
ATOM      1  C   UNL     1      -0.736   0.802   0.175  0.00  0.00    +0.000 A 
ATOM      2  N   UNL     1      -0.714   2.167   0.195  0.00  0.00    +0.000 NA
ATOM      3  C   UNL     1       0.535   2.607   0.297  0.00  0.00    +0.000 A 
ATOM      4  N   UNL     1       1.029   3.858   0.352  0.00  0.00    +0.000 NA
ATOM      5  C   UNL     1       2.346   4.111   0.458  0.00  0.00    +0.000 A 
ATOM      6  C   UNL     1       3.215   3.040   0.511  0.00  0.00    +0.000 A 
ATOM      7  C   UNL     1       2.674   1.773   0.452  0.00  0.00    +0.000 A 
ATOM      8  N   UNL     1       1.338   1.560   0.346  0.00  0.00    +0.000 N 
ATOM      9  C   UNL     1       0.580   0.420   0.272  0.00  0.00    +0.000 A 
ENDROOT
BRANCH   1  14
ATOM     10  C   UNL     1      -3.935  -3.039   0.056  0.00  0.00    +0.000 C 
ATOM     11  C   UNL     1      -3.350  -1.673   0.049  0.00  0.00    +0.000 A 
ATOM     12  C   UNL     1      -4.130  -0.538  -0.071  0.00  0.00    +0.000 A 
ATOM     13  C   UNL     1      -3.225   0.503  -0.035  0.00  0.00    +0.000 A 
ATOM     14  C   UNL     1      -1.935  -0.021   0.104  0.00  0.00    +0.000 A 
ATOM     15  O   UNL     1      -2.117  -1.300   0.143  0.00  0.00    +0.000 OA
ENDBRANCH   1  14
BRANCH   9  16
ATOM     16  N   UNL     1       1.162  -0.830   0.268  0.00  0.00    +0.000 NA
BRANCH  16  17
ATOM     17  C   UNL     1       0.651  -2.135   0.101  0.00  0.00    +0.000 C 
ATOM     18  C   UNL     1       1.789  -3.141   0.418  0.00  0.00    +0.000 C 
ATOM     19  C   UNL     1       2.705  -2.847  -0.772  0.00  0.00    +0.000 C 
ATOM     20  C   UNL     1       1.734  -2.866  -1.934  0.00  0.00    +0.000 C 
ATOM     21  C   UNL     1       0.386  -2.453  -1.385  0.00  0.00    +0.000 C 
ENDBRANCH  16  17
ENDBRANCH   9  16
TORSDOF 3
