REMARK  Name = 
REMARK  4 active torsions:
REMARK  status: ('A' for Active; 'I' for Inactive)
REMARK    1  A    between atoms: C_5  and  N_6
REMARK    2  A    between atoms: C_7  and  C_9
REMARK    3  A    between atoms: C_9  and  N_10
REMARK    4  A    between atoms: C_18  and  N_19
REMARK                            x       y       z     vdW  Elec       q    Type
REMARK                         _______ _______ _______ _____ _____    ______ ____
ROOT
ATOM      1  N   UNL     1       0.266   0.711   1.015  0.00  0.00    +0.000 NA
ATOM      2  C   UNL     1      -1.085   0.468   0.645  0.00  0.00    +0.000 C 
ATOM      3  O   UNL     1      -1.272  -0.234  -0.383  0.00  0.00    +0.000 OA
ENDROOT
BRANCH   1   8
ATOM      4  C   UNL     1       4.694  -1.339  -1.933  0.00  0.00    +0.000 C 
ATOM      5  C   UNL     1       3.507  -0.812  -1.176  0.00  0.00    +0.000 A 
ATOM      6  C   UNL     1       2.216  -1.081  -1.582  0.00  0.00    +0.000 A 
ATOM      7  C   UNL     1       1.146  -0.590  -0.875  0.00  0.00    +0.000 A 
ATOM      8  C   UNL     1       1.343   0.181   0.252  0.00  0.00    +0.000 A 
ATOM      9  C   UNL     1       2.639   0.436   0.638  0.00  0.00    +0.000 A 
ATOM     10  C   UNL     1       3.730  -0.045  -0.054  0.00  0.00    +0.000 A 
BRANCH  10  11
ATOM     11  N   UNL     1       5.059   0.260   0.404  0.00  0.00    +0.000 N 
ATOM     12  O   UNL     1       5.291   1.289   1.049  0.00  0.00    +0.000 OA
ATOM     13  O   UNL     1       6.068  -0.621   0.110  0.00  0.00    +0.000 OA
ENDBRANCH  10  11
ENDBRANCH   1   8
BRANCH   2  14
ATOM     14  C   UNL     1      -2.227   1.027   1.451  0.00  0.00    +0.000 C 
BRANCH  14  15
ATOM     15  N   UNL     1      -3.475   0.636   0.864  0.00  0.00    +0.000 N 
ATOM     16  C   UNL     1      -4.020   1.440  -0.063  0.00  0.00    +0.000 A 
ATOM     17  C   UNL     1      -5.220   1.075  -0.636  0.00  0.00    +0.000 A 
ATOM     18  C   UNL     1      -5.885  -0.082  -0.296  0.00  0.00    +0.000 A 
ATOM     19  C   UNL     1      -5.263  -0.874   0.675  0.00  0.00    +0.000 A 
ATOM     20  C   UNL     1      -4.071  -0.498   1.234  0.00  0.00    +0.000 A 
ATOM     21  C   UNL     1      -3.440  -1.346   2.250  0.00  0.00    +0.000 C 
ENDBRANCH  14  15
ENDBRANCH   2  14
TORSDOF 4
