REMARK  Name = 
REMARK  6 active torsions:
REMARK  status: ('A' for Active; 'I' for Inactive)
REMARK    1  A    between atoms: C_2  and  C_3
REMARK    2  A    between atoms: C_3  and  N_4
REMARK    3  A    between atoms: C_5  and  C_7
REMARK    4  A    between atoms: C_7  and  N_8
REMARK    5  A    between atoms: C_11  and  C_12
REMARK    6  A    between atoms: C_14  and  C_15
REMARK                            x       y       z     vdW  Elec       q    Type
REMARK                         _______ _______ _______ _____ _____    ______ ____
ROOT
ATOM      1  C   UNL     1      -0.113   0.101  -0.393  0.00  0.00    +0.000 A 
ATOM      2  N   UNL     1      -1.356  -0.070   0.073  0.00  0.00    +0.000 NA
ATOM      3  C   UNL     1      -2.187   0.623  -0.714  0.00  0.00    +0.000 A 
ATOM      4  N   UNL     1      -1.401   1.190  -1.633  0.00  0.00    +0.000 NA
ATOM      5  O   UNL     1      -0.186   0.876  -1.434  0.00  0.00    +0.000 OA
ENDROOT
BRANCH   3   6
ATOM      6  C   UNL     1      -3.646   0.744  -0.605  0.00  0.00    +0.000 A 
ATOM      7  C   UNL     1      -4.340   1.499  -1.503  0.00  0.00    +0.000 A 
ATOM      8  C   UNL     1      -5.725   1.637  -1.431  0.00  0.00    +0.000 A 
ATOM      9  C   UNL     1      -6.393   0.990  -0.425  0.00  0.00    +0.000 A 
ATOM     10  C   UNL     1      -5.703   0.226   0.486  0.00  0.00    +0.000 A 
ATOM     11  C   UNL     1      -4.325   0.106   0.391  0.00  0.00    +0.000 A 
ATOM     12  O   UNL     1      -6.615  -0.323   1.405  0.00  0.00    +0.000 OA
ATOM     13  C   UNL     1      -7.825   0.440   1.295  0.00  0.00    +0.000 C 
ATOM     14  O   UNL     1      -7.744   0.896  -0.043  0.00  0.00    +0.000 OA
ENDBRANCH   3   6
BRANCH   1  18
ATOM     15  N   UNL     1       3.337  -2.303  -0.206  0.00  0.00    +0.000 NA
ATOM     16  C   UNL     1       2.226  -2.681   0.673  0.00  0.00    +0.000 C 
ATOM     17  C   UNL     1       0.965  -1.980   0.298  0.00  0.00    +0.000 C 
ATOM     18  C   UNL     1       1.136  -0.483   0.169  0.00  0.00    +0.000 C 
ATOM     19  C   UNL     1       2.307  -0.227  -0.750  0.00  0.00    +0.000 C 
ATOM     20  C   UNL     1       2.738  -1.558  -1.325  0.00  0.00    +0.000 C 
BRANCH  15  21
ATOM     21  C   UNL     1       4.182  -1.423   0.554  0.00  0.00    +0.000 C 
BRANCH  21  23
ATOM     22  N   UNL     1       6.327  -0.083   0.324  0.00  0.00    +0.000 NA
ATOM     23  C   UNL     1       5.357  -0.962  -0.231  0.00  0.00    +0.000 C 
ATOM     24  O   UNL     1       5.529  -1.340  -1.420  0.00  0.00    +0.000 OA
BRANCH  22  25
ATOM     25  C   UNL     1       7.466   0.336  -0.502  0.00  0.00    +0.000 C 
BRANCH  25  27
ATOM     26  C   UNL     1       7.629   2.511   0.735  0.00  0.00    +0.000 C 
ATOM     27  C   UNL     1       8.358   1.256   0.277  0.00  0.00    +0.000 C 
ENDBRANCH  25  27
ENDBRANCH  22  25
ENDBRANCH  21  23
ENDBRANCH  15  21
ENDBRANCH   1  18
TORSDOF 6
