REMARK  Name = 
REMARK  4 active torsions:
REMARK  status: ('A' for Active; 'I' for Inactive)
REMARK    1  A    between atoms: C_3  and  C_4
REMARK    2  A    between atoms: C_4  and  C_5
REMARK    3  A    between atoms: C_9  and  C_10
REMARK    4  A    between atoms: C_14  and  C_15
REMARK                            x       y       z     vdW  Elec       q    Type
REMARK                         _______ _______ _______ _____ _____    ______ ____
ROOT
ATOM      1  C   UNL     1      -0.027  -2.126  -0.693  0.00  0.00    +0.000 C 
ATOM      2  C   UNL     1      -0.393  -0.711  -0.466  0.00  0.00    +0.000 A 
ATOM      3  C   UNL     1      -1.705  -0.318  -0.553  0.00  0.00    +0.000 A 
ATOM      4  N   UNL     1      -2.023   0.978  -0.344  0.00  0.00    +0.000 NA
ATOM      5  C   UNL     1      -1.101   1.917  -0.052  0.00  0.00    +0.000 A 
ATOM      6  C   UNL     1       0.203   1.505   0.030  0.00  0.00    +0.000 A 
ATOM      7  N   UNL     1       1.210   2.479   0.342  0.00  0.00    +0.000 NA
ATOM      8  C   UNL     1       0.602   0.196  -0.170  0.00  0.00    +0.000 A 
ENDROOT
BRANCH   8   9
ATOM      9  C   UNL     1       1.994  -0.220  -0.059  0.00  0.00    +0.000 A 
ATOM     10  C   UNL     1       2.740  -0.647  -1.164  0.00  0.00    +0.000 A 
ATOM     11  C   UNL     1       4.058  -1.021  -1.021  0.00  0.00    +0.000 A 
ATOM     12  C   UNL     1       4.648  -0.978   0.198  0.00  0.00    +0.000 A 
ATOM     13  C   UNL     1       3.960  -0.567   1.308  0.00  0.00    +0.000 A 
ATOM     14  C   UNL     1       2.629  -0.189   1.170  0.00  0.00    +0.000 A 
ENDBRANCH   8   9
BRANCH   5  15
ATOM     15  C   UNL     1      -1.491   3.300   0.178  0.00  0.00    +0.000 C 
ATOM     16  N   UNL     1      -1.817   4.390   0.346  0.00  0.00    +0.000 NA
ENDBRANCH   5  15
BRANCH   3  17
ATOM     17  C   UNL     1      -2.752  -1.335  -0.887  0.00  0.00    +0.000 C 
BRANCH  17  18
ATOM     18  C   UNL     1      -3.023  -2.177   0.367  0.00  0.00    +0.000 C 
ATOM     19  C   UNL     1      -4.091  -3.229   0.030  0.00  0.00    +0.000 C 
ATOM     20  C   UNL     1      -3.620  -1.249   1.441  0.00  0.00    +0.000 C 
ENDBRANCH  17  18
ENDBRANCH   3  17
TORSDOF 4
