REMARK  Name = 
REMARK  2 active torsions:
REMARK  status: ('A' for Active; 'I' for Inactive)
REMARK    1  A    between atoms: C_5  and  N_6
REMARK    2  A    between atoms: C_7  and  C_9
REMARK                            x       y       z     vdW  Elec       q    Type
REMARK                         _______ _______ _______ _____ _____    ______ ____
ROOT
ATOM      1  N   UNL     1       0.489  -0.425  -0.005  0.00  0.00    +0.000 NA
ATOM      2  C   UNL     1      -0.232   0.764   0.198  0.00  0.00    +0.000 C 
ATOM      3  O   UNL     1       0.456   1.785   0.440  0.00  0.00    +0.000 OA
ENDROOT
BRANCH   2   4
ATOM      4  C   UNL     1      -1.730   0.838   0.134  0.00  0.00    +0.000 A 
ATOM      5  C   UNL     1      -2.366   2.042   0.345  0.00  0.00    +0.000 A 
ATOM      6  N   UNL     1      -1.743   3.319   0.636  0.00  0.00    +0.000 NA
ATOM      7  S   UNL     1      -4.012   1.657   0.181  0.00  0.00    +0.000 S 
ATOM      8  C   UNL     1      -3.881  -0.006  -0.149  0.00  0.00    +0.000 A 
ATOM      9  C   UNL     1      -2.542  -0.223  -0.123  0.00  0.00    +0.000 A 
ATOM     10  C   UNL     1      -2.321  -1.712  -0.412  0.00  0.00    +0.000 C 
ATOM     11  C   UNL     1      -3.562  -2.034  -1.238  0.00  0.00    +0.000 C 
ATOM     12  C   UNL     1      -4.643  -1.285  -0.448  0.00  0.00    +0.000 C 
ENDBRANCH   2   4
BRANCH   1  17
ATOM     13  C   UNL     1       6.196  -0.877   0.202  0.00  0.00    +0.000 C 
ATOM     14  C   UNL     1       4.713  -0.772   0.145  0.00  0.00    +0.000 A 
ATOM     15  C   UNL     1       3.905  -1.860  -0.117  0.00  0.00    +0.000 A 
ATOM     16  C   UNL     1       2.527  -1.721  -0.161  0.00  0.00    +0.000 A 
ATOM     17  C   UNL     1       1.908  -0.507   0.052  0.00  0.00    +0.000 A 
ATOM     18  C   UNL     1       2.728   0.571   0.314  0.00  0.00    +0.000 A 
ATOM     19  C   UNL     1       4.110   0.446   0.360  0.00  0.00    +0.000 A 
ENDBRANCH   1  17
TORSDOF 2
