REMARK  Name = 
REMARK  3 active torsions:
REMARK  status: ('A' for Active; 'I' for Inactive)
REMARK    1  A    between atoms: O_2  and  C_3
REMARK    2  A    between atoms: C_7  and  N_8
REMARK    3  A    between atoms: C_11  and  C_12
REMARK                            x       y       z     vdW  Elec       q    Type
REMARK                         _______ _______ _______ _____ _____    ______ ____
ROOT
ATOM      1  N   UNL     1      -0.212  -0.035  -0.357  0.00  0.00    +0.000 N 
ATOM      2  C   UNL     1      -0.697   1.159  -0.755  0.00  0.00    +0.000 A 
ATOM      3  N   UNL     1       0.047   2.223  -1.334  0.00  0.00    +0.000 NA
ATOM      4  C   UNL     1      -2.062   1.175  -0.501  0.00  0.00    +0.000 A 
ATOM      5  C   UNL     1      -2.404  -0.030   0.059  0.00  0.00    +0.000 A 
ATOM      6  C   UNL     1      -1.231  -0.754   0.133  0.00  0.00    +0.000 A 
ATOM      7  C   UNL     1      -1.306  -2.111   0.704  0.00  0.00    +0.000 C 
ATOM      8  C   UNL     1      -2.226  -2.240   1.872  0.00  0.00    +0.000 C 
ATOM      9  C   UNL     1      -3.339  -1.247   1.922  0.00  0.00    +0.000 C 
ATOM     10  C   UNL     1      -3.638  -0.677   0.561  0.00  0.00    +0.000 C 
ENDROOT
BRANCH   1  15
ATOM     11  C   UNL     1       3.475  -0.193   0.218  0.00  0.00    +0.000 A 
ATOM     12  C   UNL     1       3.890  -1.097  -0.737  0.00  0.00    +0.000 A 
ATOM     13  C   UNL     1       2.926  -1.640  -1.558  0.00  0.00    +0.000 A 
ATOM     14  C   UNL     1       1.603  -1.287  -1.423  0.00  0.00    +0.000 A 
ATOM     15  C   UNL     1       1.163  -0.384  -0.476  0.00  0.00    +0.000 A 
ATOM     16  C   UNL     1       2.142   0.157   0.346  0.00  0.00    +0.000 A 
BRANCH  11  18
ATOM     17  C   UNL     1       4.068   1.276   2.025  0.00  0.00    +0.000 C 
ATOM     18  O   UNL     1       4.470   0.342   1.036  0.00  0.00    +0.000 OA
ENDBRANCH  11  18
ENDBRANCH   1  15
BRANCH   4  19
ATOM     19  C   UNL     1      -2.966   2.245  -0.768  0.00  0.00    +0.000 C 
ATOM     20  N   UNL     1      -3.706   3.118  -0.967  0.00  0.00    +0.000 NA
ENDBRANCH   4  19
TORSDOF 3
