REMARK  Name = 
REMARK  2 active torsions:
REMARK  status: ('A' for Active; 'I' for Inactive)
REMARK    1  A    between atoms: C_4  and  C_5
REMARK    2  A    between atoms: C_5  and  C_6
REMARK                            x       y       z     vdW  Elec       q    Type
REMARK                         _______ _______ _______ _____ _____    ______ ____
ROOT
ATOM      1  N   UNL     1      -1.201  -3.344   2.226  0.00  0.00    +0.000 NA
ATOM      2  C   UNL     1      -1.176  -2.160   1.429  0.00  0.00    +0.000 A 
ATOM      3  N   UNL     1      -0.298  -1.177   1.707  0.00  0.00    +0.000 NA
ATOM      4  C   UNL     1      -0.195  -0.041   1.029  0.00  0.00    +0.000 A 
ATOM      5  C   UNL     1      -1.068   0.138  -0.052  0.00  0.00    +0.000 A 
ATOM      6  C   UNL     1      -1.977  -0.863  -0.352  0.00  0.00    +0.000 A 
ATOM      7  N   UNL     1      -2.023  -1.999   0.388  0.00  0.00    +0.000 NA
ATOM      8  N   UNL     1      -2.914  -0.806  -1.418  0.00  0.00    +0.000 NA
ATOM      9  C   UNL     1      -3.601   0.375  -1.968  0.00  0.00    +0.000 C 
ATOM     10  C   UNL     1      -3.384   1.535  -1.026  0.00  0.00    +0.000 C 
ATOM     11  C   UNL     1      -2.060   2.189  -1.113  0.00  0.00    +0.000 C 
ATOM     12  C   UNL     1      -0.870   1.414  -0.723  0.00  0.00    +0.000 C 
ENDROOT
BRANCH   4  13
ATOM     13  C   UNL     1       0.778   1.033   1.331  0.00  0.00    +0.000 C 
BRANCH  13  14
ATOM     14  C   UNL     1       1.876   0.923   0.345  0.00  0.00    +0.000 A 
ATOM     15  C   UNL     1       1.958   1.789  -0.694  0.00  0.00    +0.000 A 
ATOM     16  C   UNL     1       2.969   1.717  -1.632  0.00  0.00    +0.000 A 
ATOM     17  C   UNL     1       3.900   0.710  -1.461  0.00  0.00    +0.000 A 
ATOM     18  C   UNL     1       3.817  -0.160  -0.417  0.00  0.00    +0.000 A 
ATOM     19  C   UNL     1       2.794  -0.082   0.528  0.00  0.00    +0.000 A 
ATOM     20 CL   UNL     1       2.678  -1.191   1.875  0.00  0.00    +0.000 Cl
ENDBRANCH  13  14
ENDBRANCH   4  13
TORSDOF 2
