REMARK  Name = 
REMARK  4 active torsions:
REMARK  status: ('A' for Active; 'I' for Inactive)
REMARK    1  A    between atoms: C_5  and  C_6
REMARK    2  A    between atoms: C_13  and  N_14
REMARK    3  A    between atoms: N_14  and  C_15
REMARK    4  A    between atoms: C_15  and  C_16
REMARK                            x       y       z     vdW  Elec       q    Type
REMARK                         _______ _______ _______ _____ _____    ______ ____
ROOT
ATOM      1  C   UNL     1       0.378  -1.492  -0.123  0.00  0.00    +0.000 A 
ATOM      2  C   UNL     1       0.848  -2.782  -0.268  0.00  0.00    +0.000 A 
ATOM      3  S   UNL     1      -0.545  -3.732  -0.149  0.00  0.00    +0.000 S 
ATOM      4  C   UNL     1      -1.702  -2.485   0.081  0.00  0.00    +0.000 A 
ATOM      5  N   UNL     1      -3.064  -2.492   0.251  0.00  0.00    +0.000 NA
ATOM      6  C   UNL     1      -3.748  -1.346   0.405  0.00  0.00    +0.000 A 
ATOM      7  N   UNL     1      -3.023  -0.230   0.382  0.00  0.00    +0.000 NA
ATOM      8  C   UNL     1      -1.693  -0.151   0.221  0.00  0.00    +0.000 A 
ATOM      9  C   UNL     1      -0.947  -1.343   0.057  0.00  0.00    +0.000 A 
ENDROOT
BRANCH   1  14
ATOM     10  C   UNL     1       4.271   2.783  -0.271  0.00  0.00    +0.000 C 
ATOM     11  C   UNL     1       3.252   1.684  -0.206  0.00  0.00    +0.000 A 
ATOM     12  C   UNL     1       2.391   1.564   0.863  0.00  0.00    +0.000 A 
ATOM     13  C   UNL     1       1.484   0.540   0.863  0.00  0.00    +0.000 A 
ATOM     14  C   UNL     1       1.378  -0.382  -0.145  0.00  0.00    +0.000 A 
ATOM     15  C   UNL     1       2.251  -0.243  -1.209  0.00  0.00    +0.000 A 
ATOM     16  C   UNL     1       3.186   0.786  -1.242  0.00  0.00    +0.000 A 
ATOM     17  C   UNL     1       4.108   0.912  -2.391  0.00  0.00    +0.000 C 
ENDBRANCH   1  14
BRANCH   8  18
ATOM     18  N   UNL     1      -1.044   1.108   0.208  0.00  0.00    +0.000 NA
BRANCH  18  19
ATOM     19  C   UNL     1      -1.599   2.394   0.344  0.00  0.00    +0.000 C 
BRANCH  19  20
ATOM     20  C   UNL     1      -2.541   2.868  -0.700  0.00  0.00    +0.000 C 
ATOM     21  O   UNL     1      -3.641   2.039  -0.784  0.00  0.00    +0.000 OA
ENDBRANCH  19  20
ENDBRANCH  18  19
ENDBRANCH   8  18
TORSDOF 4
