REMARK  Name = 
REMARK  3 active torsions:
REMARK  status: ('A' for Active; 'I' for Inactive)
REMARK    1  A    between atoms: C_2  and  C_3
REMARK    2  A    between atoms: N_5  and  C_6
REMARK    3  A    between atoms: C_9  and  N_10
REMARK                            x       y       z     vdW  Elec       q    Type
REMARK                         _______ _______ _______ _____ _____    ______ ____
ROOT
ATOM      1  C   UNL     1      -2.298  -1.308   1.284  0.00  0.00    +0.000 A 
ATOM      2  N   UNL     1      -0.979  -1.139   1.450  0.00  0.00    +0.000 NA
ATOM      3  N   UNL     1      -0.436  -0.497   0.439  0.00  0.00    +0.000 N 
ATOM      4  C   UNL     1      -1.436  -0.237  -0.419  0.00  0.00    +0.000 A 
ATOM      5  C   UNL     1      -2.638  -0.727   0.064  0.00  0.00    +0.000 A 
ATOM      6  C   UNL     1      -4.014  -0.716  -0.462  0.00  0.00    +0.000 C 
ATOM      7  C   UNL     1      -4.172   0.126  -1.683  0.00  0.00    +0.000 C 
ATOM      8  C   UNL     1      -3.431   1.443  -1.628  0.00  0.00    +0.000 C 
ATOM      9  C   UNL     1      -2.128   1.307  -2.398  0.00  0.00    +0.000 C 
ATOM     10  N   UNL     1      -1.235   0.452  -1.645  0.00  0.00    +0.000 NA
ENDROOT
BRANCH   3  11
ATOM     11  C   UNL     1       0.938  -0.151   0.288  0.00  0.00    +0.000 A 
ATOM     12  C   UNL     1       1.390   0.470  -0.857  0.00  0.00    +0.000 A 
ATOM     13  C   UNL     1       2.728   0.815  -1.023  0.00  0.00    +0.000 A 
ATOM     14  C   UNL     1       3.659   0.548  -0.043  0.00  0.00    +0.000 A 
ATOM     15  C   UNL     1       3.208  -0.073   1.103  0.00  0.00    +0.000 A 
ATOM     16  C   UNL     1       1.875  -0.413   1.262  0.00  0.00    +0.000 A 
BRANCH  14  17
ATOM     17  N   UNL     1       5.034   0.893  -0.189  0.00  0.00    +0.000 N 
ATOM     18  O   UNL     1       5.885   0.661   0.687  0.00  0.00    +0.000 OA
ATOM     19  O   UNL     1       5.462   1.508  -1.336  0.00  0.00    +0.000 OA
ENDBRANCH  14  17
ENDBRANCH   3  11
BRANCH   1  21
ATOM     20  C   UNL     1      -4.133  -0.991   2.928  0.00  0.00    +0.000 C 
ATOM     21  C   UNL     1      -3.278  -1.971   2.177  0.00  0.00    +0.000 C 
ENDBRANCH   1  21
TORSDOF 3
