REMARK  Name = 
REMARK  2 active torsions:
REMARK  status: ('A' for Active; 'I' for Inactive)
REMARK    1  A    between atoms: C_2  and  C_12
REMARK    2  A    between atoms: N_3  and  N_4
REMARK                            x       y       z     vdW  Elec       q    Type
REMARK                         _______ _______ _______ _____ _____    ______ ____
ROOT
ATOM      1  O   UNL     1       0.641  -2.329   0.362  0.00  0.00    +0.000 OA
ATOM      2  C   UNL     1      -0.131  -1.405   0.678  0.00  0.00    +0.000 C 
ATOM      3  N   UNL     1      -0.026  -0.188   0.020  0.00  0.00    +0.000 NA
ENDROOT
BRANCH   2   4
ATOM      4  C   UNL     1      -1.208  -1.580   1.788  0.00  0.00    +0.000 C 
ATOM      5  C   UNL     1      -2.364  -2.374   0.936  0.00  0.00    +0.000 C 
ATOM      6  O   UNL     1      -2.447  -1.801  -0.314  0.00  0.00    +0.000 OA
ATOM      7  C   UNL     1      -2.778  -0.462  -0.419  0.00  0.00    +0.000 A 
ATOM      8  C   UNL     1      -3.389   0.143  -1.489  0.00  0.00    +0.000 A 
ATOM      9  C   UNL     1      -3.681   1.515  -1.492  0.00  0.00    +0.000 A 
ATOM     10  C   UNL     1      -3.344   2.270  -0.395  0.00  0.00    +0.000 A 
ATOM     11  C   UNL     1      -2.732   1.655   0.671  0.00  0.00    +0.000 A 
ATOM     12  C   UNL     1      -2.441   0.296   0.680  0.00  0.00    +0.000 A 
ATOM     13  O   UNL     1      -1.843  -0.217   1.762  0.00  0.00    +0.000 OA
ENDBRANCH   2   4
BRANCH   3  14
ATOM     14  N   UNL     1       0.903   0.024  -0.966  0.00  0.00    +0.000 NA
ATOM     15  C   UNL     1       2.091   0.394  -0.916  0.00  0.00    +0.000 C 
ATOM     16  C   UNL     1       2.788   0.510  -2.226  0.00  0.00    +0.000 C 
ATOM     17  C   UNL     1       4.287   0.470  -2.103  0.00  0.00    +0.000 C 
ATOM     18  C   UNL     1       4.670  -0.147  -0.773  0.00  0.00    +0.000 C 
ATOM     19  C   UNL     1       4.900   0.923   0.288  0.00  0.00    +0.000 C 
ATOM     20  C   UNL     1       3.594   1.671   0.479  0.00  0.00    +0.000 C 
ATOM     21  C   UNL     1       2.508   0.629   0.490  0.00  0.00    +0.000 C 
ENDBRANCH   3  14
TORSDOF 2
