REMARK  Name = 
REMARK  3 active torsions:
REMARK  status: ('A' for Active; 'I' for Inactive)
REMARK    1  A    between atoms: C_7  and  N_8
REMARK    2  A    between atoms: N_8  and  N_9
REMARK    3  A    between atoms: C_10  and  C_12
REMARK                            x       y       z     vdW  Elec       q    Type
REMARK                         _______ _______ _______ _____ _____    ______ ____
ROOT
ATOM      1  N   UNL     1      -0.134   0.909   0.121  0.00  0.00    +0.000 NA
ATOM      2  C   UNL     1       0.632  -0.188  -0.295  0.00  0.00    +0.000 C 
ATOM      3  O   UNL     1      -0.006  -1.175  -0.729  0.00  0.00    +0.000 OA
ENDROOT
BRANCH   2   4
ATOM      4  C   UNL     1       2.106  -0.197  -0.234  0.00  0.00    +0.000 A 
ATOM      5  C   UNL     1       2.733   0.960   0.167  0.00  0.00    +0.000 A 
ATOM      6  C   UNL     1       4.127   1.034   0.246  0.00  0.00    +0.000 A 
ATOM      7  C   UNL     1       4.901  -0.069  -0.082  0.00  0.00    +0.000 A 
ATOM      8 BR   UNL     1       6.803   0.082   0.041  0.00  0.00    +0.000 Br
ATOM      9  C   UNL     1       4.252  -1.212  -0.480  0.00  0.00    +0.000 A 
ATOM     10  C   UNL     1       2.872  -1.286  -0.558  0.00  0.00    +0.000 A 
ENDBRANCH   2   4
BRANCH   1  11
ATOM     11  N   UNL     1      -1.433   1.055   0.120  0.00  0.00    +0.000 NA
BRANCH  11  18
ATOM     12  C   UNL     1      -3.998   2.112   0.029  0.00  0.00    +0.000 C 
ATOM     13  C   UNL     1      -3.677   0.869   1.040  0.00  0.00    +0.000 C 
ATOM     14  C   UNL     1      -4.962   0.046   0.711  0.00  0.00    +0.000 C 
ATOM     15  C   UNL     1      -5.015  -0.598  -0.604  0.00  0.00    +0.000 C 
ATOM     16  C   UNL     1      -3.920  -1.693  -0.463  0.00  0.00    +0.000 C 
ATOM     17  C   UNL     1      -2.700  -0.874  -0.509  0.00  0.00    +0.000 C 
ATOM     18  C   UNL     1      -2.581   0.225   0.129  0.00  0.00    +0.000 C 
ENDBRANCH  11  18
ENDBRANCH   1  11
TORSDOF 3
