REMARK  Name = 
REMARK  1 active torsions:
REMARK  status: ('A' for Active; 'I' for Inactive)
REMARK    1  A    between atoms: C_4  and  C_5
REMARK                            x       y       z     vdW  Elec       q    Type
REMARK                         _______ _______ _______ _____ _____    ______ ____
ROOT
ATOM      1  C   UNL     1      -0.265  -0.224  -0.331  0.00  0.00    +0.000 C 
ATOM      2  C   UNL     1       0.609  -0.100   0.630  0.00  0.00    +0.000 C 
ATOM      3  C   UNL     1       2.036  -0.220   0.371  0.00  0.00    +0.000 C 
ATOM      4  C   UNL     1       2.539  -0.459  -0.836  0.00  0.00    +0.000 C 
ATOM      5  C   UNL     1       3.935  -0.583  -1.129  0.00  0.00    +0.000 C 
ATOM      6  C   UNL     1       4.811   0.484  -0.258  0.00  0.00    +0.000 C 
ATOM      7  C   UNL     1       3.685   1.676  -0.219  0.00  0.00    +0.000 C 
ATOM      8  C   UNL     1       4.432  -0.170   1.193  0.00  0.00    +0.000 C 
ATOM      9  C   UNL     1       3.033  -0.086   1.431  0.00  0.00    +0.000 C 
ATOM     10  O   UNL     1       2.589   0.114   2.598  0.00  0.00    +0.000 OA
ATOM     11  N   UNL     1       1.588  -0.595  -1.893  0.00  0.00    +0.000 NA
ATOM     12  N   UNL     1       0.234  -0.480  -1.639  0.00  0.00    +0.000 NA
ENDROOT
BRANCH   1  16
ATOM     13  C   UNL     1      -4.285   0.496   2.570  0.00  0.00    +0.000 C 
ATOM     14  C   UNL     1      -3.658   0.231   1.247  0.00  0.00    +0.000 A 
ATOM     15  C   UNL     1      -2.274   0.133   1.098  0.00  0.00    +0.000 A 
ATOM     16  C   UNL     1      -1.708  -0.114  -0.135  0.00  0.00    +0.000 A 
ATOM     17  C   UNL     1      -2.578  -0.255  -1.196  0.00  0.00    +0.000 A 
ATOM     18  C   UNL     1      -3.949  -0.158  -1.051  0.00  0.00    +0.000 A 
ATOM     19  C   UNL     1      -4.517   0.088   0.180  0.00  0.00    +0.000 A 
ATOM     20 CL   UNL     1      -6.257   0.220   0.412  0.00  0.00    +0.000 Cl
ENDBRANCH   1  16
TORSDOF 1
