REMARK  Name = 
REMARK  4 active torsions:
REMARK  status: ('A' for Active; 'I' for Inactive)
REMARK    1  A    between atoms: C_2  and  O_3
REMARK    2  A    between atoms: O_3  and  C_4
REMARK    3  A    between atoms: C_9  and  C_10
REMARK    4  A    between atoms: C_17  and  C_18
REMARK                            x       y       z     vdW  Elec       q    Type
REMARK                         _______ _______ _______ _____ _____    ______ ____
ROOT
ATOM      1  C   UNL     1      -0.273   0.805   0.527  0.00  0.00    +0.000 C 
ATOM      2  N   UNL     1      -0.522   0.478   1.948  0.00  0.00    +0.000 NA
ATOM      3  C   UNL     1      -1.718   0.006   2.471  0.00  0.00    +0.000 C 
ATOM      4  O   UNL     1      -1.814  -0.243   3.725  0.00  0.00    +0.000 OA
ATOM      5  N   UNL     1      -2.826  -0.197   1.606  0.00  0.00    +0.000 NA
ATOM      6  C   UNL     1      -2.655   0.097   0.235  0.00  0.00    +0.000 C 
ATOM      7  C   UNL     1      -3.878  -0.132  -0.692  0.00  0.00    +0.000 C 
ATOM      8  C   UNL     1      -1.565   0.530  -0.259  0.00  0.00    +0.000 C 
ENDROOT
BRANCH   1  14
ATOM      9  C   UNL     1       1.908   0.010  -0.310  0.00  0.00    +0.000 A 
ATOM     10  C   UNL     1       2.806  -0.968  -0.779  0.00  0.00    +0.000 A 
ATOM     11  C   UNL     1       2.403  -2.260  -0.900  0.00  0.00    +0.000 A 
ATOM     12  C   UNL     1       1.128  -2.618  -0.567  0.00  0.00    +0.000 A 
ATOM     13  C   UNL     1       0.266  -1.651  -0.111  0.00  0.00    +0.000 A 
ATOM     14  C   UNL     1       0.642  -0.412   0.007  0.00  0.00    +0.000 A 
BRANCH   9  15
ATOM     15  O   UNL     1       2.349   1.304  -0.202  0.00  0.00    +0.000 OA
BRANCH  15  17
ATOM     16  C   UNL     1       4.713   0.968   0.279  0.00  0.00    +0.000 C 
ATOM     17  C   UNL     1       3.667   1.687  -0.543  0.00  0.00    +0.000 C 
ENDBRANCH  15  17
ENDBRANCH   9  15
ENDBRANCH   1  14
BRANCH   8  18
ATOM     18  C   UNL     1      -1.500   0.803  -1.709  0.00  0.00    +0.000 C 
ATOM     19  N   UNL     1      -2.659   0.564  -2.457  0.00  0.00    +0.000 NA
ATOM     20  O   UNL     1      -0.470   1.230  -2.270  0.00  0.00    +0.000 OA
ENDBRANCH   8  18
TORSDOF 4
