REMARK  Name = 
REMARK  3 active torsions:
REMARK  status: ('A' for Active; 'I' for Inactive)
REMARK    1  A    between atoms: C_4  and  C_5
REMARK    2  A    between atoms: C_11  and  C_12
REMARK    3  A    between atoms: N_17  and  C_18
REMARK                            x       y       z     vdW  Elec       q    Type
REMARK                         _______ _______ _______ _____ _____    ______ ____
ROOT
ATOM      1  C   UNL     1      -0.704   0.941  -0.399  0.00  0.00    +0.000 C 
ATOM      2  O   UNL     1      -1.392   0.751  -1.375  0.00  0.00    +0.000 OA
ATOM      3  N   UNL     1       0.689   0.843  -0.367  0.00  0.00    +0.000 N 
ATOM      4  C   UNL     1       1.540   0.508  -1.460  0.00  0.00    +0.000 C 
ATOM      5  C   UNL     1       2.730  -0.319  -1.120  0.00  0.00    +0.000 C 
ATOM      6  N   UNL     1       3.019  -0.471   0.257  0.00  0.00    +0.000 N 
ATOM      7  C   UNL     1       1.986  -0.246   1.249  0.00  0.00    +0.000 C 
ATOM      8  C   UNL     1       1.388   1.107   0.907  0.00  0.00    +0.000 C 
ENDROOT
BRANCH   6   9
ATOM      9  C   UNL     1       4.319  -0.844   0.699  0.00  0.00    +0.000 A 
ATOM     10  C   UNL     1       4.551  -1.992   1.430  0.00  0.00    +0.000 A 
ATOM     11  C   UNL     1       5.793  -2.391   1.878  0.00  0.00    +0.000 A 
ATOM     12  C   UNL     1       6.873  -1.600   1.580  0.00  0.00    +0.000 A 
ATOM     13  C   UNL     1       6.678  -0.444   0.850  0.00  0.00    +0.000 A 
ATOM     14  C   UNL     1       7.913   0.355   0.574  0.00  0.00    +0.000 C 
ATOM     15  C   UNL     1       5.439  -0.062   0.413  0.00  0.00    +0.000 A 
ATOM     16  C   UNL     1       5.267   1.177  -0.363  0.00  0.00    +0.000 C 
ENDBRANCH   6   9
BRANCH   1  23
ATOM     17  C   UNL     1      -3.327  -0.343   0.019  0.00  0.00    +0.000 C 
ATOM     18  O   UNL     1      -2.543  -1.211  -0.402  0.00  0.00    +0.000 OA
ATOM     19  N   UNL     1      -2.916   0.826   0.623  0.00  0.00    +0.000 N 
ATOM     20  C   UNL     1      -3.751   1.897   1.174  0.00  0.00    +0.000 C 
ATOM     21  C   UNL     1      -2.930   3.126   1.285  0.00  0.00    +0.000 C 
ATOM     22  C   UNL     1      -1.791   2.888   0.359  0.00  0.00    +0.000 C 
ATOM     23  C   UNL     1      -1.487   1.328   0.923  0.00  0.00    +0.000 C 
BRANCH  17  27
ATOM     24  C   UNL     1      -7.892  -2.223  -1.053  0.00  0.00    +0.000 C 
ATOM     25  C   UNL     1      -6.739  -1.400  -0.606  0.00  0.00    +0.000 A 
ATOM     26  C   UNL     1      -5.391  -1.671  -0.709  0.00  0.00    +0.000 A 
ATOM     27  C   UNL     1      -4.746  -0.591  -0.144  0.00  0.00    +0.000 A 
ATOM     28  N   UNL     1      -5.685   0.271   0.270  0.00  0.00    +0.000 NA
ATOM     29  N   UNL     1      -6.892  -0.207  -0.003  0.00  0.00    +0.000 NA
ENDBRANCH  17  27
ENDBRANCH   1  23
TORSDOF 3
