REMARK  Name = 
REMARK  2 active torsions:
REMARK  status: ('A' for Active; 'I' for Inactive)
REMARK    1  A    between atoms: C_5  and  N_6
REMARK    2  A    between atoms: N_13  and  C_14
REMARK                            x       y       z     vdW  Elec       q    Type
REMARK                         _______ _______ _______ _____ _____    ______ ____
ROOT
ATOM      1  N   UNL     1      -1.675  -1.603   0.218  0.00  0.00    +0.000 NA
ATOM      2  C   UNL     1      -0.257  -1.442   0.149  0.00  0.00    +0.000 A 
ATOM      3  N   UNL     1       0.565  -2.500   0.263  0.00  0.00    +0.000 NA
ATOM      4  C   UNL     1       1.902  -2.360   0.199  0.00  0.00    +0.000 A 
ATOM      5 CL   UNL     1       2.997  -3.720   0.345  0.00  0.00    +0.000 Cl
ATOM      6  N   UNL     1       2.474  -1.139   0.017  0.00  0.00    +0.000 NA
ATOM      7  C   UNL     1       1.650  -0.079  -0.098  0.00  0.00    +0.000 A 
ATOM      8  N   UNL     1       2.254   1.199  -0.289  0.00  0.00    +0.000 NA
ATOM      9  N   UNL     1       0.318  -0.239  -0.032  0.00  0.00    +0.000 NA
ENDROOT
BRANCH   1  14
ATOM     10  C   UNL     1      -5.432   2.700  -0.232  0.00  0.00    +0.000 C 
ATOM     11  C   UNL     1      -4.450   1.578  -0.115  0.00  0.00    +0.000 A 
ATOM     12  C   UNL     1      -3.095   1.817  -0.192  0.00  0.00    +0.000 A 
ATOM     13  C   UNL     1      -2.183   0.788  -0.085  0.00  0.00    +0.000 A 
ATOM     14  C   UNL     1      -2.573  -0.522   0.103  0.00  0.00    +0.000 A 
ATOM     15  C   UNL     1      -3.929  -0.764   0.181  0.00  0.00    +0.000 A 
ATOM     16  C   UNL     1      -4.857   0.274   0.073  0.00  0.00    +0.000 A 
ENDBRANCH   1  14
BRANCH   8  17
ATOM     17  C   UNL     1       3.669   1.399  -0.364  0.00  0.00    +0.000 C 
ATOM     18  C   UNL     1       4.342   0.663  -1.476  0.00  0.00    +0.000 C 
ATOM     19  C   UNL     1       4.377   1.055   0.928  0.00  0.00    +0.000 C 
ATOM     20  C   UNL     1       3.904   2.894  -0.607  0.00  0.00    +0.000 C 
ENDBRANCH   8  17
TORSDOF 2
