REMARK  Name = 
REMARK  1 active torsions:
REMARK  status: ('A' for Active; 'I' for Inactive)
REMARK    1  A    between atoms: C_11  and  C_12
REMARK                            x       y       z     vdW  Elec       q    Type
REMARK                         _______ _______ _______ _____ _____    ______ ____
ROOT
ATOM      1  C   UNL     1      -2.020   2.759  -1.626  0.00  0.00    +0.000 C 
ATOM      2  C   UNL     1      -1.860   1.448  -0.887  0.00  0.00    +0.000 C 
ATOM      3  C   UNL     1      -2.691   1.522   0.381  0.00  0.00    +0.000 C 
ATOM      4  C   UNL     1      -2.451   0.281   1.194  0.00  0.00    +0.000 C 
ATOM      5  C   UNL     1      -3.288   0.325   2.451  0.00  0.00    +0.000 C 
ATOM      6  C   UNL     1      -3.016  -0.877   0.377  0.00  0.00    +0.000 C 
ATOM      7  C   UNL     1      -2.265  -0.962  -0.915  0.00  0.00    +0.000 C 
ATOM      8  C   UNL     1      -2.846  -2.109  -1.708  0.00  0.00    +0.000 C 
ATOM      9  C   UNL     1      -2.327   0.299  -1.738  0.00  0.00    +0.000 C 
ATOM     10  C   UNL     1      -0.794  -1.242  -0.616  0.00  0.00    +0.000 C 
ATOM     11  C   UNL     1      -0.261  -0.089   0.215  0.00  0.00    +0.000 C 
ATOM     12  C   UNL     1      -0.417   1.213  -0.554  0.00  0.00    +0.000 C 
ATOM     13  C   UNL     1      -0.986   0.083   1.520  0.00  0.00    +0.000 C 
ENDROOT
BRANCH  11  14
ATOM     14  C   UNL     1       1.211  -0.324   0.386  0.00  0.00    +0.000 A 
ATOM     15  C   UNL     1       1.702  -1.583   0.650  0.00  0.00    +0.000 A 
ATOM     16  C   UNL     1       3.075  -1.813   0.802  0.00  0.00    +0.000 A 
ATOM     17  C   UNL     1       3.950  -0.774   0.686  0.00  0.00    +0.000 A 
ATOM     18  O   UNL     1       5.335  -0.958   0.827  0.00  0.00    +0.000 OA
ATOM     19  C   UNL     1       3.488   0.492   0.424  0.00  0.00    +0.000 A 
ATOM     20  N   UNL     1       4.353   1.599   0.295  0.00  0.00    +0.000 NA
ATOM     21  C   UNL     1       2.108   0.711   0.273  0.00  0.00    +0.000 A 
ENDBRANCH  11  14
TORSDOF 1
