REMARK  Name = 
REMARK  3 active torsions:
REMARK  status: ('A' for Active; 'I' for Inactive)
REMARK    1  A    between atoms: O_2  and  C_3
REMARK    2  A    between atoms: C_8  and  N_9
REMARK    3  A    between atoms: C_10  and  C_12
REMARK                            x       y       z     vdW  Elec       q    Type
REMARK                         _______ _______ _______ _____ _____    ______ ____
ROOT
ATOM      1  N   UNL     1      -0.418  -0.088   0.252  0.00  0.00    +0.000 NA
ATOM      2  C   UNL     1       0.468  -0.110  -0.848  0.00  0.00    +0.000 C 
ATOM      3  O   UNL     1       0.052  -0.671  -1.886  0.00  0.00    +0.000 OA
ENDROOT
BRANCH   2   4
ATOM      4  C   UNL     1       1.826   0.495  -0.797  0.00  0.00    +0.000 A 
ATOM      5  C   UNL     1       2.641   0.442  -1.900  0.00  0.00    +0.000 A 
ATOM      6  N   UNL     1       2.376  -0.146  -3.186  0.00  0.00    +0.000 NA
ATOM      7  S   UNL     1       4.050   1.241  -1.382  0.00  0.00    +0.000 S 
ATOM      8  C   UNL     1       3.578   1.623   0.212  0.00  0.00    +0.000 A 
ATOM      9  C   UNL     1       4.346   2.353   1.292  0.00  0.00    +0.000 C 
ATOM     10  C   UNL     1       2.313   1.106   0.291  0.00  0.00    +0.000 A 
ATOM     11  C   UNL     1       1.544   1.253   1.593  0.00  0.00    +0.000 C 
ENDBRANCH   2   4
BRANCH   1  17
ATOM     12  C   UNL     1      -2.567  -0.648   1.253  0.00  0.00    +0.000 A 
ATOM     13  C   UNL     1      -3.805  -1.234   1.112  0.00  0.00    +0.000 A 
ATOM     14  C   UNL     1      -4.219  -1.839  -0.044  0.00  0.00    +0.000 A 
ATOM     15  C   UNL     1      -3.349  -1.855  -1.108  0.00  0.00    +0.000 A 
ATOM     16  C   UNL     1      -2.095  -1.278  -1.012  0.00  0.00    +0.000 A 
ATOM     17  C   UNL     1      -1.712  -0.676   0.173  0.00  0.00    +0.000 A 
BRANCH  12  19
ATOM     18  C   UNL     1      -2.903   0.066   3.585  0.00  0.00    +0.000 C 
ATOM     19  O   UNL     1      -2.127  -0.035   2.402  0.00  0.00    +0.000 OA
ENDBRANCH  12  19
ENDBRANCH   1  17
TORSDOF 3
