REMARK  Name = 
REMARK  3 active torsions:
REMARK  status: ('A' for Active; 'I' for Inactive)
REMARK    1  A    between atoms: C_4  and  O_5
REMARK    2  A    between atoms: O_5  and  C_6
REMARK    3  A    between atoms: C_6  and  N_7
REMARK                            x       y       z     vdW  Elec       q    Type
REMARK                         _______ _______ _______ _____ _____    ______ ____
ROOT
ATOM      1  C   UNL     1      -4.493  -0.760  -0.476  0.00  0.00    +0.000 C 
ATOM      2  C   UNL     1      -3.126  -0.302  -0.086  0.00  0.00    +0.000 A 
ATOM      3  C   UNL     1      -2.177  -1.173   0.422  0.00  0.00    +0.000 A 
ATOM      4  C   UNL     1      -0.916  -0.742   0.780  0.00  0.00    +0.000 A 
ATOM      5  C   UNL     1      -0.649   0.602   0.606  0.00  0.00    +0.000 A 
ATOM      6  C   UNL     1      -1.596   1.471   0.100  0.00  0.00    +0.000 A 
ATOM      7  C   UNL     1      -1.316   2.931  -0.093  0.00  0.00    +0.000 C 
ATOM      8  C   UNL     1      -2.856   1.039  -0.258  0.00  0.00    +0.000 A 
ATOM      9 CL   UNL     1      -4.063   2.143  -0.904  0.00  0.00    +0.000 Cl
ENDROOT
BRANCH   4  10
ATOM     10  O   UNL     1       0.013  -1.642   1.287  0.00  0.00    +0.000 OA
BRANCH  10  11
ATOM     11  C   UNL     1       1.297  -1.259   1.663  0.00  0.00    +0.000 C 
BRANCH  11  12
ATOM     12  N   UNL     1       2.075  -0.685   0.584  0.00  0.00    +0.000 N 
ATOM     13  N   UNL     1       2.151   0.596   0.231  0.00  0.00    +0.000 NA
ATOM     14  C   UNL     1       2.978   0.742  -0.822  0.00  0.00    +0.000 A 
ATOM     15  N   UNL     1       3.348   1.928  -1.518  0.00  0.00    +0.000 NA
ATOM     16  C   UNL     1       3.423  -0.541  -1.112  0.00  0.00    +0.000 A 
ATOM     17  C   UNL     1       2.851  -1.430  -0.225  0.00  0.00    +0.000 A 
ATOM     18  C   UNL     1       3.057  -2.917  -0.179  0.00  0.00    +0.000 C 
ENDBRANCH  11  12
ENDBRANCH  10  11
ENDBRANCH   4  10
TORSDOF 3
