REMARK  Name = 
REMARK  1 active torsions:
REMARK  status: ('A' for Active; 'I' for Inactive)
REMARK    1  A    between atoms: C_4  and  C_5
REMARK                            x       y       z     vdW  Elec       q    Type
REMARK                         _______ _______ _______ _____ _____    ______ ____
ROOT
ATOM      1  N   UNL     1       0.750   1.723  -2.145  0.00  0.00    +0.000 NA
ATOM      2  C   UNL     1       0.239   0.865  -1.133  0.00  0.00    +0.000 A 
ATOM      3  N   UNL     1      -1.085   0.809  -0.986  0.00  0.00    +0.000 NA
ATOM      4  C   UNL     1      -1.724   0.060  -0.090  0.00  0.00    +0.000 A 
ATOM      5  N   UNL     1      -0.955  -0.693   0.720  0.00  0.00    +0.000 NA
ATOM      6  C   UNL     1       0.406  -0.676   0.613  0.00  0.00    +0.000 A 
ATOM      7  S   UNL     1       1.672  -1.469   1.438  0.00  0.00    +0.000 S 
ATOM      8  C   UNL     1       3.003  -0.811   0.603  0.00  0.00    +0.000 A 
ATOM      9  C   UNL     1       2.410   0.022  -0.310  0.00  0.00    +0.000 A 
ATOM     10  C   UNL     1       1.070   0.091  -0.304  0.00  0.00    +0.000 A 
ATOM     11  C   UNL     1       3.269   0.822  -1.277  0.00  0.00    +0.000 C 
ATOM     12  C   UNL     1       4.420   1.454  -0.570  0.00  0.00    +0.000 C 
ATOM     13  C   UNL     1       4.363   1.298   0.928  0.00  0.00    +0.000 C 
ATOM     14  C   UNL     1       5.185   0.100   1.327  0.00  0.00    +0.000 C 
ATOM     15  C   UNL     1       4.436  -1.140   0.887  0.00  0.00    +0.000 C 
ENDROOT
BRANCH   4  16
ATOM     16  C   UNL     1      -3.172   0.074  -0.015  0.00  0.00    +0.000 A 
ATOM     17  C   UNL     1      -3.941   0.853  -0.854  0.00  0.00    +0.000 A 
ATOM     18  C   UNL     1      -5.300   0.872  -0.790  0.00  0.00    +0.000 A 
ATOM     19  N   UNL     1      -5.957   0.122   0.108  0.00  0.00    +0.000 NA
ATOM     20  C   UNL     1      -5.227  -0.647   0.939  0.00  0.00    +0.000 A 
ATOM     21  C   UNL     1      -3.861  -0.697   0.909  0.00  0.00    +0.000 A 
ENDBRANCH   4  16
TORSDOF 1
