REMARK  Name = 
REMARK  3 active torsions:
REMARK  status: ('A' for Active; 'I' for Inactive)
REMARK    1  A    between atoms: O_2  and  C_3
REMARK    2  A    between atoms: C_6  and  C_7
REMARK    3  A    between atoms: C_20  and  O_21
REMARK                            x       y       z     vdW  Elec       q    Type
REMARK                         _______ _______ _______ _____ _____    ______ ____
ROOT
ATOM      1  C   UNL     1      -0.523   0.834   0.030  0.00  0.00    +0.000 C 
ATOM      2  C   UNL     1      -1.134  -0.318   0.002  0.00  0.00    +0.000 C 
ATOM      3  C   UNL     1      -0.516  -1.598   0.331  0.00  0.00    +0.000 C 
ATOM      4  O   UNL     1       0.661  -1.841   0.703  0.00  0.00    +0.000 OA
ATOM      5  N   UNL     1      -1.543  -2.563   0.145  0.00  0.00    +0.000 NA
ATOM      6  C   UNL     1      -2.744  -1.949  -0.275  0.00  0.00    +0.000 A 
ATOM      7  C   UNL     1      -3.989  -2.439  -0.584  0.00  0.00    +0.000 A 
ATOM      8  C   UNL     1      -5.036  -1.645  -0.985  0.00  0.00    +0.000 A 
ATOM      9  C   UNL     1      -4.831  -0.270  -1.087  0.00  0.00    +0.000 A 
ATOM     10  C   UNL     1      -5.961   0.581  -1.524  0.00  0.00    +0.000 C 
ATOM     11  C   UNL     1      -3.582   0.213  -0.776  0.00  0.00    +0.000 A 
ATOM     12  C   UNL     1      -2.529  -0.575  -0.373  0.00  0.00    +0.000 A 
ENDROOT
BRANCH   1  16
ATOM     13  C   UNL     1       3.549   1.635   1.097  0.00  0.00    +0.000 A 
ATOM     14  C   UNL     1       2.515   2.385   1.612  0.00  0.00    +0.000 A 
ATOM     15  C   UNL     1       1.205   2.104   1.262  0.00  0.00    +0.000 A 
ATOM     16  C   UNL     1       0.868   1.064   0.384  0.00  0.00    +0.000 A 
ATOM     17  C   UNL     1       1.921   0.330  -0.117  0.00  0.00    +0.000 A 
ATOM     18  C   UNL     1       3.239   0.615   0.237  0.00  0.00    +0.000 A 
BRANCH  13  20
ATOM     19  C   UNL     1       5.265   2.913   2.296  0.00  0.00    +0.000 C 
ATOM     20  O   UNL     1       4.879   1.871   1.412  0.00  0.00    +0.000 OA
ENDBRANCH  13  20
BRANCH  18  21
ATOM     21  O   UNL     1       4.304  -0.141  -0.283  0.00  0.00    +0.000 OA
ATOM     22  C   UNL     1       3.982  -1.206  -1.180  0.00  0.00    +0.000 C 
ENDBRANCH  18  21
ENDBRANCH   1  16
TORSDOF 3
