REMARK  Name = 
REMARK  5 active torsions:
REMARK  status: ('A' for Active; 'I' for Inactive)
REMARK    1  A    between atoms: C_6  and  O_7
REMARK    2  A    between atoms: O_7  and  C_8
REMARK    3  A    between atoms: C_8  and  C_9
REMARK    4  A    between atoms: C_9  and  S_10
REMARK    5  A    between atoms: S_10  and  C_11
REMARK                            x       y       z     vdW  Elec       q    Type
REMARK                         _______ _______ _______ _____ _____    ______ ____
ROOT
ATOM      1  C   UNL     1       0.206   1.603   0.009  0.00  0.00    +0.000 C 
ENDROOT
BRANCH   1   2
ATOM      2  C   UNL     1       0.417   0.873  -1.299  0.00  0.00    +0.000 C 
BRANCH   2   3
ATOM      3  O   UNL     1       1.288  -0.211  -1.049  0.00  0.00    +0.000 OA
BRANCH   3   9
ATOM      4  C   UNL     1       5.707  -1.730   0.507  0.00  0.00    +0.000 C 
ATOM      5  C   UNL     1       4.714  -0.651   0.210  0.00  0.00    +0.000 A 
ATOM      6  C   UNL     1       5.100   0.672   0.452  0.00  0.00    +0.000 A 
ATOM      7  C   UNL     1       4.183   1.682   0.179  0.00  0.00    +0.000 A 
ATOM      8  C   UNL     1       2.936   1.380  -0.313  0.00  0.00    +0.000 A 
ATOM      9  C   UNL     1       2.554   0.073  -0.551  0.00  0.00    +0.000 A 
ATOM     10  C   UNL     1       3.469  -0.926  -0.279  0.00  0.00    +0.000 A 
ENDBRANCH   3   9
ENDBRANCH   2   3
ENDBRANCH   1   2
BRANCH   1  11
ATOM     11  S   UNL     1      -0.525   0.481   1.229  0.00  0.00    +0.000 S 
BRANCH  11  12
ATOM     12  C   UNL     1      -2.165   0.044   0.702  0.00  0.00    +0.000 A 
ATOM     13  C   UNL     1      -3.273   0.787   1.073  0.00  0.00    +0.000 A 
ATOM     14  C   UNL     1      -4.533   0.426   0.653  0.00  0.00    +0.000 A 
ATOM     15  C   UNL     1      -5.771   1.163   1.003  0.00  0.00    +0.000 C 
ATOM     16  N   UNL     1      -4.650  -0.663  -0.123  0.00  0.00    +0.000 NA
ATOM     17  C   UNL     1      -3.574  -1.408  -0.500  0.00  0.00    +0.000 A 
ATOM     18  N   UNL     1      -3.714  -2.563  -1.324  0.00  0.00    +0.000 NA
ATOM     19  N   UNL     1      -2.367  -1.031  -0.075  0.00  0.00    +0.000 NA
ENDBRANCH  11  12
ENDBRANCH   1  11
TORSDOF 5
