REMARK  Name = 
REMARK  4 active torsions:
REMARK  status: ('A' for Active; 'I' for Inactive)
REMARK    1  A    between atoms: N_2  and  C_3
REMARK    2  A    between atoms: N_2  and  C_14
REMARK    3  A    between atoms: C_3  and  N_5
REMARK    4  A    between atoms: C_6  and  C_8
REMARK                            x       y       z     vdW  Elec       q    Type
REMARK                         _______ _______ _______ _____ _____    ______ ____
ROOT
ATOM      1  C   UNL     1      -0.286  -0.064  -0.148  0.00  0.00    +0.000 C 
ATOM      2  S   UNL     1      -0.686  -1.154   0.988  0.00  0.00    +0.000 S 
ENDROOT
BRANCH   1   3
ATOM      3  N   UNL     1       1.078   0.161  -0.440  0.00  0.00    +0.000 NA
ATOM      4  C   UNL     1       2.108  -0.541   0.235  0.00  0.00    +0.000 C 
ATOM      5  O   UNL     1       1.681  -1.381   1.117  0.00  0.00    +0.000 OA
BRANCH   4   6
ATOM      6  C   UNL     1       3.529  -0.449   0.073  0.00  0.00    +0.000 C 
ATOM      7  C   UNL     1       4.404  -1.309   0.883  0.00  0.00    +0.000 C 
ATOM      8  C   UNL     1       5.563  -0.460   1.407  0.00  0.00    +0.000 C 
ATOM      9  C   UNL     1       6.275   0.218   0.234  0.00  0.00    +0.000 C 
ATOM     10  C   UNL     1       5.328   1.040  -0.576  0.00  0.00    +0.000 C 
ATOM     11  C   UNL     1       4.123   0.225  -1.072  0.00  0.00    +0.000 C 
ENDBRANCH   4   6
ENDBRANCH   1   3
BRANCH   1  13
ATOM     12  C   UNL     1      -1.058   1.664  -1.828  0.00  0.00    +0.000 C 
ATOM     13  N   UNL     1      -1.307   0.659  -0.819  0.00  0.00    +0.000 N 
BRANCH  13  14
ATOM     14  C   UNL     1      -2.693   0.428  -0.517  0.00  0.00    +0.000 A 
ATOM     15  C   UNL     1      -3.094   0.798   0.750  0.00  0.00    +0.000 A 
ATOM     16  C   UNL     1      -4.401   0.614   1.134  0.00  0.00    +0.000 A 
ATOM     17  C   UNL     1      -5.366   0.064   0.293  0.00  0.00    +0.000 A 
ATOM     18  O   UNL     1      -6.675  -0.103   0.719  0.00  0.00    +0.000 OA
ATOM     19  C   UNL     1      -4.925  -0.295  -0.979  0.00  0.00    +0.000 A 
ATOM     20  C   UNL     1      -3.599  -0.114  -1.376  0.00  0.00    +0.000 A 
ENDBRANCH  13  14
ENDBRANCH   1  13
TORSDOF 4
