REMARK  Name = 
REMARK  3 active torsions:
REMARK  status: ('A' for Active; 'I' for Inactive)
REMARK    1  A    between atoms: C_5  and  N_6
REMARK    2  A    between atoms: C_7  and  C_9
REMARK    3  A    between atoms: C_12  and  C_13
REMARK                            x       y       z     vdW  Elec       q    Type
REMARK                         _______ _______ _______ _____ _____    ______ ____
ROOT
ATOM      1  N   UNL     1      -0.691  -0.332  -0.210  0.00  0.00    +0.000 NA
ATOM      2  C   UNL     1       0.191   0.294   0.706  0.00  0.00    +0.000 C 
ATOM      3  O   UNL     1      -0.281   1.040   1.601  0.00  0.00    +0.000 OA
ENDROOT
BRANCH   1   8
ATOM      4  C   UNL     1      -6.252   0.691   0.380  0.00  0.00    +0.000 C 
ATOM      5  C   UNL     1      -4.803   0.398   0.192  0.00  0.00    +0.000 A 
ATOM      6  C   UNL     1      -3.908   0.987   1.063  0.00  0.00    +0.000 A 
ATOM      7  C   UNL     1      -2.560   0.719   0.894  0.00  0.00    +0.000 A 
ATOM      8  C   UNL     1      -2.085  -0.104  -0.098  0.00  0.00    +0.000 A 
ATOM      9  C   UNL     1      -2.984  -0.691  -0.967  0.00  0.00    +0.000 A 
ATOM     10  O   UNL     1      -2.516  -1.525  -1.975  0.00  0.00    +0.000 OA
ATOM     11  C   UNL     1      -4.351  -0.440  -0.823  0.00  0.00    +0.000 A 
ENDBRANCH   1   8
BRANCH   2  12
ATOM     12  C   UNL     1       1.625   0.062   0.594  0.00  0.00    +0.000 A 
ATOM     13  C   UNL     1       2.121  -0.753  -0.385  0.00  0.00    +0.000 A 
ATOM     14  C   UNL     1       3.476  -0.978  -0.498  0.00  0.00    +0.000 A 
ATOM     15  C   UNL     1       4.346  -0.369   0.396  0.00  0.00    +0.000 A 
ATOM     16  C   UNL     1       3.835   0.448   1.375  0.00  0.00    +0.000 A 
ATOM     17  C   UNL     1       2.485   0.663   1.476  0.00  0.00    +0.000 A 
BRANCH  15  18
ATOM     18  C   UNL     1       5.796  -0.645   0.229  0.00  0.00    +0.000 C 
ATOM     19 CL   UNL     1       6.555   0.535  -0.858  0.00  0.00    +0.000 Cl
ENDBRANCH  15  18
ENDBRANCH   2  12
TORSDOF 3
