REMARK  Name = 
REMARK  2 active torsions:
REMARK  status: ('A' for Active; 'I' for Inactive)
REMARK    1  A    between atoms: C_4  and  C_6
REMARK    2  A    between atoms: C_9  and  N_10
REMARK                            x       y       z     vdW  Elec       q    Type
REMARK                         _______ _______ _______ _____ _____    ______ ____
ROOT
ATOM      1  C   UNL     1       1.130  -1.984  -0.316  0.00  0.00    +0.000 C 
ATOM      2  C   UNL     1       1.588  -1.068  -1.600  0.00  0.00    +0.000 C 
ATOM      3  O   UNL     1       0.605   0.034  -1.390  0.00  0.00    +0.000 OA
ATOM      4  C   UNL     1       0.255   0.377  -0.191  0.00  0.00    +0.000 C 
ATOM      5  O   UNL     1       0.447   1.811  -0.144  0.00  0.00    +0.000 OA
ATOM      6  C   UNL     1       1.159   0.023   0.976  0.00  0.00    +0.000 C 
ATOM      7  C   UNL     1       2.535   0.052   0.408  0.00  0.00    +0.000 C 
ATOM      8  N   UNL     1       2.775  -0.367  -0.869  0.00  0.00    +0.000 N 
ATOM      9  C   UNL     1       3.712  -1.530  -0.788  0.00  0.00    +0.000 C 
ATOM     10  C   UNL     1       4.965  -1.123  -0.028  0.00  0.00    +0.000 C 
ATOM     11  C   UNL     1       5.115   0.390  -0.139  0.00  0.00    +0.000 C 
ATOM     12  C   UNL     1       4.806   0.814  -1.552  0.00  0.00    +0.000 C 
ATOM     13  C   UNL     1       3.348   0.571  -1.789  0.00  0.00    +0.000 C 
ENDROOT
BRANCH   4  14
ATOM     14  C   UNL     1      -1.178   0.221   0.156  0.00  0.00    +0.000 A 
ATOM     15  C   UNL     1      -2.030   1.294  -0.058  0.00  0.00    +0.000 A 
ATOM     16  C   UNL     1      -3.384   1.231   0.301  0.00  0.00    +0.000 A 
ATOM     17  C   UNL     1      -3.910   0.105   0.884  0.00  0.00    +0.000 A 
ATOM     18  C   UNL     1      -3.064  -0.952   1.093  0.00  0.00    +0.000 A 
ATOM     19  C   UNL     1      -1.732  -0.877   0.728  0.00  0.00    +0.000 A 
BRANCH  17  20
ATOM     20  N   UNL     1      -5.286   0.055   1.294  0.00  0.00    +0.000 N 
ATOM     21  O   UNL     1      -6.068   1.022   1.155  0.00  0.00    +0.000 OA
ATOM     22  O   UNL     1      -5.788  -1.084   1.869  0.00  0.00    +0.000 OA
ENDBRANCH  17  20
ENDBRANCH   4  14
TORSDOF 2
