REMARK  Name = 
REMARK  5 active torsions:
REMARK  status: ('A' for Active; 'I' for Inactive)
REMARK    1  A    between atoms: C_2  and  C_3
REMARK    2  A    between atoms: C_8  and  N_9
REMARK    3  A    between atoms: N_9  and  C_11
REMARK    4  A    between atoms: C_11  and  N_13
REMARK    5  A    between atoms: N_13  and  C_14
REMARK                            x       y       z     vdW  Elec       q    Type
REMARK                         _______ _______ _______ _____ _____    ______ ____
ROOT
ATOM      1  N   UNL     1       0.490  -0.913  -0.255  0.00  0.00    +0.000 N 
ATOM      2  C   UNL     1       0.498  -2.203  -0.819  0.00  0.00    +0.000 C 
ENDROOT
BRANCH   1   8
ATOM      3  C   UNL     1       4.162  -0.098  -0.823  0.00  0.00    +0.000 C 
ATOM      4  C   UNL     1       4.570  -0.935   0.532  0.00  0.00    +0.000 C 
ATOM      5  C   UNL     1       3.700  -0.576   1.636  0.00  0.00    +0.000 C 
ATOM      6  C   UNL     1       2.290  -1.420   1.331  0.00  0.00    +0.000 C 
ATOM      7  O   UNL     1       1.566  -0.696   2.482  0.00  0.00    +0.000 OA
ATOM      8  C   UNL     1       1.787  -0.199   0.202  0.00  0.00    +0.000 C 
ATOM      9  C   UNL     1       2.695  -0.797  -0.999  0.00  0.00    +0.000 C 
BRANCH   3  11
ATOM     10  C   UNL     1       4.078   2.325  -0.774  0.00  0.00    +0.000 C 
ATOM     11  C   UNL     1       3.731   1.268  -0.068  0.00  0.00    +0.000 C 
ENDBRANCH   3  11
ENDBRANCH   1   8
BRANCH   1  12
ATOM     12  C   UNL     1      -0.690  -0.198  -0.073  0.00  0.00    +0.000 C 
ATOM     13  S   UNL     1      -0.645   1.285   0.581  0.00  0.00    +0.000 S 
BRANCH  12  14
ATOM     14  N   UNL     1      -1.950  -0.732  -0.447  0.00  0.00    +0.000 NA
BRANCH  14  15
ATOM     15  C   UNL     1      -3.156  -0.018  -0.268  0.00  0.00    +0.000 A 
ATOM     16  C   UNL     1      -4.351  -0.588  -0.650  0.00  0.00    +0.000 A 
ATOM     17  C   UNL     1      -5.558   0.051  -0.505  0.00  0.00    +0.000 A 
ATOM     18  C   UNL     1      -5.577   1.304   0.042  0.00  0.00    +0.000 A 
ATOM     19  C   UNL     1      -4.412   1.898   0.431  0.00  0.00    +0.000 A 
ATOM     20  C   UNL     1      -3.227   1.244   0.277  0.00  0.00    +0.000 A 
ENDBRANCH  14  15
ENDBRANCH  12  14
ENDBRANCH   1  12
TORSDOF 5
