REMARK  Name = 
REMARK  4 active torsions:
REMARK  status: ('A' for Active; 'I' for Inactive)
REMARK    1  A    between atoms: N_2  and  C_4
REMARK    2  A    between atoms: C_8  and  N_9
REMARK    3  A    between atoms: N_9  and  N_10
REMARK    4  A    between atoms: N_10  and  C_11
REMARK                            x       y       z     vdW  Elec       q    Type
REMARK                         _______ _______ _______ _____ _____    ______ ____
ROOT
ATOM      1  C   UNL     1      -3.361   0.184  -0.132  0.00  0.00    +0.000 A 
ATOM      2  C   UNL     1      -3.851  -1.089  -0.419  0.00  0.00    +0.000 A 
ATOM      3  C   UNL     1      -3.032  -2.195  -0.327  0.00  0.00    +0.000 A 
ATOM      4  C   UNL     1      -1.735  -2.033   0.048  0.00  0.00    +0.000 A 
ATOM      5  C   UNL     1      -1.241  -0.793   0.331  0.00  0.00    +0.000 A 
ATOM      6  C   UNL     1      -2.050   0.303   0.240  0.00  0.00    +0.000 A 
ENDROOT
BRANCH   1   8
ATOM      7  O   UNL     1      -3.855   2.456   0.013  0.00  0.00    +0.000 OA
ATOM      8  N   UNL     1      -4.229   1.305  -0.236  0.00  0.00    +0.000 N 
ATOM      9  O   UNL     1      -5.535   1.127  -0.626  0.00  0.00    +0.000 OA
ENDBRANCH   1   8
BRANCH   5  10
ATOM     10  N   UNL     1       0.124  -0.667   0.709  0.00  0.00    +0.000 NA
BRANCH  10  11
ATOM     11  N   UNL     1       1.062  -0.558  -0.320  0.00  0.00    +0.000 NA
BRANCH  11  12
ATOM     12  C   UNL     1       2.402  -0.202  -0.208  0.00  0.00    +0.000 C 
ATOM     13  C   UNL     1       3.330  -1.117   0.052  0.00  0.00    +0.000 C 
ATOM     14  C   UNL     1       4.787  -1.019   0.222  0.00  0.00    +0.000 C 
ATOM     15  C   UNL     1       5.263   0.346   0.614  0.00  0.00    +0.000 C 
ATOM     16  C   UNL     1       5.201   1.352  -0.489  0.00  0.00    +0.000 C 
ATOM     17  C   UNL     1       3.967   1.345  -1.319  0.00  0.00    +0.000 C 
ATOM     18  C   UNL     1       2.756   1.254  -0.400  0.00  0.00    +0.000 C 
ENDBRANCH  11  12
ENDBRANCH  10  11
ENDBRANCH   5  10
TORSDOF 4
