REMARK  Name = 
REMARK  2 active torsions:
REMARK  status: ('A' for Active; 'I' for Inactive)
REMARK    1  A    between atoms: C_2  and  C_5
REMARK    2  A    between atoms: C_10  and  C_12
REMARK                            x       y       z     vdW  Elec       q    Type
REMARK                         _______ _______ _______ _____ _____    ______ ____
ROOT
ATOM      1  C   UNL     1      -3.408   0.146   0.053  0.00  0.00    +0.000 A 
ATOM      2  C   UNL     1      -2.626  -0.965  -0.121  0.00  0.00    +0.000 A 
ATOM      3  N   UNL     1      -1.351  -0.832  -0.031  0.00  0.00    +0.000 NA
ATOM      4  C   UNL     1      -0.819   0.348   0.225  0.00  0.00    +0.000 A 
ATOM      5  N   UNL     1       0.576   0.717   0.272  0.00  0.00    +0.000 NA
ATOM      6  C   UNL     1       1.500  -0.352  -0.075  0.00  0.00    +0.000 C 
ATOM      7  O   UNL     1       1.065  -1.488  -0.381  0.00  0.00    +0.000 OA
ATOM      8  S   UNL     1      -2.215   1.336   0.345  0.00  0.00    +0.000 S 
ENDROOT
BRANCH   6   9
ATOM      9  C   UNL     1       2.895  -0.061  -0.065  0.00  0.00    +0.000 A 
ATOM     10  C   UNL     1       3.862  -0.998  -0.459  0.00  0.00    +0.000 A 
ATOM     11  C   UNL     1       5.199  -0.723  -0.509  0.00  0.00    +0.000 A 
ATOM     12  C   UNL     1       5.648   0.525  -0.160  0.00  0.00    +0.000 A 
ATOM     13  C   UNL     1       4.719   1.481   0.234  0.00  0.00    +0.000 A 
ATOM     14  C   UNL     1       3.386   1.172   0.274  0.00  0.00    +0.000 A 
ATOM     15  O   UNL     1       2.519   2.215   0.687  0.00  0.00    +0.000 OA
ENDBRANCH   6   9
BRANCH   1  17
ATOM     16  C   UNL     1      -5.210   1.611  -0.615  0.00  0.00    +0.000 C 
ATOM     17  C   UNL     1      -4.904   0.253  -0.036  0.00  0.00    +0.000 C 
ATOM     18  C   UNL     1      -5.469   0.090   1.344  0.00  0.00    +0.000 C 
ATOM     19  C   UNL     1      -5.366  -0.841  -0.981  0.00  0.00    +0.000 C 
ENDBRANCH   1  17
TORSDOF 2
