REMARK  Name = 
REMARK  4 active torsions:
REMARK  status: ('A' for Active; 'I' for Inactive)
REMARK    1  A    between atoms: C_6  and  N_7
REMARK    2  A    between atoms: N_7  and  C_8
REMARK    3  A    between atoms: C_8  and  N_10
REMARK    4  A    between atoms: C_11  and  C_13
REMARK                            x       y       z     vdW  Elec       q    Type
REMARK                         _______ _______ _______ _____ _____    ______ ____
ROOT
ATOM      1  N   UNL     1       0.339  -0.097   0.051  0.00  0.00    +0.000 NA
ENDROOT
BRANCH   1   7
ATOM      2  C   UNL     1       6.009   0.303   0.584  0.00  0.00    +0.000 C 
ATOM      3  C   UNL     1       4.536   0.235   0.461  0.00  0.00    +0.000 A 
ATOM      4  C   UNL     1       3.704   1.275   0.831  0.00  0.00    +0.000 A 
ATOM      5  C   UNL     1       2.320   1.155   0.692  0.00  0.00    +0.000 A 
ATOM      6  O   UNL     1       1.492   2.201   1.065  0.00  0.00    +0.000 OA
ATOM      7  C   UNL     1       1.740   0.015   0.188  0.00  0.00    +0.000 A 
ATOM      8  C   UNL     1       2.568  -1.020  -0.181  0.00  0.00    +0.000 A 
ATOM      9  C   UNL     1       3.958  -0.911  -0.046  0.00  0.00    +0.000 A 
ATOM     10  C   UNL     1       4.854  -2.037  -0.447  0.00  0.00    +0.000 C 
ENDBRANCH   1   7
BRANCH   1  11
ATOM     11  C   UNL     1      -0.333  -1.211  -0.448  0.00  0.00    +0.000 C 
ATOM     12  S   UNL     1       0.494  -2.522  -0.930  0.00  0.00    +0.000 S 
BRANCH  11  13
ATOM     13  N   UNL     1      -1.743  -1.210  -0.540  0.00  0.00    +0.000 NA
ATOM     14  C   UNL     1      -2.531  -0.087  -0.132  0.00  0.00    +0.000 C 
ATOM     15  O   UNL     1      -1.879   0.900   0.314  0.00  0.00    +0.000 OA
BRANCH  14  16
ATOM     16  C   UNL     1      -3.980  -0.084  -0.225  0.00  0.00    +0.000 A 
ATOM     17  C   UNL     1      -4.781   0.965   0.152  0.00  0.00    +0.000 A 
ATOM     18  C   UNL     1      -6.071   0.553  -0.101  0.00  0.00    +0.000 A 
ATOM     19  C   UNL     1      -5.989  -0.718  -0.615  0.00  0.00    +0.000 A 
ATOM     20  O   UNL     1      -4.706  -1.068  -0.675  0.00  0.00    +0.000 OA
ENDBRANCH  14  16
ENDBRANCH  11  13
ENDBRANCH   1  11
TORSDOF 4
