REMARK  Name = 
REMARK  5 active torsions:
REMARK  status: ('A' for Active; 'I' for Inactive)
REMARK    1  A    between atoms: O_2  and  C_3
REMARK    2  A    between atoms: C_6  and  S_7
REMARK    3  A    between atoms: S_7  and  C_8
REMARK    4  A    between atoms: C_14  and  C_15
REMARK    5  A    between atoms: C_18  and  O_19
REMARK                            x       y       z     vdW  Elec       q    Type
REMARK                         _______ _______ _______ _____ _____    ______ ____
ROOT
ATOM      1  C   UNL     1       3.162   0.718  -0.262  0.00  0.00    +0.000 A 
ATOM      2  C   UNL     1       2.276   1.474   0.486  0.00  0.00    +0.000 A 
ATOM      3  C   UNL     1       1.125   0.916   1.019  0.00  0.00    +0.000 A 
ATOM      4  C   UNL     1       0.867  -0.418   0.795  0.00  0.00    +0.000 A 
ATOM      5  C   UNL     1       1.748  -1.165   0.052  0.00  0.00    +0.000 A 
ATOM      6  C   UNL     1       2.908  -0.615  -0.489  0.00  0.00    +0.000 A 
ENDROOT
BRANCH   1   8
ATOM      7  C   UNL     1       4.561   2.687  -0.544  0.00  0.00    +0.000 C 
ATOM      8  O   UNL     1       4.313   1.335  -0.779  0.00  0.00    +0.000 OA
ENDBRANCH   1   8
BRANCH   6   9
ATOM      9  O   UNL     1       3.820  -1.334  -1.241  0.00  0.00    +0.000 OA
ATOM     10  C   UNL     1       3.537  -2.705  -1.461  0.00  0.00    +0.000 C 
ENDBRANCH   6   9
BRANCH   4  11
ATOM     11  S   UNL     1      -0.628  -1.078   1.506  0.00  0.00    +0.000 S 
BRANCH  11  12
ATOM     12  C   UNL     1      -2.014  -0.933   0.394  0.00  0.00    +0.000 A 
ATOM     13  C   UNL     1      -2.311  -1.932  -0.498  0.00  0.00    +0.000 A 
ATOM     14  C   UNL     1      -3.387  -1.777  -1.335  0.00  0.00    +0.000 A 
ATOM     15  C   UNL     1      -4.152  -0.634  -1.274  0.00  0.00    +0.000 A 
ATOM     16  C   UNL     1      -3.837   0.356  -0.373  0.00  0.00    +0.000 A 
ATOM     17  N   UNL     1      -4.630   1.547  -0.306  0.00  0.00    +0.000 NA
ATOM     18  C   UNL     1      -2.776   0.226   0.467  0.00  0.00    +0.000 A 
BRANCH  18  19
ATOM     19  C   UNL     1      -2.424   1.255   1.426  0.00  0.00    +0.000 C 
ATOM     20  N   UNL     1      -2.159   2.076   2.180  0.00  0.00    +0.000 NA
ENDBRANCH  18  19
ENDBRANCH  11  12
ENDBRANCH   4  11
TORSDOF 5
