REMARK  Name = 
REMARK  4 active torsions:
REMARK  status: ('A' for Active; 'I' for Inactive)
REMARK    1  A    between atoms: C_2  and  C_3
REMARK    2  A    between atoms: C_3  and  N_6
REMARK    3  A    between atoms: N_6  and  C_7
REMARK    4  A    between atoms: C_8  and  C_9
REMARK                            x       y       z     vdW  Elec       q    Type
REMARK                         _______ _______ _______ _____ _____    ______ ____
ROOT
ATOM      1  C   UNL     1      -0.830  -0.326   0.056  0.00  0.00    +0.000 A 
ATOM      2  C   UNL     1       0.465  -0.751  -0.081  0.00  0.00    +0.000 A 
ATOM      3  N   UNL     1       0.418  -2.115   0.012  0.00  0.00    +0.000 NA
ATOM      4  C   UNL     1      -0.870  -2.489   0.199  0.00  0.00    +0.000 A 
ATOM      5  C   UNL     1      -1.432  -3.760   0.352  0.00  0.00    +0.000 A 
ATOM      6  C   UNL     1      -2.777  -3.911   0.532  0.00  0.00    +0.000 A 
ATOM      7  C   UNL     1      -3.570  -2.786   0.561  0.00  0.00    +0.000 A 
ATOM      8  C   UNL     1      -2.980  -1.552   0.407  0.00  0.00    +0.000 A 
ATOM      9  C   UNL     1      -3.843  -0.355   0.440  0.00  0.00    +0.000 C 
ATOM     10  N   UNL     1      -1.658  -1.432   0.232  0.00  0.00    +0.000 N 
ENDROOT
BRANCH   2  11
ATOM     11  C   UNL     1       1.726  -0.073  -0.309  0.00  0.00    +0.000 A 
ATOM     12  C   UNL     1       2.550  -0.548  -1.343  0.00  0.00    +0.000 A 
ATOM     13  C   UNL     1       3.765   0.010  -1.613  0.00  0.00    +0.000 A 
ATOM     14  C   UNL     1       4.235   1.082  -0.864  0.00  0.00    +0.000 A 
ATOM     15  O   UNL     1       5.460   1.670  -1.111  0.00  0.00    +0.000 OA
ATOM     16  C   UNL     1       3.448   1.570   0.157  0.00  0.00    +0.000 A 
ATOM     17  C   UNL     1       2.231   0.979   0.397  0.00  0.00    +0.000 A 
ENDBRANCH   2  11
BRANCH   1  18
ATOM     18  N   UNL     1      -1.345   0.939   0.037  0.00  0.00    +0.000 NA
BRANCH  18  19
ATOM     19  C   UNL     1      -1.040   2.267  -0.059  0.00  0.00    +0.000 C 
ATOM     20  C   UNL     1      -2.304   3.155  -0.201  0.00  0.00    +0.000 C 
ATOM     21  C   UNL     1      -0.184   2.643  -1.282  0.00  0.00    +0.000 C 
BRANCH  19  23
ATOM     22  C   UNL     1      -1.161   2.877   2.358  0.00  0.00    +0.000 C 
ATOM     23  C   UNL     1      -0.304   2.906   1.120  0.00  0.00    +0.000 C 
ENDBRANCH  19  23
ENDBRANCH  18  19
ENDBRANCH   1  18
TORSDOF 4
