REMARK  Name = 
REMARK  1 active torsions:
REMARK  status: ('A' for Active; 'I' for Inactive)
REMARK    1  A    between atoms: C_2  and  C_4
REMARK                            x       y       z     vdW  Elec       q    Type
REMARK                         _______ _______ _______ _____ _____    ______ ____
ROOT
ATOM      1  C   UNL     1       3.129   0.445  -0.940  0.00  0.00    +0.000 A 
ATOM      2  C   UNL     1       2.781  -0.464  -1.913  0.00  0.00    +0.000 A 
ATOM      3  C   UNL     1       1.584  -1.145  -1.905  0.00  0.00    +0.000 A 
ATOM      4  C   UNL     1       0.689  -0.911  -0.880  0.00  0.00    +0.000 A 
ATOM      5  C   UNL     1       0.996  -0.008   0.116  0.00  0.00    +0.000 A 
ATOM      6  C   UNL     1       2.231   0.662   0.065  0.00  0.00    +0.000 A 
ATOM      7  C   UNL     1       0.216   0.391   1.274  0.00  0.00    +0.000 C 
ATOM      8  O   UNL     1       0.505   1.495   1.787  0.00  0.00    +0.000 OA
ATOM      9  C   UNL     1      -0.883  -0.322   1.946  0.00  0.00    +0.000 C 
ATOM     10  C   UNL     1      -2.091  -0.427   1.086  0.00  0.00    +0.000 A 
ATOM     11  C   UNL     1      -3.221   0.155   1.600  0.00  0.00    +0.000 A 
ATOM     12  C   UNL     1      -4.379   0.100   0.858  0.00  0.00    +0.000 A 
ATOM     13  N   UNL     1      -5.601   0.692   1.341  0.00  0.00    +0.000 NA
ATOM     14  C   UNL     1      -4.447  -0.516  -0.377  0.00  0.00    +0.000 A 
ATOM     15  C   UNL     1      -3.281  -1.096  -0.866  0.00  0.00    +0.000 A 
ATOM     16  C   UNL     1      -2.115  -1.049  -0.138  0.00  0.00    +0.000 A 
ATOM     17  S   UNL     1      -0.807  -1.875  -1.023  0.00  0.00    +0.000 S 
ENDROOT
BRANCH   1  19
ATOM     18  C   UNL     1       4.711   2.041   0.105  0.00  0.00    +0.000 C 
ATOM     19  C   UNL     1       4.446   1.125  -1.041  0.00  0.00    +0.000 C 
ATOM     20  C   UNL     1       5.539   0.057  -1.096  0.00  0.00    +0.000 C 
ENDBRANCH   1  19
TORSDOF 1
