REMARK  Name = 
REMARK  1 active torsions:
REMARK  status: ('A' for Active; 'I' for Inactive)
REMARK    1  A    between atoms: C_4  and  C_5
REMARK                            x       y       z     vdW  Elec       q    Type
REMARK                         _______ _______ _______ _____ _____    ______ ____
ROOT
ATOM      1  N   UNL     1      -0.994  -2.282  -1.323  0.00  0.00    +0.000 NA
ATOM      2  C   UNL     1      -0.448  -1.155  -0.634  0.00  0.00    +0.000 A 
ATOM      3  N   UNL     1       0.866  -1.075  -0.551  0.00  0.00    +0.000 NA
ATOM      4  C   UNL     1       1.524  -0.084   0.060  0.00  0.00    +0.000 A 
ATOM      5  N   UNL     1       0.767   0.894   0.625  0.00  0.00    +0.000 NA
ATOM      6  C   UNL     1      -0.602   0.845   0.559  0.00  0.00    +0.000 A 
ATOM      7  S   UNL     1      -1.850   1.857   1.131  0.00  0.00    +0.000 S 
ATOM      8  C   UNL     1      -3.200   0.982   0.572  0.00  0.00    +0.000 A 
ATOM      9  C   UNL     1      -2.631  -0.089  -0.054  0.00  0.00    +0.000 A 
ATOM     10  C   UNL     1      -1.277  -0.164  -0.063  0.00  0.00    +0.000 A 
ATOM     11  C   UNL     1      -3.657  -1.041  -0.651  0.00  0.00    +0.000 C 
ATOM     12  C   UNL     1      -4.602  -0.228  -1.473  0.00  0.00    +0.000 C 
ATOM     13  C   UNL     1      -5.342   0.819  -0.683  0.00  0.00    +0.000 C 
ATOM     14  C   UNL     1      -4.704   1.144   0.629  0.00  0.00    +0.000 C 
ENDROOT
BRANCH   4  15
ATOM     15  C   UNL     1       2.974  -0.037   0.126  0.00  0.00    +0.000 A 
ATOM     16  C   UNL     1       3.685  -1.045  -0.458  0.00  0.00    +0.000 A 
ATOM     17  C   UNL     1       5.063  -1.105  -0.458  0.00  0.00    +0.000 A 
ATOM     18  N   UNL     1       5.718  -0.108   0.157  0.00  0.00    +0.000 NA
ATOM     19  C   UNL     1       5.052   0.899   0.742  0.00  0.00    +0.000 A 
ATOM     20  C   UNL     1       3.660   0.973   0.749  0.00  0.00    +0.000 A 
ENDBRANCH   4  15
TORSDOF 1
