REMARK  Name = 
REMARK  4 active torsions:
REMARK  status: ('A' for Active; 'I' for Inactive)
REMARK    1  A    between atoms: C_2  and  C_3
REMARK    2  A    between atoms: C_9  and  C_10
REMARK    3  A    between atoms: N_12  and  C_13
REMARK    4  A    between atoms: C_13  and  C_14
REMARK                            x       y       z     vdW  Elec       q    Type
REMARK                         _______ _______ _______ _____ _____    ______ ____
ROOT
ATOM      1  C   UNL     1      -0.478  -0.655   0.535  0.00  0.00    +0.000 C 
ATOM      2  O   UNL     1      -0.066  -1.813   0.662  0.00  0.00    +0.000 OA
ATOM      3  N   UNL     1       0.289   0.385   1.096  0.00  0.00    +0.000 NA
ENDROOT
BRANCH   1  10
ATOM      4  C   UNL     1      -2.285   0.811  -0.382  0.00  0.00    +0.000 A 
ATOM      5  C   UNL     1      -3.461   0.896  -1.070  0.00  0.00    +0.000 A 
ATOM      6  C   UNL     1      -4.242   2.154  -1.399  0.00  0.00    +0.000 C 
ATOM      7  S   UNL     1      -3.811  -0.722  -1.449  0.00  0.00    +0.000 S 
ATOM      8  C   UNL     1      -2.460  -1.470  -0.728  0.00  0.00    +0.000 A 
ATOM      9  N   UNL     1      -2.123  -2.882  -0.677  0.00  0.00    +0.000 NA
ATOM     10  C   UNL     1      -1.754  -0.418  -0.198  0.00  0.00    +0.000 A 
BRANCH   4  12
ATOM     11  C   UNL     1      -2.345   2.551   1.388  0.00  0.00    +0.000 C 
ATOM     12  C   UNL     1      -1.614   2.075   0.153  0.00  0.00    +0.000 C 
ENDBRANCH   4  12
ENDBRANCH   1  10
BRANCH   3  13
ATOM     13  C   UNL     1       1.520   0.246   1.812  0.00  0.00    +0.000 C 
BRANCH  13  14
ATOM     14  C   UNL     1       2.692  -0.020   0.976  0.00  0.00    +0.000 A 
ATOM     15  C   UNL     1       3.227  -1.266   0.757  0.00  0.00    +0.000 A 
ATOM     16  C   UNL     1       4.327  -1.452  -0.040  0.00  0.00    +0.000 A 
ATOM     17  C   UNL     1       4.897  -0.337  -0.629  0.00  0.00    +0.000 A 
ATOM     18  N   UNL     1       4.379   0.869  -0.416  0.00  0.00    +0.000 NA
ATOM     19  C   UNL     1       3.308   1.048   0.360  0.00  0.00    +0.000 A 
ENDBRANCH  13  14
ENDBRANCH   3  13
TORSDOF 4
