REMARK  Name = 
REMARK  3 active torsions:
REMARK  status: ('A' for Active; 'I' for Inactive)
REMARK    1  A    between atoms: C_4  and  N_5
REMARK    2  A    between atoms: N_5  and  C_6
REMARK    3  A    between atoms: C_11  and  C_12
REMARK                            x       y       z     vdW  Elec       q    Type
REMARK                         _______ _______ _______ _____ _____    ______ ____
ROOT
ATOM      1  C   UNL     1      -2.861  -2.483   0.183  0.00  0.00    +0.000 A 
ATOM      2  C   UNL     1      -2.129  -1.319   0.340  0.00  0.00    +0.000 A 
ATOM      3  N   UNL     1      -0.824  -1.230   0.043  0.00  0.00    +0.000 N 
ATOM      4  C   UNL     1       0.075  -0.228   0.111  0.00  0.00    +0.000 A 
ATOM      5  C   UNL     1       1.305  -0.681  -0.325  0.00  0.00    +0.000 A 
ATOM      6  N   UNL     1       1.107  -1.971  -0.650  0.00  0.00    +0.000 NA
ATOM      7  C   UNL     1      -0.176  -2.309  -0.431  0.00  0.00    +0.000 A 
ATOM      8  C   UNL     1      -0.901  -3.489  -0.593  0.00  0.00    +0.000 A 
ATOM      9  N   UNL     1      -2.212  -3.562  -0.290  0.00  0.00    +0.000 NA
ENDROOT
BRANCH   5  10
ATOM     10  C   UNL     1       2.579   0.094  -0.415  0.00  0.00    +0.000 A 
ATOM     11  C   UNL     1       3.010   0.899   0.561  0.00  0.00    +0.000 A 
ATOM     12  C   UNL     1       4.181   1.561   0.383  0.00  0.00    +0.000 A 
ATOM     13  S   UNL     1       4.680   1.051  -1.161  0.00  0.00    +0.000 S 
ATOM     14  C   UNL     1       3.382   0.012  -1.531  0.00  0.00    +0.000 A 
ENDBRANCH   5  10
BRANCH   4  15
ATOM     15  N   UNL     1      -0.141   1.112   0.552  0.00  0.00    +0.000 NA
BRANCH  15  16
ATOM     16  C   UNL     1      -1.388   1.637   1.010  0.00  0.00    +0.000 C 
ATOM     17  C   UNL     1      -2.397   1.519  -0.111  0.00  0.00    +0.000 C 
ATOM     18  C   UNL     1      -3.402   2.583   0.213  0.00  0.00    +0.000 C 
ATOM     19  C   UNL     1      -2.655   3.649   1.003  0.00  0.00    +0.000 C 
ATOM     20  C   UNL     1      -1.234   3.155   1.109  0.00  0.00    +0.000 C 
ENDBRANCH  15  16
ENDBRANCH   4  15
TORSDOF 3
