REMARK  Name = 
REMARK  3 active torsions:
REMARK  status: ('A' for Active; 'I' for Inactive)
REMARK    1  A    between atoms: C_2  and  C_4
REMARK    2  A    between atoms: C_5  and  N_6
REMARK    3  A    between atoms: C_7  and  C_8
REMARK                            x       y       z     vdW  Elec       q    Type
REMARK                         _______ _______ _______ _____ _____    ______ ____
ROOT
ATOM      1  C   UNL     1      -1.498  -0.347   0.001  0.00  0.00    +0.000 A 
ATOM      2  C   UNL     1      -0.519  -0.030   0.916  0.00  0.00    +0.000 A 
ATOM      3  S   UNL     1      -1.077   1.496   1.515  0.00  0.00    +0.000 S 
ATOM      4  C   UNL     1      -2.495   1.657   0.597  0.00  0.00    +0.000 A 
ATOM      5  C   UNL     1      -2.503   0.519  -0.156  0.00  0.00    +0.000 A 
ATOM      6  C   UNL     1      -3.710   0.441  -1.079  0.00  0.00    +0.000 C 
ATOM      7  C   UNL     1      -3.746   1.771  -1.796  0.00  0.00    +0.000 C 
ATOM      8  C   UNL     1      -4.187   2.824  -0.813  0.00  0.00    +0.000 C 
ATOM      9  C   UNL     1      -3.550   2.706   0.525  0.00  0.00    +0.000 C 
ENDROOT
BRANCH   1  11
ATOM     10  N   UNL     1      -2.356  -2.008  -1.708  0.00  0.00    +0.000 NA
ATOM     11  C   UNL     1      -1.378  -1.625  -0.752  0.00  0.00    +0.000 C 
ATOM     12  O   UNL     1      -0.427  -2.421  -0.590  0.00  0.00    +0.000 OA
ENDBRANCH   1  11
BRANCH   2  13
ATOM     13  N   UNL     1       0.640  -0.760   1.272  0.00  0.00    +0.000 NA
ATOM     14  C   UNL     1       1.759  -0.925   0.999  0.00  0.00    +0.000 C 
BRANCH  14  15
ATOM     15  C   UNL     1       2.921  -0.692   0.253  0.00  0.00    +0.000 A 
ATOM     16  C   UNL     1       3.104   0.167  -0.805  0.00  0.00    +0.000 A 
ATOM     17  C   UNL     1       4.294   0.326  -1.477  0.00  0.00    +0.000 A 
ATOM     18  C   UNL     1       5.382  -0.402  -1.095  0.00  0.00    +0.000 A 
ATOM     19  C   UNL     1       5.272  -1.278  -0.049  0.00  0.00    +0.000 A 
ATOM     20  C   UNL     1       4.073  -1.419   0.608  0.00  0.00    +0.000 A 
ENDBRANCH  14  15
ENDBRANCH   2  13
TORSDOF 3
