REMARK  Name = 
REMARK  5 active torsions:
REMARK  status: ('A' for Active; 'I' for Inactive)
REMARK    1  A    between atoms: C_2  and  C_4
REMARK    2  A    between atoms: C_9  and  N_10
REMARK    3  A    between atoms: C_11  and  C_13
REMARK    4  A    between atoms: C_13  and  C_14
REMARK    5  A    between atoms: C_14  and  C_15
REMARK                            x       y       z     vdW  Elec       q    Type
REMARK                         _______ _______ _______ _____ _____    ______ ____
ROOT
ATOM      1  N   UNL     1      -0.841   0.213   0.996  0.00  0.00    +0.000 NA
ATOM      2  C   UNL     1       0.326  -0.508   0.636  0.00  0.00    +0.000 C 
ATOM      3  O   UNL     1       0.233  -1.356  -0.282  0.00  0.00    +0.000 OA
ENDROOT
BRANCH   1   9
ATOM      4  C   UNL     1      -3.197   0.690   0.697  0.00  0.00    +0.000 A 
ATOM      5  C   UNL     1      -4.397   0.477   0.068  0.00  0.00    +0.000 A 
ATOM      6  C   UNL     1      -4.491  -0.456  -0.940  0.00  0.00    +0.000 A 
ATOM      7  C   UNL     1      -3.390  -1.195  -1.340  0.00  0.00    +0.000 A 
ATOM      8  C   UNL     1      -2.209  -0.946  -0.680  0.00  0.00    +0.000 A 
ATOM      9  C   UNL     1      -2.071  -0.025   0.330  0.00  0.00    +0.000 A 
BRANCH   4  11
ATOM     10  N   UNL     1      -4.290   2.410   2.126  0.00  0.00    +0.000 NA
ATOM     11  C   UNL     1      -3.134   1.686   1.760  0.00  0.00    +0.000 C 
ATOM     12  O   UNL     1      -2.060   1.928   2.377  0.00  0.00    +0.000 OA
ENDBRANCH   4  11
ENDBRANCH   1   9
BRANCH   2  13
ATOM     13  C   UNL     1       1.576  -0.208   1.373  0.00  0.00    +0.000 C 
BRANCH  13  14
ATOM     14  C   UNL     1       2.708  -1.080   0.844  0.00  0.00    +0.000 C 
BRANCH  14  15
ATOM     15  C   UNL     1       2.845  -0.733  -0.635  0.00  0.00    +0.000 C 
ATOM     16  C   UNL     1       3.171   0.750  -0.690  0.00  0.00    +0.000 C 
ATOM     17  C   UNL     1       4.500   0.916   0.052  0.00  0.00    +0.000 C 
ATOM     18  C   UNL     1       5.548   0.246  -0.839  0.00  0.00    +0.000 C 
ATOM     19  C   UNL     1       5.289  -1.237  -0.915  0.00  0.00    +0.000 C 
ATOM     20  C   UNL     1       3.884  -1.572  -1.319  0.00  0.00    +0.000 C 
ENDBRANCH  14  15
ENDBRANCH  13  14
ENDBRANCH   2  13
TORSDOF 5
