REMARK  Name = 
REMARK  5 active torsions:
REMARK  status: ('A' for Active; 'I' for Inactive)
REMARK    1  A    between atoms: C_2  and  C_3
REMARK    2  A    between atoms: C_3  and  C_6
REMARK    3  A    between atoms: C_9  and  O_10
REMARK    4  A    between atoms: O_10  and  C_11
REMARK    5  A    between atoms: C_11  and  N_12
REMARK                            x       y       z     vdW  Elec       q    Type
REMARK                         _______ _______ _______ _____ _____    ______ ____
ROOT
ATOM      1  C   UNL     1       2.251   0.086  -0.121  0.00  0.00    +0.000 A 
ATOM      2  C   UNL     1       2.109  -0.654  -1.287  0.00  0.00    +0.000 A 
ATOM      3  C   UNL     1       0.957  -1.319  -1.594  0.00  0.00    +0.000 A 
ATOM      4  C   UNL     1      -0.139  -1.275  -0.722  0.00  0.00    +0.000 A 
ATOM      5  C   UNL     1       0.019  -0.547   0.419  0.00  0.00    +0.000 A 
ATOM      6  C   UNL     1       1.190   0.129   0.724  0.00  0.00    +0.000 A 
ENDROOT
BRANCH   1   7
ATOM      7  C   UNL     1       3.504   0.804   0.169  0.00  0.00    +0.000 C 
ATOM      8  C   UNL     1       3.305   2.117   0.896  0.00  0.00    +0.000 C 
ATOM      9  C   UNL     1       4.232   1.045  -1.143  0.00  0.00    +0.000 C 
BRANCH   7  11
ATOM     10  C   UNL     1       3.815  -0.309   2.353  0.00  0.00    +0.000 C 
ATOM     11  C   UNL     1       4.438  -0.068   1.016  0.00  0.00    +0.000 C 
ENDBRANCH   7  11
ENDBRANCH   1   7
BRANCH   4  12
ATOM     12  O   UNL     1      -1.269  -1.957  -1.084  0.00  0.00    +0.000 OA
BRANCH  12  13
ATOM     13  C   UNL     1      -2.472  -2.041  -0.354  0.00  0.00    +0.000 C 
BRANCH  13  14
ATOM     14  N   UNL     1      -3.021  -0.708  -0.131  0.00  0.00    +0.000 N 
ATOM     15  C   UNL     1      -2.799   0.055   0.947  0.00  0.00    +0.000 A 
ATOM     16  C   UNL     1      -3.439   1.263   0.799  0.00  0.00    +0.000 A 
ATOM     17  C   UNL     1      -4.061   1.169  -0.446  0.00  0.00    +0.000 A 
ATOM     18  N   UNL     1      -4.833   2.231  -0.996  0.00  0.00    +0.000 NA
ATOM     19  N   UNL     1      -3.787  -0.023  -0.967  0.00  0.00    +0.000 NA
ENDBRANCH  13  14
ENDBRANCH  12  13
ENDBRANCH   4  12
TORSDOF 5
