REMARK  Name = 
REMARK  4 active torsions:
REMARK  status: ('A' for Active; 'I' for Inactive)
REMARK    1  A    between atoms: C_5  and  C_6
REMARK    2  A    between atoms: C_6  and  C_7
REMARK    3  A    between atoms: C_6  and  C_9
REMARK    4  A    between atoms: C_6  and  C_11
REMARK                            x       y       z     vdW  Elec       q    Type
REMARK                         _______ _______ _______ _____ _____    ______ ____
ROOT
ATOM      1  C   UNL     1      -0.272   1.385   0.043  0.00  0.00    +0.000 C 
ENDROOT
BRANCH   1   6
ATOM      2  C   UNL     1       4.812  -1.197  -1.105  0.00  0.00    +0.000 C 
ATOM      3  C   UNL     1       3.512  -0.538  -0.799  0.00  0.00    +0.000 A 
ATOM      4  C   UNL     1       2.788   0.109  -1.790  0.00  0.00    +0.000 A 
ATOM      5  C   UNL     1       1.584   0.718  -1.508  0.00  0.00    +0.000 A 
ATOM      6  C   UNL     1       1.042   0.716  -0.233  0.00  0.00    +0.000 A 
ATOM      7  C   UNL     1       1.760   0.073   0.754  0.00  0.00    +0.000 A 
ATOM      8  C   UNL     1       2.963  -0.535   0.470  0.00  0.00    +0.000 A 
ENDBRANCH   1   6
BRANCH   1   9
ATOM      9  C   UNL     1      -1.264   0.360   0.392  0.00  0.00    +0.000 A 
ATOM     10  C   UNL     1      -1.861   0.370   1.624  0.00  0.00    +0.000 A 
ATOM     11  C   UNL     1      -2.806  -0.597   1.986  0.00  0.00    +0.000 A 
ATOM     12  C   UNL     1      -3.109  -1.565   1.046  0.00  0.00    +0.000 A 
ATOM     13  C   UNL     1      -4.102  -2.614   1.372  0.00  0.00    +0.000 C 
ATOM     14  C   UNL     1      -2.530  -1.608  -0.201  0.00  0.00    +0.000 A 
ATOM     15  C   UNL     1      -1.600  -0.621  -0.502  0.00  0.00    +0.000 A 
ENDBRANCH   1   9
BRANCH   1  16
ATOM     16  C   UNL     1      -0.121   2.430   1.128  0.00  0.00    +0.000 C 
ATOM     17  O   UNL     1       0.782   3.417   0.780  0.00  0.00    +0.000 OA
ENDBRANCH   1  16
BRANCH   1  18
ATOM     18  C   UNL     1      -0.725   2.064  -1.240  0.00  0.00    +0.000 C 
ATOM     19  O   UNL     1      -0.854   1.050  -2.218  0.00  0.00    +0.000 OA
ENDBRANCH   1  18
TORSDOF 4
