REMARK  Name = 
REMARK  3 active torsions:
REMARK  status: ('A' for Active; 'I' for Inactive)
REMARK    1  A    between atoms: C_2  and  O_3
REMARK    2  A    between atoms: O_3  and  C_4
REMARK    3  A    between atoms: C_7  and  C_8
REMARK                            x       y       z     vdW  Elec       q    Type
REMARK                         _______ _______ _______ _____ _____    ______ ____
ROOT
ATOM      1  C   UNL     1      -0.224   0.068  -0.207  0.00  0.00    +0.000 A 
ATOM      2  C   UNL     1      -1.026   0.796  -1.045  0.00  0.00    +0.000 A 
ATOM      3  C   UNL     1      -2.339   0.677  -0.634  0.00  0.00    +0.000 A 
ATOM      4  C   UNL     1      -3.545   1.198  -1.114  0.00  0.00    +0.000 A 
ATOM      5  C   UNL     1      -4.729   0.893  -0.473  0.00  0.00    +0.000 A 
ATOM      6  C   UNL     1      -6.044   1.413  -0.932  0.00  0.00    +0.000 C 
ATOM      7  N   UNL     1      -4.674   0.093   0.604  0.00  0.00    +0.000 NA
ATOM      8  C   UNL     1      -3.496  -0.406   1.060  0.00  0.00    +0.000 A 
ATOM      9  O   UNL     1      -3.443  -1.156   2.070  0.00  0.00    +0.000 OA
ATOM     10  N   UNL     1      -2.329  -0.120   0.448  0.00  0.00    +0.000 N 
ATOM     11  C   UNL     1      -1.060  -0.500   0.725  0.00  0.00    +0.000 A 
ENDROOT
BRANCH   1  15
ATOM     12  C   UNL     1       4.011  -0.479  -0.243  0.00  0.00    +0.000 A 
ATOM     13  C   UNL     1       3.270  -0.484   0.919  0.00  0.00    +0.000 A 
ATOM     14  C   UNL     1       1.909  -0.310   0.951  0.00  0.00    +0.000 A 
ATOM     15  C   UNL     1       1.221  -0.118  -0.229  0.00  0.00    +0.000 A 
ATOM     16  C   UNL     1       1.948  -0.109  -1.411  0.00  0.00    +0.000 A 
ATOM     17  C   UNL     1       3.314  -0.286  -1.420  0.00  0.00    +0.000 A 
BRANCH  12  18
ATOM     18  O   UNL     1       5.402  -0.659  -0.245  0.00  0.00    +0.000 OA
BRANCH  18  20
ATOM     19  C   UNL     1       5.796   0.342   1.878  0.00  0.00    +0.000 C 
ATOM     20  C   UNL     1       6.038  -0.851   1.005  0.00  0.00    +0.000 C 
ENDBRANCH  18  20
ENDBRANCH  12  18
ENDBRANCH   1  15
TORSDOF 3
