REMARK  Name = 
REMARK  2 active torsions:
REMARK  status: ('A' for Active; 'I' for Inactive)
REMARK    1  A    between atoms: C_6  and  C_7
REMARK    2  A    between atoms: C_7  and  C_8
REMARK                            x       y       z     vdW  Elec       q    Type
REMARK                         _______ _______ _______ _____ _____    ______ ____
ROOT
ATOM      1  C   UNL     1       1.564   0.958  -0.718  0.00  0.00    +0.000 C 
ATOM      2  C   UNL     1       0.811   0.971  -2.218  0.00  0.00    +0.000 C 
ATOM      3  C   UNL     1      -0.319   1.967  -2.053  0.00  0.00    +0.000 C 
ATOM      4  C   UNL     1      -1.387   1.263  -1.275  0.00  0.00    +0.000 A 
ATOM      5  N   UNL     1      -2.704   1.316  -1.298  0.00  0.00    +0.000 NA
ATOM      6  C   UNL     1      -3.171   0.443  -0.358  0.00  0.00    +0.000 A 
ATOM      7  C   UNL     1      -4.436   0.087   0.052  0.00  0.00    +0.000 A 
ATOM      8  F   UNL     1      -5.484   0.682  -0.553  0.00  0.00    +0.000 F 
ATOM      9  C   UNL     1      -4.677  -0.840   1.044  0.00  0.00    +0.000 A 
ATOM     10  C   UNL     1      -3.607  -1.442   1.657  0.00  0.00    +0.000 A 
ATOM     11  C   UNL     1      -2.333  -1.094   1.254  0.00  0.00    +0.000 A 
ATOM     12  C   UNL     1      -2.092  -0.166   0.261  0.00  0.00    +0.000 A 
ATOM     13  C   UNL     1      -0.957   0.360  -0.327  0.00  0.00    +0.000 A 
ATOM     14  C   UNL     1       0.417   0.068  -0.048  0.00  0.00    +0.000 C 
ATOM     15  O   UNL     1       0.739  -0.851   0.697  0.00  0.00    +0.000 OA
ENDROOT
BRANCH   1  16
ATOM     16  C   UNL     1       2.500  -0.323  -1.129  0.00  0.00    +0.000 C 
BRANCH  16  22
ATOM     17  C   UNL     1       5.011   1.272  -0.148  0.00  0.00    +0.000 C 
ATOM     18  C   UNL     1       4.485   0.031   0.476  0.00  0.00    +0.000 A 
ATOM     19  N   UNL     1       4.928  -0.663   1.529  0.00  0.00    +0.000 NA
ATOM     20  C   UNL     1       4.147  -1.717   1.739  0.00  0.00    +0.000 A 
ATOM     21  N   UNL     1       3.196  -1.691   0.806  0.00  0.00    +0.000 NA
ATOM     22  C   UNL     1       3.367  -0.631   0.007  0.00  0.00    +0.000 A 
ENDBRANCH  16  22
ENDBRANCH   1  16
TORSDOF 2
