REMARK  Name = 
REMARK  5 active torsions:
REMARK  status: ('A' for Active; 'I' for Inactive)
REMARK    1  A    between atoms: C_2  and  N_3
REMARK    2  A    between atoms: C_2  and  C_12
REMARK    3  A    between atoms: N_3  and  N_4
REMARK    4  A    between atoms: C_5  and  O_7
REMARK    5  A    between atoms: O_7  and  C_8
REMARK                            x       y       z     vdW  Elec       q    Type
REMARK                         _______ _______ _______ _____ _____    ______ ____
ROOT
ATOM      1  C   UNL     1      -0.620   1.620  -1.169  0.00  0.00    +0.000 C 
ATOM      2  C   UNL     1      -1.029   1.059  -0.043  0.00  0.00    +0.000 C 
ENDROOT
BRANCH   2   3
ATOM      3  C   UNL     1      -2.323   0.398  -0.057  0.00  0.00    +0.000 A 
ATOM      4  C   UNL     1      -3.051   0.304  -1.210  0.00  0.00    +0.000 A 
ATOM      5  C   UNL     1      -4.296  -0.316  -1.265  0.00  0.00    +0.000 A 
ATOM      6  C   UNL     1      -4.826  -0.860  -0.116  0.00  0.00    +0.000 A 
ATOM      7  C   UNL     1      -4.104  -0.774   1.060  0.00  0.00    +0.000 A 
ATOM      8  C   UNL     1      -2.865  -0.153   1.091  0.00  0.00    +0.000 A 
ATOM      9 CL   UNL     1      -1.940  -0.030   2.568  0.00  0.00    +0.000 Cl
ENDBRANCH   2   3
BRANCH   2  10
ATOM     10  N   UNL     1      -0.194   1.142   1.072  0.00  0.00    +0.000 NA
BRANCH  10  11
ATOM     11  N   UNL     1       1.126   0.847   1.215  0.00  0.00    +0.000 NA
ATOM     12  C   UNL     1       1.965   0.224   0.261  0.00  0.00    +0.000 C 
ATOM     13  O   UNL     1       1.467  -0.101  -0.837  0.00  0.00    +0.000 OA
BRANCH  12  14
ATOM     14  O   UNL     1       3.326  -0.024   0.541  0.00  0.00    +0.000 OA
BRANCH  14  15
ATOM     15  C   UNL     1       4.104  -0.647  -0.463  0.00  0.00    +0.000 C 
ATOM     16  C   UNL     1       3.495  -1.978  -0.772  0.00  0.00    +0.000 C 
ATOM     17  C   UNL     1       5.477  -0.923   0.163  0.00  0.00    +0.000 C 
ATOM     18  C   UNL     1       4.288   0.212  -1.678  0.00  0.00    +0.000 C 
ENDBRANCH  14  15
ENDBRANCH  12  14
ENDBRANCH  10  11
ENDBRANCH   2  10
TORSDOF 5
