REMARK  Name = 
REMARK  4 active torsions:
REMARK  status: ('A' for Active; 'I' for Inactive)
REMARK    1  A    between atoms: C_4  and  N_5
REMARK    2  A    between atoms: C_4  and  C_16
REMARK    3  A    between atoms: N_5  and  N_6
REMARK    4  A    between atoms: C_7  and  C_9
REMARK                            x       y       z     vdW  Elec       q    Type
REMARK                         _______ _______ _______ _____ _____    ______ ____
ROOT
ATOM      1  N   UNL     1       0.177  -0.451   0.246  0.00  0.00    +0.000 NA
ATOM      2  C   UNL     1      -1.013  -0.523  -0.544  0.00  0.00    +0.000 C 
ATOM      3  O   UNL     1      -0.830  -0.855  -1.770  0.00  0.00    +0.000 OA
ENDROOT
BRANCH   2   4
ATOM      4  C   UNL     1      -2.353  -0.261  -0.096  0.00  0.00    +0.000 A 
ATOM      5  C   UNL     1      -3.213  -1.221   0.391  0.00  0.00    +0.000 A 
ATOM      6  C   UNL     1      -4.501  -0.986   0.791  0.00  0.00    +0.000 A 
ATOM      7  C   UNL     1      -5.014   0.298   0.716  0.00  0.00    +0.000 A 
ATOM      8  C   UNL     1      -4.180   1.282   0.234  0.00  0.00    +0.000 A 
ATOM      9  C   UNL     1      -2.886   1.020  -0.163  0.00  0.00    +0.000 A 
ATOM     10 CL   UNL     1      -1.811   2.290  -0.772  0.00  0.00    +0.000 Cl
ENDBRANCH   2   4
BRANCH   1  11
ATOM     11  N   UNL     1       1.405  -0.731  -0.335  0.00  0.00    +0.000 NA
BRANCH  11  15
ATOM     12  C   UNL     1       1.702   1.894   0.396  0.00  0.00    +0.000 C 
ATOM     13  C   UNL     1       2.842   0.962   0.449  0.00  0.00    +0.000 C 
ATOM     14  C   UNL     1       4.156   1.487   0.903  0.00  0.00    +0.000 C 
ATOM     15  C   UNL     1       2.663  -0.304   0.088  0.00  0.00    +0.000 C 
BRANCH  15  16
ATOM     16  C   UNL     1       3.787  -1.256   0.112  0.00  0.00    +0.000 C 
ATOM     17  C   UNL     1       3.989  -2.008  -1.166  0.00  0.00    +0.000 C 
ATOM     18  C   UNL     1       5.081  -0.638   0.551  0.00  0.00    +0.000 C 
ENDBRANCH  15  16
ENDBRANCH  11  15
ENDBRANCH   1  11
TORSDOF 4
