REMARK  Name = 
REMARK  3 active torsions:
REMARK  status: ('A' for Active; 'I' for Inactive)
REMARK    1  A    between atoms: C_7  and  O_8
REMARK    2  A    between atoms: O_8  and  C_9
REMARK    3  A    between atoms: C_14  and  N_15
REMARK                            x       y       z     vdW  Elec       q    Type
REMARK                         _______ _______ _______ _____ _____    ______ ____
ROOT
ATOM      1  C   UNL     1      -0.608   0.466  -0.939  0.00  0.00    +0.000 A 
ATOM      2  C   UNL     1      -0.713   1.809  -0.770  0.00  0.00    +0.000 A 
ATOM      3  C   UNL     1      -1.841   2.343  -0.189  0.00  0.00    +0.000 A 
ATOM      4  N   UNL     1      -1.991   3.761   0.007  0.00  0.00    +0.000 NA
ATOM      5  C   UNL     1      -2.849   1.503   0.215  0.00  0.00    +0.000 A 
ATOM      6  C   UNL     1      -2.742   0.138   0.043  0.00  0.00    +0.000 A 
ATOM      7  C   UNL     1      -1.611  -0.368  -0.537  0.00  0.00    +0.000 A 
ENDROOT
BRANCH   6   8
ATOM      8  N   UNL     1      -3.764  -0.753   0.449  0.00  0.00    +0.000 N 
ATOM      9  O   UNL     1      -3.627  -1.965   0.277  0.00  0.00    +0.000 OA
ATOM     10  O   UNL     1      -4.891  -0.254   1.027  0.00  0.00    +0.000 OA
ENDBRANCH   6   8
BRANCH   1  11
ATOM     11  O   UNL     1       0.563  -0.048  -1.539  0.00  0.00    +0.000 OA
BRANCH  11  18
ATOM     12  C   UNL     1       5.092  -1.780  -1.203  0.00  0.00    +0.000 C 
ATOM     13  C   UNL     1       3.853  -1.237  -0.585  0.00  0.00    +0.000 A 
ATOM     14  C   UNL     1       3.792  -1.081   0.792  0.00  0.00    +0.000 A 
ATOM     15  C   UNL     1       2.670  -0.585   1.412  0.00  0.00    +0.000 A 
ATOM     16  C   UNL     1       2.725  -0.463   2.899  0.00  0.00    +0.000 C 
ATOM     17  C   UNL     1       1.565  -0.225   0.675  0.00  0.00    +0.000 A 
ATOM     18  C   UNL     1       1.619  -0.379  -0.699  0.00  0.00    +0.000 A 
ATOM     19  C   UNL     1       2.757  -0.883  -1.336  0.00  0.00    +0.000 A 
ENDBRANCH  11  18
ENDBRANCH   1  11
TORSDOF 3
