REMARK  Name = 
REMARK  2 active torsions:
REMARK  status: ('A' for Active; 'I' for Inactive)
REMARK    1  A    between atoms: N_2  and  C_4
REMARK    2  A    between atoms: C_7  and  C_8
REMARK                            x       y       z     vdW  Elec       q    Type
REMARK                         _______ _______ _______ _____ _____    ______ ____
ROOT
ATOM      1  C   UNL     1      -0.819  -0.556   0.571  0.00  0.00    +0.000 A 
ATOM      2  N   UNL     1      -1.334  -1.339   1.568  0.00  0.00    +0.000 NA
ATOM      3  N   UNL     1      -2.635  -1.132   1.686  0.00  0.00    +0.000 NA
ATOM      4  C   UNL     1      -2.963  -0.209   0.756  0.00  0.00    +0.000 A 
ATOM      5  C   UNL     1      -1.849   0.180   0.032  0.00  0.00    +0.000 A 
ATOM      6  C   UNL     1      -1.636   1.115  -1.067  0.00  0.00    +0.000 C 
ATOM      7  C   UNL     1      -2.642   2.177  -1.262  0.00  0.00    +0.000 C 
ATOM      8  C   UNL     1      -4.061   1.720  -1.317  0.00  0.00    +0.000 C 
ATOM      9  C   UNL     1      -4.623   1.644   0.086  0.00  0.00    +0.000 C 
ATOM     10  N   UNL     1      -4.312   0.295   0.584  0.00  0.00    +0.000 NA
ENDROOT
BRANCH   1  14
ATOM     11  C   UNL     1       3.260  -0.416  -0.609  0.00  0.00    +0.000 A 
ATOM     12  C   UNL     1       2.833  -1.218   0.430  0.00  0.00    +0.000 A 
ATOM     13  C   UNL     1       1.519  -1.292   0.844  0.00  0.00    +0.000 A 
ATOM     14  C   UNL     1       0.581  -0.539   0.201  0.00  0.00    +0.000 A 
ATOM     15  C   UNL     1       0.988   0.276  -0.851  0.00  0.00    +0.000 A 
ATOM     16  C   UNL     1       2.312   0.343  -1.258  0.00  0.00    +0.000 A 
BRANCH  11  18
ATOM     17  C   UNL     1       5.233  -1.397  -1.811  0.00  0.00    +0.000 C 
ATOM     18  N   UNL     1       4.640  -0.372  -0.986  0.00  0.00    +0.000 N 
ATOM     19  C   UNL     1       5.509   0.719  -0.554  0.00  0.00    +0.000 C 
ENDBRANCH  11  18
ENDBRANCH   1  14
TORSDOF 2
