REMARK  Name = 
REMARK  6 active torsions:
REMARK  status: ('A' for Active; 'I' for Inactive)
REMARK    1  A    between atoms: C_2  and  N_3
REMARK    2  A    between atoms: C_2  and  C_15
REMARK    3  A    between atoms: N_3  and  C_4
REMARK    4  A    between atoms: C_4  and  N_6
REMARK    5  A    between atoms: N_6  and  C_7
REMARK    6  A    between atoms: C_10  and  C_11
REMARK                            x       y       z     vdW  Elec       q    Type
REMARK                         _______ _______ _______ _____ _____    ______ ____
ROOT
ATOM      1  C   UNL     1       0.976  -1.658   0.503  0.00  0.00    +0.000 C 
ATOM      2  S   UNL     1       2.102  -2.779   0.816  0.00  0.00    +0.000 S 
ENDROOT
BRANCH   1   3
ATOM      3  N   UNL     1       0.987  -0.444   1.211  0.00  0.00    +0.000 NA
BRANCH   3   5
ATOM      4  C   UNL     1       1.499   1.255   2.728  0.00  0.00    +0.000 C 
ATOM      5  C   UNL     1       2.105  -0.224   2.274  0.00  0.00    +0.000 C 
BRANCH   5   6
ATOM      6  C   UNL     1       3.191   0.465   1.246  0.00  0.00    +0.000 C 
ATOM      7  C   UNL     1       4.043   1.358   2.164  0.00  0.00    +0.000 C 
ATOM      8  C   UNL     1       2.500   1.308   0.291  0.00  0.00    +0.000 C 
ATOM      9  C   UNL     1       4.085  -0.594   0.743  0.00  0.00    +0.000 C 
ENDBRANCH   5   6
ENDBRANCH   3   5
ENDBRANCH   1   3
BRANCH   1  10
ATOM     10  N   UNL     1      -0.007  -1.905  -0.466  0.00  0.00    +0.000 NA
BRANCH  10  11
ATOM     11  C   UNL     1      -1.039  -1.006  -0.818  0.00  0.00    +0.000 A 
ATOM     12  C   UNL     1      -1.170   0.224  -0.220  0.00  0.00    +0.000 A 
ATOM     13  C   UNL     1      -2.158   1.136  -0.527  0.00  0.00    +0.000 A 
ATOM     14  C   UNL     1      -3.061   0.763  -1.501  0.00  0.00    +0.000 A 
ATOM     15  C   UNL     1      -2.953  -0.466  -2.119  0.00  0.00    +0.000 A 
ATOM     16  C   UNL     1      -1.950  -1.354  -1.786  0.00  0.00    +0.000 A 
BRANCH  14  17
ATOM     17  C   UNL     1      -4.135   1.611  -1.918  0.00  0.00    +0.000 C 
ATOM     18  N   UNL     1      -5.015   2.308  -2.260  0.00  0.00    +0.000 NA
ENDBRANCH  14  17
ENDBRANCH  10  11
ENDBRANCH   1  10
TORSDOF 6
