REMARK  Name = 
REMARK  2 active torsions:
REMARK  status: ('A' for Active; 'I' for Inactive)
REMARK    1  A    between atoms: C_5  and  C_6
REMARK    2  A    between atoms: N_11  and  C_12
REMARK                            x       y       z     vdW  Elec       q    Type
REMARK                         _______ _______ _______ _____ _____    ______ ____
ROOT
ATOM      1  C   UNL     1      -0.705   1.032  -0.792  0.00  0.00    +0.000 A 
ATOM      2  C   UNL     1      -1.254   1.942  -1.670  0.00  0.00    +0.000 A 
ATOM      3  O   UNL     1      -2.584   1.995  -2.065  0.00  0.00    +0.000 OA
ATOM      4  O   UNL     1      -0.296   2.768  -2.082  0.00  0.00    +0.000 OA
ATOM      5  N   UNL     1       0.809   2.407  -1.498  0.00  0.00    +0.000 NA
ATOM      6  N   UNL     1       0.594   1.351  -0.705  0.00  0.00    +0.000 N 
ENDROOT
BRANCH   1  11
ATOM      7  C   UNL     1      -3.457  -3.252   1.929  0.00  0.00    +0.000 C 
ATOM      8  C   UNL     1      -2.744  -2.147   1.228  0.00  0.00    +0.000 A 
ATOM      9  C   UNL     1      -3.406  -1.295   0.366  0.00  0.00    +0.000 A 
ATOM     10  C   UNL     1      -2.752  -0.269  -0.286  0.00  0.00    +0.000 A 
ATOM     11  C   UNL     1      -1.401  -0.053  -0.103  0.00  0.00    +0.000 A 
ATOM     12  C   UNL     1      -0.742  -0.906   0.758  0.00  0.00    +0.000 A 
ATOM     13  C   UNL     1      -1.396  -1.931   1.411  0.00  0.00    +0.000 A 
ENDBRANCH   1  11
BRANCH   6  14
ATOM     14  C   UNL     1       1.543   0.657   0.104  0.00  0.00    +0.000 A 
ATOM     15  C   UNL     1       2.517  -0.158  -0.464  0.00  0.00    +0.000 A 
ATOM     16  C   UNL     1       3.445  -0.838   0.298  0.00  0.00    +0.000 A 
ATOM     17  C   UNL     1       3.433  -0.726   1.673  0.00  0.00    +0.000 A 
ATOM     18  C   UNL     1       4.386  -1.418   2.552  0.00  0.00    +0.000 C 
ATOM     19  C   UNL     1       2.465   0.085   2.256  0.00  0.00    +0.000 A 
ATOM     20  C   UNL     1       1.545   0.758   1.480  0.00  0.00    +0.000 A 
ENDBRANCH   6  14
TORSDOF 2
