REMARK  Name = 
REMARK  0 active torsions:
REMARK  status: ('A' for Active; 'I' for Inactive)
REMARK                            x       y       z     vdW  Elec       q    Type
REMARK                         _______ _______ _______ _____ _____    ______ ____
ROOT
ATOM      1  C   UNL     1       0.836   1.156   1.946  0.00  0.00    +0.000 C 
ATOM      2  C   UNL     1       1.177  -0.129   1.149  0.00  0.00    +0.000 C 
ATOM      3  C   UNL     1       2.034  -0.840   1.926  0.00  0.00    +0.000 C 
ATOM      4  C   UNL     1       3.261  -1.052   1.591  0.00  0.00    +0.000 C 
ATOM      5  C   UNL     1       3.890  -0.604   0.364  0.00  0.00    +0.000 C 
ATOM      6  O   UNL     1       5.065  -0.758   0.009  0.00  0.00    +0.000 OA
ATOM      7  C   UNL     1       3.022   0.117  -0.559  0.00  0.00    +0.000 A 
ATOM      8  N   UNL     1       3.126   0.625  -1.792  0.00  0.00    +0.000 NA
ATOM      9  C   UNL     1       1.929   1.088  -2.190  0.00  0.00    +0.000 A 
ATOM     10  C   UNL     1       1.000   0.874  -1.171  0.00  0.00    +0.000 A 
ATOM     11  C   UNL     1       1.762   0.261  -0.167  0.00  0.00    +0.000 A 
ATOM     12  C   UNL     1      -0.462   1.095  -1.078  0.00  0.00    +0.000 C 
ATOM     13  C   UNL     1      -0.716   0.916   0.428  0.00  0.00    +0.000 C 
ATOM     14  C   UNL     1      -0.155  -0.671   0.496  0.00  0.00    +0.000 C 
ATOM     15  C   UNL     1      -1.025  -1.146   1.764  0.00  0.00    +0.000 C 
ATOM     16  C   UNL     1      -2.193  -1.685   0.905  0.00  0.00    +0.000 C 
ATOM     17  C   UNL     1      -2.528  -0.709  -0.155  0.00  0.00    +0.000 C 
ATOM     18  C   UNL     1      -2.100  -0.797  -1.476  0.00  0.00    +0.000 C 
ATOM     19  C   UNL     1      -4.148  -0.579  -0.268  0.00  0.00    +0.000 C 
ATOM     20  O   UNL     1      -4.351  -0.352   1.212  0.00  0.00    +0.000 OA
ATOM     21  C   UNL     1      -4.217   1.005  -0.649  0.00  0.00    +0.000 C 
ATOM     22  C   UNL     1      -2.871   1.523  -0.618  0.00  0.00    +0.000 C 
ATOM     23  C   UNL     1      -2.337   0.662   0.628  0.00  0.00    +0.000 C 
ENDROOT
TORSDOF 0
