REMARK  Name = 
REMARK  4 active torsions:
REMARK  status: ('A' for Active; 'I' for Inactive)
REMARK    1  A    between atoms: C_2  and  C_3
REMARK    2  A    between atoms: C_11  and  C_12
REMARK    3  A    between atoms: N_14  and  C_15
REMARK    4  A    between atoms: C_15  and  C_16
REMARK                            x       y       z     vdW  Elec       q    Type
REMARK                         _______ _______ _______ _____ _____    ______ ____
ROOT
ATOM      1  C   UNL     1      -3.866   1.004   1.599  0.00  0.00    +0.000 C 
ATOM      2  C   UNL     1      -3.353   1.151   0.055  0.00  0.00    +0.000 C 
ATOM      3  C   UNL     1      -1.948   0.912  -0.074  0.00  0.00    +0.000 C 
ATOM      4  C   UNL     1      -1.684  -0.548   0.309  0.00  0.00    +0.000 A 
ATOM      5  C   UNL     1      -2.654  -1.122   1.016  0.00  0.00    +0.000 A 
ATOM      6  S   UNL     1      -2.051  -2.709   1.275  0.00  0.00    +0.000 S 
ATOM      7  C   UNL     1      -0.567  -2.578   0.463  0.00  0.00    +0.000 A 
ATOM      8  N   UNL     1       0.480  -3.567   0.279  0.00  0.00    +0.000 NA
ATOM      9  C   UNL     1      -0.570  -1.286   0.000  0.00  0.00    +0.000 A 
ATOM     10  C   UNL     1      -3.951  -0.621   1.500  0.00  0.00    +0.000 C 
ENDROOT
BRANCH   9  11
ATOM     11  C   UNL     1       0.594  -0.750  -0.792  0.00  0.00    +0.000 C 
ATOM     12  O   UNL     1       1.572  -1.456  -1.043  0.00  0.00    +0.000 OA
ATOM     13  N   UNL     1       0.611   0.580  -1.279  0.00  0.00    +0.000 NA
BRANCH  13  14
ATOM     14  C   UNL     1       1.653   1.178  -2.031  0.00  0.00    +0.000 C 
BRANCH  14  15
ATOM     15  C   UNL     1       2.960   1.206  -1.318  0.00  0.00    +0.000 A 
ATOM     16  C   UNL     1       4.096   1.752  -1.895  0.00  0.00    +0.000 A 
ATOM     17  C   UNL     1       5.123   1.626  -0.996  0.00  0.00    +0.000 A 
ATOM     18  C   UNL     1       4.564   0.996   0.115  0.00  0.00    +0.000 A 
ATOM     19  O   UNL     1       3.299   0.781  -0.145  0.00  0.00    +0.000 OA
ENDBRANCH  14  15
ENDBRANCH  13  14
ENDBRANCH   9  11
BRANCH   1  21
ATOM     20  C   UNL     1      -1.897   2.414   1.908  0.00  0.00    +0.000 C 
ATOM     21  C   UNL     1      -2.410   1.036   2.350  0.00  0.00    +0.000 C 
ENDBRANCH   1  21
TORSDOF 4
