REMARK  Name = 
REMARK  4 active torsions:
REMARK  status: ('A' for Active; 'I' for Inactive)
REMARK    1  A    between atoms: O_2  and  C_3
REMARK    2  A    between atoms: C_3  and  C_5
REMARK    3  A    between atoms: C_10  and  O_11
REMARK    4  A    between atoms: O_11  and  C_12
REMARK                            x       y       z     vdW  Elec       q    Type
REMARK                         _______ _______ _______ _____ _____    ______ ____
ROOT
ATOM      1  C   UNL     1      -2.353  -0.366  -0.118  0.00  0.00    +0.000 A 
ATOM      2  C   UNL     1      -2.635  -1.619  -0.583  0.00  0.00    +0.000 A 
ATOM      3  C   UNL     1      -1.649  -2.424  -1.093  0.00  0.00    +0.000 A 
ATOM      4  C   UNL     1      -2.043  -3.768  -1.575  0.00  0.00    +0.000 C 
ATOM      5  C   UNL     1      -0.388  -1.942  -1.123  0.00  0.00    +0.000 A 
ATOM      6  C   UNL     1      -0.024  -0.636  -0.652  0.00  0.00    +0.000 A 
ATOM      7  C   UNL     1      -1.083   0.110  -0.152  0.00  0.00    +0.000 A 
ATOM      8  C   UNL     1      -0.840   1.505   0.378  0.00  0.00    +0.000 C 
ENDROOT
BRANCH   1   9
ATOM      9  C   UNL     1      -3.432   0.495   0.434  0.00  0.00    +0.000 C 
ATOM     10  O   UNL     1      -4.615   0.120   0.493  0.00  0.00    +0.000 OA
BRANCH   9  12
ATOM     11  C   UNL     1      -4.074   2.647   1.439  0.00  0.00    +0.000 C 
ATOM     12  O   UNL     1      -3.134   1.765   0.904  0.00  0.00    +0.000 OA
ENDBRANCH   9  12
ENDBRANCH   1   9
BRANCH   6  13
ATOM     13  O   UNL     1       1.211  -0.269  -0.725  0.00  0.00    +0.000 OA
BRANCH  13  14
ATOM     14  C   UNL     1       2.442   0.098  -0.797  0.00  0.00    +0.000 A 
ATOM     15  C   UNL     1       3.347  -0.856  -1.357  0.00  0.00    +0.000 A 
ATOM     16  C   UNL     1       4.671  -0.627  -1.503  0.00  0.00    +0.000 A 
ATOM     17  C   UNL     1       5.146   0.594  -1.084  0.00  0.00    +0.000 A 
ATOM     18  C   UNL     1       4.322   1.538  -0.543  0.00  0.00    +0.000 A 
ATOM     19  C   UNL     1       2.981   1.300  -0.397  0.00  0.00    +0.000 A 
ATOM     20  N   UNL     1       2.149   2.336   0.183  0.00  0.00    +0.000 NA
ENDBRANCH  13  14
ENDBRANCH   6  13
TORSDOF 4
