REMARK  Name = 
REMARK  1 active torsions:
REMARK  status: ('A' for Active; 'I' for Inactive)
REMARK    1  A    between atoms: N_5  and  C_6
REMARK                            x       y       z     vdW  Elec       q    Type
REMARK                         _______ _______ _______ _____ _____    ______ ____
ROOT
ATOM      1  C   UNL     1       3.558   2.331   0.000  0.00  0.00    +0.000 C 
ATOM      2  N   UNL     1       2.728   1.156   0.033  0.00  0.00    +0.000 N 
ATOM      3  C   UNL     1       1.299   1.232   0.084  0.00  0.00    +0.000 C 
ATOM      4  O   UNL     1       0.764   2.288   0.506  0.00  0.00    +0.000 OA
ATOM      5  N   UNL     1       0.502   0.122  -0.338  0.00  0.00    +0.000 N 
ATOM      6  C   UNL     1       1.105  -1.207  -0.303  0.00  0.00    +0.000 C 
ATOM      7  C   UNL     1       1.138  -1.736   1.126  0.00  0.00    +0.000 C 
ATOM      8  O   UNL     1       0.408  -2.074  -1.140  0.00  0.00    +0.000 OA
ATOM      9  C   UNL     1       2.523  -1.102  -0.853  0.00  0.00    +0.000 C 
ATOM     10  C   UNL     1       3.308  -0.174   0.014  0.00  0.00    +0.000 C 
ATOM     11  C   UNL     1       3.272  -0.689   1.446  0.00  0.00    +0.000 C 
ATOM     12  C   UNL     1       4.760  -0.116  -0.405  0.00  0.00    +0.000 C 
ENDROOT
BRANCH   5  13
ATOM     13  C   UNL     1      -0.819   0.359  -0.768  0.00  0.00    +0.000 A 
ATOM     14  C   UNL     1      -1.086   1.088  -1.930  0.00  0.00    +0.000 A 
ATOM     15  C   UNL     1      -2.347   1.334  -2.371  0.00  0.00    +0.000 A 
ATOM     16  C   UNL     1      -3.398   0.846  -1.645  0.00  0.00    +0.000 A 
ATOM     17  C   UNL     1      -3.183   0.109  -0.472  0.00  0.00    +0.000 A 
ATOM     18  C   UNL     1      -4.232  -0.377   0.252  0.00  0.00    +0.000 A 
ATOM     19  C   UNL     1      -4.020  -1.099   1.401  0.00  0.00    +0.000 A 
ATOM     20  C   UNL     1      -2.733  -1.329   1.817  0.00  0.00    +0.000 A 
ATOM     21  C   UNL     1      -1.663  -0.848   1.102  0.00  0.00    +0.000 A 
ATOM     22  C   UNL     1      -1.885  -0.116  -0.062  0.00  0.00    +0.000 A 
ENDBRANCH   5  13
TORSDOF 1
