REMARK  Name = 
REMARK  5 active torsions:
REMARK  status: ('A' for Active; 'I' for Inactive)
REMARK    1  A    between atoms: C_2  and  O_3
REMARK    2  A    between atoms: O_3  and  C_4
REMARK    3  A    between atoms: C_7  and  C_8
REMARK    4  A    between atoms: C_15  and  C_16
REMARK    5  A    between atoms: C_16  and  C_18
REMARK                            x       y       z     vdW  Elec       q    Type
REMARK                         _______ _______ _______ _____ _____    ______ ____
ROOT
ATOM      1  C   UNL     1      -1.776  -0.768   0.675  0.00  0.00    +0.000 A 
ATOM      2  C   UNL     1      -0.839  -1.026   1.637  0.00  0.00    +0.000 A 
ATOM      3  C   UNL     1       0.484  -0.752   1.374  0.00  0.00    +0.000 A 
ATOM      4  C   UNL     1       0.876  -0.222   0.157  0.00  0.00    +0.000 A 
ATOM      5  C   UNL     1      -0.082   0.036  -0.813  0.00  0.00    +0.000 A 
ATOM      6  C   UNL     1      -1.358  -0.237  -0.534  0.00  0.00    +0.000 A 
ENDROOT
BRANCH   4   7
ATOM      7  C   UNL     1       2.274   0.067  -0.138  0.00  0.00    +0.000 A 
ATOM      8  C   UNL     1       2.871   0.593  -1.248  0.00  0.00    +0.000 A 
ATOM      9  C   UNL     1       4.236   0.666  -1.021  0.00  0.00    +0.000 A 
ATOM     10  N   UNL     1       5.269   1.138  -1.874  0.00  0.00    +0.000 NA
ATOM     11  O   UNL     1       4.425   0.205   0.165  0.00  0.00    +0.000 OA
ATOM     12  N   UNL     1       3.293  -0.167   0.741  0.00  0.00    +0.000 NA
ENDBRANCH   4   7
BRANCH   6  13
ATOM     13  C   UNL     1      -2.540   0.036  -1.573  0.00  0.00    +0.000 C 
ATOM     14  C   UNL     1      -1.583   0.338  -2.866  0.00  0.00    +0.000 C 
BRANCH  13  15
ATOM     15  C   UNL     1      -2.670   1.655  -1.192  0.00  0.00    +0.000 C 
ATOM     16  C   UNL     1      -3.006   1.621   0.264  0.00  0.00    +0.000 C 
ENDBRANCH  13  15
ENDBRANCH   6  13
BRANCH   1  17
ATOM     17  O   UNL     1      -3.114  -1.033   0.909  0.00  0.00    +0.000 OA
BRANCH  17  19
ATOM     18  C   UNL     1      -3.183  -0.577   3.208  0.00  0.00    +0.000 C 
ATOM     19  C   UNL     1      -3.579  -1.574   2.129  0.00  0.00    +0.000 C 
ENDBRANCH  17  19
ENDBRANCH   1  17
TORSDOF 5
