REMARK  Name = 
REMARK  3 active torsions:
REMARK  status: ('A' for Active; 'I' for Inactive)
REMARK    1  A    between atoms: O_2  and  C_3
REMARK    2  A    between atoms: C_6  and  C_7
REMARK    3  A    between atoms: C_8  and  C_9
REMARK                            x       y       z     vdW  Elec       q    Type
REMARK                         _______ _______ _______ _____ _____    ______ ____
ROOT
ATOM      1  C   UNL     1      -0.518   0.668   1.137  0.00  0.00    +0.000 C 
ATOM      2  C   UNL     1      -0.842   1.743   0.073  0.00  0.00    +0.000 C 
ATOM      3  C   UNL     1      -1.677   1.625  -0.875  0.00  0.00    +0.000 C 
ATOM      4  N   UNL     1      -1.887   2.707  -1.806  0.00  0.00    +0.000 NA
ATOM      5  O   UNL     1      -2.403   0.501  -1.064  0.00  0.00    +0.000 OA
ATOM      6  C   UNL     1      -2.253  -0.562  -0.220  0.00  0.00    +0.000 C 
ATOM      7  C   UNL     1      -1.423  -0.496   0.755  0.00  0.00    +0.000 C 
ATOM      8  C   UNL     1      -1.294  -1.667   1.642  0.00  0.00    +0.000 C 
ATOM      9  C   UNL     1      -2.695  -2.044   2.068  0.00  0.00    +0.000 C 
ATOM     10  C   UNL     1      -3.656  -2.164   0.924  0.00  0.00    +0.000 C 
ATOM     11  C   UNL     1      -3.071  -1.835  -0.428  0.00  0.00    +0.000 C 
ENDROOT
BRANCH   1  15
ATOM     12  C   UNL     1       3.135  -1.047  -0.497  0.00  0.00    +0.000 A 
ATOM     13  C   UNL     1       2.322  -1.767   0.346  0.00  0.00    +0.000 A 
ATOM     14  C   UNL     1       1.150  -1.190   0.858  0.00  0.00    +0.000 A 
ATOM     15  C   UNL     1       0.811   0.099   0.516  0.00  0.00    +0.000 A 
ATOM     16  C   UNL     1       1.607   0.790  -0.302  0.00  0.00    +0.000 A 
ATOM     17  C   UNL     1       2.783   0.234  -0.826  0.00  0.00    +0.000 A 
BRANCH  12  19
ATOM     18  C   UNL     1       5.159  -0.884  -1.886  0.00  0.00    +0.000 C 
ATOM     19  O   UNL     1       4.311  -1.585  -1.028  0.00  0.00    +0.000 OA
ENDBRANCH  12  19
ENDBRANCH   1  15
BRANCH   2  20
ATOM     20  C   UNL     1      -0.091   2.940   0.246  0.00  0.00    +0.000 C 
ATOM     21  N   UNL     1       0.533   3.933   0.369  0.00  0.00    +0.000 NA
ENDBRANCH   2  20
TORSDOF 3
