REMARK  Name = 
REMARK  3 active torsions:
REMARK  status: ('A' for Active; 'I' for Inactive)
REMARK    1  A    between atoms: N_10  and  O_11
REMARK    2  A    between atoms: O_11  and  C_12
REMARK    3  A    between atoms: C_12  and  C_14
REMARK                            x       y       z     vdW  Elec       q    Type
REMARK                         _______ _______ _______ _____ _____    ______ ____
ROOT
ATOM      1  C   UNL     1      -2.722  -1.334   1.049  0.00  0.00    +0.000 C 
ATOM      2  C   UNL     1      -2.469  -0.632  -0.277  0.00  0.00    +0.000 C 
ATOM      3  C   UNL     1      -1.795  -1.539  -1.266  0.00  0.00    +0.000 C 
ATOM      4  C   UNL     1      -3.853  -0.193  -0.778  0.00  0.00    +0.000 C 
ATOM      5  C   UNL     1      -4.413   0.765   0.260  0.00  0.00    +0.000 C 
ATOM      6  C   UNL     1      -3.523   1.952   0.484  0.00  0.00    +0.000 C 
ATOM      7  C   UNL     1      -2.138   1.445   0.898  0.00  0.00    +0.000 C 
ATOM      8  C   UNL     1      -2.219   0.753   2.256  0.00  0.00    +0.000 C 
ATOM      9  C   UNL     1      -1.200   2.614   1.000  0.00  0.00    +0.000 C 
ATOM     10  N   UNL     1      -1.711   0.557  -0.123  0.00  0.00    +0.000 NA
ENDROOT
BRANCH  10  11
ATOM     11  O   UNL     1      -0.397   0.476  -0.345  0.00  0.00    +0.000 OA
BRANCH  11  12
ATOM     12  C   UNL     1       0.487  -0.412   0.195  0.00  0.00    +0.000 C 
ATOM     13  O   UNL     1       0.039  -1.267   1.000  0.00  0.00    +0.000 OA
BRANCH  12  14
ATOM     14  C   UNL     1       1.922  -0.426  -0.108  0.00  0.00    +0.000 A 
ATOM     15  C   UNL     1       2.492   0.477  -0.980  0.00  0.00    +0.000 A 
ATOM     16  C   UNL     1       3.845   0.462  -1.264  0.00  0.00    +0.000 A 
ATOM     17  C   UNL     1       4.681  -0.467  -0.680  0.00  0.00    +0.000 A 
ATOM     18  N   UNL     1       6.078  -0.501  -0.958  0.00  0.00    +0.000 NA
ATOM     19  C   UNL     1       4.127  -1.380   0.197  0.00  0.00    +0.000 A 
ATOM     20  C   UNL     1       2.770  -1.349   0.469  0.00  0.00    +0.000 A 
ENDBRANCH  12  14
ENDBRANCH  11  12
ENDBRANCH  10  11
TORSDOF 3
