REMARK  Name = 
REMARK  5 active torsions:
REMARK  status: ('A' for Active; 'I' for Inactive)
REMARK    1  A    between atoms: C_2  and  C_4
REMARK    2  A    between atoms: C_4  and  C_5
REMARK    3  A    between atoms: C_5  and  O_6
REMARK    4  A    between atoms: O_6  and  C_7
REMARK    5  A    between atoms: C_10  and  C_11
REMARK                            x       y       z     vdW  Elec       q    Type
REMARK                         _______ _______ _______ _____ _____    ______ ____
ROOT
ATOM      1  C   UNL     1       1.583   0.587  -0.464  0.00  0.00    +0.000 A 
ATOM      2  C   UNL     1       0.739   0.115  -1.444  0.00  0.00    +0.000 A 
ATOM      3  C   UNL     1      -0.553  -0.313  -1.134  0.00  0.00    +0.000 A 
ATOM      4  C   UNL     1      -1.001  -0.270   0.152  0.00  0.00    +0.000 A 
ATOM      5  C   UNL     1      -0.175   0.197   1.140  0.00  0.00    +0.000 A 
ATOM      6  C   UNL     1       1.111   0.623   0.829  0.00  0.00    +0.000 A 
ENDROOT
BRANCH   4   7
ATOM      7  C   UNL     1      -2.381  -0.731   0.456  0.00  0.00    +0.000 C 
ATOM      8  C   UNL     1      -2.364  -2.086   1.137  0.00  0.00    +0.000 C 
ATOM      9  N   UNL     1      -3.154  -0.747  -0.750  0.00  0.00    +0.000 NA
ATOM     10  C   UNL     1      -4.210   0.176  -0.598  0.00  0.00    +0.000 C 
ATOM     11  O   UNL     1      -5.086   0.421  -1.451  0.00  0.00    +0.000 OA
ATOM     12  N   UNL     1      -4.126   0.793   0.694  0.00  0.00    +0.000 NA
ATOM     13  C   UNL     1      -3.000   0.244   1.351  0.00  0.00    +0.000 C 
ATOM     14  O   UNL     1      -2.611   0.547   2.498  0.00  0.00    +0.000 OA
ENDBRANCH   4   7
BRANCH   1  15
ATOM     15  O   UNL     1       2.851   0.997  -0.831  0.00  0.00    +0.000 OA
BRANCH  15  16
ATOM     16  C   UNL     1       3.802   1.494   0.059  0.00  0.00    +0.000 C 
BRANCH  16  17
ATOM     17  C   UNL     1       4.174   0.519   1.141  0.00  0.00    +0.000 C 
BRANCH  17  19
ATOM     18  C   UNL     1       3.701  -1.376  -0.326  0.00  0.00    +0.000 C 
ATOM     19  C   UNL     1       4.755  -0.755   0.569  0.00  0.00    +0.000 C 
ATOM     20  C   UNL     1       5.945  -0.435  -0.307  0.00  0.00    +0.000 C 
ENDBRANCH  17  19
ENDBRANCH  16  17
ENDBRANCH  15  16
ENDBRANCH   1  15
TORSDOF 5
