REMARK  Name = 
REMARK  3 active torsions:
REMARK  status: ('A' for Active; 'I' for Inactive)
REMARK    1  A    between atoms: C_8  and  C_9
REMARK    2  A    between atoms: C_9  and  N_10
REMARK    3  A    between atoms: N_10  and  C_11
REMARK                            x       y       z     vdW  Elec       q    Type
REMARK                         _______ _______ _______ _____ _____    ______ ____
ROOT
ATOM      1  C   UNL     1       0.865  -0.777  -0.331  0.00  0.00    +0.000 A 
ATOM      2  C   UNL     1       1.005  -2.029  -0.846  0.00  0.00    +0.000 A 
ATOM      3  C   UNL     1       2.280  -2.527  -1.015  0.00  0.00    +0.000 A 
ATOM      4  C   UNL     1       3.329  -1.726  -0.653  0.00  0.00    +0.000 A 
ATOM      5  N   UNL     1       3.168  -0.485  -0.143  0.00  0.00    +0.000 N 
ATOM      6  C   UNL     1       4.087   0.417   0.257  0.00  0.00    +0.000 A 
ATOM      7  C   UNL     1       5.555   0.252   0.232  0.00  0.00    +0.000 C 
ATOM      8  C   UNL     1       3.396   1.524   0.695  0.00  0.00    +0.000 A 
ATOM      9  C   UNL     1       4.037   2.758   1.225  0.00  0.00    +0.000 C 
ATOM     10  N   UNL     1       2.077   1.255   0.545  0.00  0.00    +0.000 NA
ATOM     11  C   UNL     1       1.931   0.015   0.028  0.00  0.00    +0.000 A 
ENDROOT
BRANCH   1  12
ATOM     12  N   UNL     1      -0.464  -0.251  -0.152  0.00  0.00    +0.000 NA
BRANCH  12  13
ATOM     13  C   UNL     1      -1.631  -1.037  -0.511  0.00  0.00    +0.000 C 
BRANCH  13  21
ATOM     14  C   UNL     1      -4.242  -2.084  -1.021  0.00  0.00    +0.000 C 
ATOM     15  C   UNL     1      -4.115  -0.718  -0.452  0.00  0.00    +0.000 A 
ATOM     16  C   UNL     1      -5.243   0.020  -0.179  0.00  0.00    +0.000 A 
ATOM     17  C   UNL     1      -5.140   1.289   0.350  0.00  0.00    +0.000 A 
ATOM     18  C   UNL     1      -3.870   1.773   0.587  0.00  0.00    +0.000 A 
ATOM     19  C   UNL     1      -2.743   1.038   0.315  0.00  0.00    +0.000 A 
ATOM     20  O   UNL     1      -1.447   1.529   0.556  0.00  0.00    +0.000 OA
ATOM     21  C   UNL     1      -2.836  -0.234  -0.214  0.00  0.00    +0.000 A 
ENDBRANCH  13  21
ENDBRANCH  12  13
ENDBRANCH   1  12
TORSDOF 3
