REMARK  Name = 
REMARK  3 active torsions:
REMARK  status: ('A' for Active; 'I' for Inactive)
REMARK    1  A    between atoms: C_2  and  C_3
REMARK    2  A    between atoms: C_3  and  N_4
REMARK    3  A    between atoms: C_7  and  C_8
REMARK                            x       y       z     vdW  Elec       q    Type
REMARK                         _______ _______ _______ _____ _____    ______ ____
ROOT
ATOM      1  C   UNL     1      -0.754   0.040  -0.674  0.00  0.00    +0.000 A 
ATOM      2  C   UNL     1      -0.798  -0.008  -2.053  0.00  0.00    +0.000 A 
ATOM      3  N   UNL     1      -2.073   0.096  -2.471  0.00  0.00    +0.000 NA
ATOM      4  C   UNL     1      -2.872   0.212  -1.402  0.00  0.00    +0.000 A 
ATOM      5  C   UNL     1      -4.248   0.347  -1.266  0.00  0.00    +0.000 A 
ATOM      6  C   UNL     1      -4.793   0.446  -0.023  0.00  0.00    +0.000 A 
ATOM      7  C   UNL     1      -4.008   0.415   1.120  0.00  0.00    +0.000 A 
ATOM      8  C   UNL     1      -4.668   0.528   2.458  0.00  0.00    +0.000 C 
ATOM      9  C   UNL     1      -2.657   0.282   0.965  0.00  0.00    +0.000 A 
ATOM     10  C   UNL     1      -2.065   0.178  -0.284  0.00  0.00    +0.000 A 
ENDROOT
BRANCH   1  14
ATOM     11  N   UNL     1       4.071  -0.379   0.276  0.00  0.00    +0.000 NA
ATOM     12  C   UNL     1       2.661  -0.235   0.583  0.00  0.00    +0.000 A 
ATOM     13  N   UNL     1       1.644  -0.170  -0.249  0.00  0.00    +0.000 NA
ATOM     14  C   UNL     1       0.438  -0.039   0.212  0.00  0.00    +0.000 A 
ATOM     15  C   UNL     1       0.296   0.026   1.578  0.00  0.00    +0.000 A 
ATOM     16  S   UNL     1       1.913  -0.106   2.110  0.00  0.00    +0.000 S 
BRANCH  11  17
ATOM     17  C   UNL     1       4.964  -0.420   1.415  0.00  0.00    +0.000 C 
BRANCH  17  19
ATOM     18  C   UNL     1       6.600  -0.643  -0.389  0.00  0.00    +0.000 C 
ATOM     19  C   UNL     1       6.350  -0.570   0.912  0.00  0.00    +0.000 C 
ENDBRANCH  17  19
ENDBRANCH  11  17
ENDBRANCH   1  14
TORSDOF 3
