REMARK  Name = 
REMARK  4 active torsions:
REMARK  status: ('A' for Active; 'I' for Inactive)
REMARK    1  A    between atoms: C_2  and  O_3
REMARK    2  A    between atoms: O_3  and  C_4
REMARK    3  A    between atoms: C_4  and  C_6
REMARK    4  A    between atoms: C_8  and  C_9
REMARK                            x       y       z     vdW  Elec       q    Type
REMARK                         _______ _______ _______ _____ _____    ______ ____
ROOT
ATOM      1  C   UNL     1      -1.682  -0.622  -0.217  0.00  0.00    +0.000 A 
ATOM      2  C   UNL     1      -0.573   0.175  -0.394  0.00  0.00    +0.000 A 
ATOM      3  C   UNL     1       0.523  -0.528   0.050  0.00  0.00    +0.000 A 
ATOM      4  O   UNL     1       0.110  -1.698   0.477  0.00  0.00    +0.000 OA
ATOM      5  C   UNL     1      -1.200  -1.790   0.333  0.00  0.00    +0.000 A 
ATOM      6  C   UNL     1      -1.961  -3.009   0.733  0.00  0.00    +0.000 C 
ENDROOT
BRANCH   3   7
ATOM      7  C   UNL     1       1.886  -0.023   0.030  0.00  0.00    +0.000 A 
ATOM      8  C   UNL     1       2.165   1.236  -0.453  0.00  0.00    +0.000 A 
ATOM      9  C   UNL     1       3.456   1.755  -0.489  0.00  0.00    +0.000 A 
ATOM     10  C   UNL     1       4.488   0.976  -0.023  0.00  0.00    +0.000 A 
ATOM     11  N   UNL     1       5.810   1.507  -0.059  0.00  0.00    +0.000 NA
ATOM     12  C   UNL     1       4.216  -0.283   0.461  0.00  0.00    +0.000 A 
ATOM     13  C   UNL     1       2.939  -0.804   0.499  0.00  0.00    +0.000 A 
ENDBRANCH   3   7
BRANCH   1  14
ATOM     14  C   UNL     1      -3.079  -0.329  -0.533  0.00  0.00    +0.000 C 
ATOM     15  O   UNL     1      -3.964  -1.191  -0.298  0.00  0.00    +0.000 OA
BRANCH  14  16
ATOM     16  O   UNL     1      -3.482   0.864  -1.083  0.00  0.00    +0.000 OA
BRANCH  16  18
ATOM     17  C   UNL     1      -4.824   2.583  -1.981  0.00  0.00    +0.000 C 
ATOM     18  C   UNL     1      -4.825   1.181  -1.400  0.00  0.00    +0.000 C 
ENDBRANCH  16  18
ENDBRANCH  14  16
ENDBRANCH   1  14
TORSDOF 4
