REMARK  Name = 
REMARK  4 active torsions:
REMARK  status: ('A' for Active; 'I' for Inactive)
REMARK    1  A    between atoms: C_2  and  C_4
REMARK    2  A    between atoms: C_4  and  C_5
REMARK    3  A    between atoms: C_5  and  C_6
REMARK    4  A    between atoms: N_11  and  C_12
REMARK                            x       y       z     vdW  Elec       q    Type
REMARK                         _______ _______ _______ _____ _____    ______ ____
ROOT
ATOM      1  C   UNL     1       1.105  -0.322   0.026  0.00  0.00    +0.000 C 
ATOM      2  C   UNL     1       1.172  -1.511  -0.899  0.00  0.00    +0.000 C 
ATOM      3  N   UNL     1       0.961   0.912  -0.716  0.00  0.00    +0.000 NA
ATOM      4  C   UNL     1      -0.373   1.372  -0.490  0.00  0.00    +0.000 C 
ATOM      5  O   UNL     1      -0.870   2.490  -0.750  0.00  0.00    +0.000 OA
ATOM      6  N   UNL     1      -1.038   0.254   0.116  0.00  0.00    +0.000 N 
ATOM      7  N   UNL     1      -0.066  -0.468   0.851  0.00  0.00    +0.000 NA
ENDROOT
BRANCH   6   8
ATOM      8  C   UNL     1      -2.412  -0.058  -0.014  0.00  0.00    +0.000 A 
ATOM      9  C   UNL     1      -3.296   0.258   0.998  0.00  0.00    +0.000 A 
ATOM     10  C   UNL     1      -4.648  -0.021   0.922  0.00  0.00    +0.000 A 
ATOM     11  C   UNL     1      -5.094  -0.649  -0.243  0.00  0.00    +0.000 A 
ATOM     12  C   UNL     1      -4.253  -0.984  -1.282  0.00  0.00    +0.000 A 
ATOM     13  C   UNL     1      -2.923  -0.682  -1.148  0.00  0.00    +0.000 A 
ENDBRANCH   6   8
BRANCH   1  14
ATOM     14  C   UNL     1       2.399  -0.283   0.848  0.00  0.00    +0.000 C 
BRANCH  14  15
ATOM     15  C   UNL     1       3.508  -0.155  -0.174  0.00  0.00    +0.000 C 
BRANCH  15  17
ATOM     16  C   UNL     1       5.724  -1.054   0.090  0.00  0.00    +0.000 C 
ATOM     17  C   UNL     1       4.857  -0.101   0.419  0.00  0.00    +0.000 C 
ATOM     18  C   UNL     1       5.248   1.002   1.367  0.00  0.00    +0.000 C 
ENDBRANCH  15  17
ENDBRANCH  14  15
ENDBRANCH   1  14
TORSDOF 4
