REMARK  Name = 
REMARK  3 active torsions:
REMARK  status: ('A' for Active; 'I' for Inactive)
REMARK    1  A    between atoms: C_7  and  C_8
REMARK    2  A    between atoms: C_8  and  N_9
REMARK    3  A    between atoms: C_10  and  C_11
REMARK                            x       y       z     vdW  Elec       q    Type
REMARK                         _______ _______ _______ _____ _____    ______ ____
ROOT
ATOM      1  N   UNL     1      -0.764  -0.218  -0.649  0.00  0.00    +0.000 N 
ATOM      2  C   UNL     1      -1.251   1.063  -0.731  0.00  0.00    +0.000 A 
ATOM      3  N   UNL     1      -2.325   1.192  -0.032  0.00  0.00    +0.000 NA
ATOM      4  C   UNL     1      -2.621   0.019   0.555  0.00  0.00    +0.000 A 
ATOM      5  C   UNL     1      -3.628  -0.403   1.381  0.00  0.00    +0.000 A 
ATOM      6  C   UNL     1      -3.718  -1.688   1.854  0.00  0.00    +0.000 A 
ATOM      7  C   UNL     1      -2.740  -2.580   1.468  0.00  0.00    +0.000 A 
ATOM      8  C   UNL     1      -1.744  -2.140   0.644  0.00  0.00    +0.000 A 
ATOM      9  C   UNL     1      -1.603  -0.868   0.141  0.00  0.00    +0.000 A 
ENDROOT
BRANCH   2  10
ATOM     10  C   UNL     1      -0.495   2.159  -1.618  0.00  0.00    +0.000 C 
ATOM     11  C   UNL     1      -0.491   3.300  -0.434  0.00  0.00    +0.000 C 
ATOM     12  O   UNL     1      -1.750   2.741  -2.279  0.00  0.00    +0.000 OA
ENDBRANCH   2  10
BRANCH   1  13
ATOM     13  C   UNL     1       0.402  -0.669  -1.321  0.00  0.00    +0.000 C 
BRANCH  13  20
ATOM     14  C   UNL     1       4.370   2.189  -0.190  0.00  0.00    +0.000 C 
ATOM     15  C   UNL     1       3.540   0.952  -0.069  0.00  0.00    +0.000 A 
ATOM     16  C   UNL     1       3.946  -0.028   0.834  0.00  0.00    +0.000 A 
ATOM     17  C   UNL     1       3.258  -1.198   1.032  0.00  0.00    +0.000 A 
ATOM     18  C   UNL     1       2.101  -1.393   0.284  0.00  0.00    +0.000 A 
ATOM     19  C   UNL     1       1.438  -2.712   0.528  0.00  0.00    +0.000 C 
ATOM     20  C   UNL     1       1.680  -0.455  -0.602  0.00  0.00    +0.000 A 
ATOM     21  C   UNL     1       2.396   0.739  -0.796  0.00  0.00    +0.000 A 
ENDBRANCH  13  20
ENDBRANCH   1  13
TORSDOF 3
