REMARK  Name = 
REMARK  3 active torsions:
REMARK  status: ('A' for Active; 'I' for Inactive)
REMARK    1  A    between atoms: C_6  and  N_7
REMARK    2  A    between atoms: C_8  and  C_10
REMARK    3  A    between atoms: C_16  and  N_17
REMARK                            x       y       z     vdW  Elec       q    Type
REMARK                         _______ _______ _______ _____ _____    ______ ____
ROOT
ATOM      1  N   UNL     1       0.713   0.276  -0.115  0.00  0.00    +0.000 NA
ATOM      2  C   UNL     1      -0.273  -0.234  -1.017  0.00  0.00    +0.000 C 
ATOM      3  O   UNL     1       0.120  -1.055  -1.899  0.00  0.00    +0.000 OA
ENDROOT
BRANCH   1   9
ATOM      4  C   UNL     1       5.323   1.080   1.442  0.00  0.00    +0.000 C 
ATOM      5  C   UNL     1       4.324   0.293   0.612  0.00  0.00    +0.000 A 
ATOM      6  C   UNL     1       4.742  -0.784  -0.161  0.00  0.00    +0.000 A 
ATOM      7  C   UNL     1       3.845  -1.512  -0.926  0.00  0.00    +0.000 A 
ATOM      8  C   UNL     1       2.521  -1.163  -0.918  0.00  0.00    +0.000 A 
ATOM      9  C   UNL     1       2.094  -0.080  -0.143  0.00  0.00    +0.000 A 
ATOM     10  C   UNL     1       2.992   0.613   0.594  0.00  0.00    +0.000 A 
ATOM     11  C   UNL     1       2.525   1.795   1.413  0.00  0.00    +0.000 C 
ENDBRANCH   1   9
BRANCH   2  12
ATOM     12  C   UNL     1      -1.670   0.162  -0.946  0.00  0.00    +0.000 A 
ATOM     13  C   UNL     1      -2.247   1.008  -1.918  0.00  0.00    +0.000 A 
ATOM     14  C   UNL     1      -3.543   1.435  -1.862  0.00  0.00    +0.000 A 
ATOM     15  C   UNL     1      -4.339   1.018  -0.798  0.00  0.00    +0.000 A 
ATOM     16  F   UNL     1      -5.611   1.447  -0.770  0.00  0.00    +0.000 F 
ATOM     17  C   UNL     1      -3.779   0.183   0.166  0.00  0.00    +0.000 A 
ATOM     18  C   UNL     1      -2.481  -0.249   0.116  0.00  0.00    +0.000 A 
BRANCH  18  19
ATOM     19  N   UNL     1      -1.904  -1.153   1.086  0.00  0.00    +0.000 N 
ATOM     20  O   UNL     1      -1.016  -1.946   0.728  0.00  0.00    +0.000 OA
ATOM     21  O   UNL     1      -2.334  -1.136   2.379  0.00  0.00    +0.000 OA
ENDBRANCH  18  19
ENDBRANCH   2  12
TORSDOF 3
