REMARK  Name = 
REMARK  3 active torsions:
REMARK  status: ('A' for Active; 'I' for Inactive)
REMARK    1  A    between atoms: C_2  and  C_13
REMARK    2  A    between atoms: N_3  and  N_4
REMARK    3  A    between atoms: C_5  and  C_7
REMARK                            x       y       z     vdW  Elec       q    Type
REMARK                         _______ _______ _______ _____ _____    ______ ____
ROOT
ATOM      1  C   UNL     1      -1.126   0.483  -2.030  0.00  0.00    +0.000 C 
ATOM      2  C   UNL     1      -1.362   0.030  -0.636  0.00  0.00    +0.000 C 
ATOM      3  N   UNL     1      -0.352  -0.288   0.069  0.00  0.00    +0.000 NA
ENDROOT
BRANCH   2   4
ATOM      4  C   UNL     1      -2.716  -0.055  -0.069  0.00  0.00    +0.000 A 
ATOM      5  C   UNL     1      -2.945  -0.474   1.222  0.00  0.00    +0.000 A 
ATOM      6  C   UNL     1      -4.218  -0.553   1.750  0.00  0.00    +0.000 A 
ATOM      7  C   UNL     1      -5.326  -0.212   1.000  0.00  0.00    +0.000 A 
ATOM      8  F   UNL     1      -6.582  -0.287   1.516  0.00  0.00    +0.000 F 
ATOM      9  C   UNL     1      -5.093   0.208  -0.293  0.00  0.00    +0.000 A 
ATOM     10  C   UNL     1      -3.820   0.286  -0.820  0.00  0.00    +0.000 A 
ENDBRANCH   2   4
BRANCH   3  11
ATOM     11  N   UNL     1       0.977  -0.242  -0.377  0.00  0.00    +0.000 NA
ATOM     12  C   UNL     1       1.989   0.042   0.577  0.00  0.00    +0.000 C 
ATOM     13  O   UNL     1       1.663   0.240   1.776  0.00  0.00    +0.000 OA
BRANCH  12  14
ATOM     14  C   UNL     1       3.400   0.116   0.230  0.00  0.00    +0.000 A 
ATOM     15  C   UNL     1       3.943  -0.073  -1.034  0.00  0.00    +0.000 A 
ATOM     16  C   UNL     1       5.306   0.084  -0.918  0.00  0.00    +0.000 A 
ATOM     17  C   UNL     1       6.271  -0.034  -2.034  0.00  0.00    +0.000 C 
ATOM     18  N   UNL     1       5.556   0.355   0.359  0.00  0.00    +0.000 NA
ATOM     19  N   UNL     1       4.434   0.374   1.042  0.00  0.00    +0.000 NA
ENDBRANCH  12  14
ENDBRANCH   3  11
TORSDOF 3
