REMARK  Name = 
REMARK  1 active torsions:
REMARK  status: ('A' for Active; 'I' for Inactive)
REMARK    1  A    between atoms: C_4  and  C_5
REMARK                            x       y       z     vdW  Elec       q    Type
REMARK                         _______ _______ _______ _____ _____    ______ ____
ROOT
ATOM      1  O   UNL     1       0.019   1.292  -2.367  0.00  0.00    +0.000 OA
ATOM      2  C   UNL     1       0.208   0.206  -1.736  0.00  0.00    +0.000 C 
ATOM      3  N   UNL     1       1.228  -0.607  -2.028  0.00  0.00    +0.000 NA
ATOM      4  C   UNL     1       1.800  -1.714  -1.107  0.00  0.00    +0.000 C 
ATOM      5  N   UNL     1       0.554  -2.136  -0.325  0.00  0.00    +0.000 NA
ATOM      6  C   UNL     1      -0.507  -1.326   0.006  0.00  0.00    +0.000 A 
ATOM      7  S   UNL     1      -1.794  -1.392   1.178  0.00  0.00    +0.000 S 
ATOM      8  C   UNL     1      -2.575   0.057   0.799  0.00  0.00    +0.000 A 
ATOM      9  C   UNL     1      -1.832   0.564  -0.221  0.00  0.00    +0.000 A 
ATOM     10  C   UNL     1      -0.725  -0.176  -0.646  0.00  0.00    +0.000 A 
ATOM     11  C   UNL     1      -2.363   1.898  -0.735  0.00  0.00    +0.000 C 
ATOM     12  C   UNL     1      -3.824   1.780  -1.035  0.00  0.00    +0.000 C 
ATOM     13  C   UNL     1      -4.608   1.056   0.017  0.00  0.00    +0.000 C 
ATOM     14  C   UNL     1      -3.792   0.835   1.292  0.00  0.00    +0.000 C 
ENDROOT
BRANCH   4  15
ATOM     15  C   UNL     1       2.428  -0.781   0.038  0.00  0.00    +0.000 A 
ATOM     16  C   UNL     1       1.796   0.258   0.548  0.00  0.00    +0.000 A 
ATOM     17  C   UNL     1       2.388   1.023   1.532  0.00  0.00    +0.000 A 
ATOM     18  C   UNL     1       3.650   0.672   1.961  0.00  0.00    +0.000 A 
ATOM     19  N   UNL     1       4.269  -0.385   1.428  0.00  0.00    +0.000 NA
ATOM     20  C   UNL     1       3.680  -1.122   0.470  0.00  0.00    +0.000 A 
ENDBRANCH   4  15
TORSDOF 1
