REMARK  Name = 
REMARK  2 active torsions:
REMARK  status: ('A' for Active; 'I' for Inactive)
REMARK    1  A    between atoms: C_5  and  C_6
REMARK    2  A    between atoms: N_8  and  C_9
REMARK                            x       y       z     vdW  Elec       q    Type
REMARK                         _______ _______ _______ _____ _____    ______ ____
ROOT
ATOM      1  C   UNL     1       0.937  -0.590  -0.858  0.00  0.00    +0.000 C 
ATOM      2  O   UNL     1       0.455  -1.356  -1.709  0.00  0.00    +0.000 OA
ATOM      3  N   UNL     1       0.016   0.061   0.025  0.00  0.00    +0.000 NA
ENDROOT
BRANCH   3   4
ATOM      4  C   UNL     1      -1.360  -0.084   0.011  0.00  0.00    +0.000 C 
ATOM      5  C   UNL     1      -2.137   0.187  -1.215  0.00  0.00    +0.000 C 
ATOM      6  C   UNL     1      -3.250  -0.838  -1.371  0.00  0.00    +0.000 C 
ATOM      7  C   UNL     1      -4.091  -0.942  -0.112  0.00  0.00    +0.000 C 
ATOM      8  C   UNL     1      -4.752   0.426   0.116  0.00  0.00    +0.000 C 
ATOM      9  C   UNL     1      -3.655   1.457   0.281  0.00  0.00    +0.000 C 
ATOM     10  C   UNL     1      -2.839   1.534  -0.993  0.00  0.00    +0.000 C 
ATOM     11  C   UNL     1      -2.847   1.108   1.489  0.00  0.00    +0.000 C 
ATOM     12  C   UNL     1      -2.120  -0.230   1.262  0.00  0.00    +0.000 C 
ATOM     13  C   UNL     1      -3.235  -1.256   1.096  0.00  0.00    +0.000 C 
ENDBRANCH   3   4
BRANCH   1  18
ATOM     14  N   UNL     1       6.482   0.596  -0.117  0.00  0.00    +0.000 NA
ATOM     15  C   UNL     1       5.100   0.286  -0.328  0.00  0.00    +0.000 A 
ATOM     16  C   UNL     1       4.174   0.482   0.687  0.00  0.00    +0.000 A 
ATOM     17  C   UNL     1       2.847   0.187   0.485  0.00  0.00    +0.000 A 
ATOM     18  C   UNL     1       2.360  -0.309  -0.700  0.00  0.00    +0.000 A 
ATOM     19  C   UNL     1       3.287  -0.508  -1.720  0.00  0.00    +0.000 A 
ATOM     20  C   UNL     1       4.628  -0.211  -1.521  0.00  0.00    +0.000 A 
ENDBRANCH   1  18
TORSDOF 2
