REMARK  Name = 
REMARK  3 active torsions:
REMARK  status: ('A' for Active; 'I' for Inactive)
REMARK    1  A    between atoms: C_2  and  C_4
REMARK    2  A    between atoms: C_4  and  C_5
REMARK    3  A    between atoms: C_7  and  C_8
REMARK                            x       y       z     vdW  Elec       q    Type
REMARK                         _______ _______ _______ _____ _____    ______ ____
ROOT
ATOM      1  C   UNL     1       2.769   0.141   0.878  0.00  0.00    +0.000 A 
ATOM      2  C   UNL     1       1.648  -0.433   0.321  0.00  0.00    +0.000 A 
ATOM      3  C   UNL     1       0.401   0.161   0.413  0.00  0.00    +0.000 A 
ATOM      4  N   UNL     1       0.292   1.317   1.059  0.00  0.00    +0.000 NA
ATOM      5  C   UNL     1       1.374   1.891   1.607  0.00  0.00    +0.000 A 
ATOM      6  N   UNL     1       1.182   3.126   2.282  0.00  0.00    +0.000 NA
ATOM      7  N   UNL     1       2.600   1.308   1.518  0.00  0.00    +0.000 NA
ENDROOT
BRANCH   3   8
ATOM      8  C   UNL     1      -0.733  -0.521  -0.208  0.00  0.00    +0.000 A 
ATOM      9  C   UNL     1      -0.565  -1.716  -0.865  0.00  0.00    +0.000 A 
ATOM     10  C   UNL     1      -1.625  -2.385  -1.464  0.00  0.00    +0.000 A 
ATOM     11  C   UNL     1      -2.899  -1.863  -1.419  0.00  0.00    +0.000 A 
ATOM     12  F   UNL     1      -3.963  -2.490  -1.994  0.00  0.00    +0.000 F 
ATOM     13  C   UNL     1      -3.081  -0.663  -0.763  0.00  0.00    +0.000 A 
ATOM     14  C   UNL     1      -4.346  -0.108  -0.696  0.00  0.00    +0.000 A 
ATOM     15  C   UNL     1      -4.527   1.078  -0.048  0.00  0.00    +0.000 A 
ATOM     16  C   UNL     1      -3.472   1.734   0.543  0.00  0.00    +0.000 A 
ATOM     17  C   UNL     1      -2.184   1.201   0.494  0.00  0.00    +0.000 A 
ATOM     18  C   UNL     1      -2.007   0.002  -0.163  0.00  0.00    +0.000 A 
ENDBRANCH   3   8
BRANCH   1  19
ATOM     19  C   UNL     1       4.060  -0.568   0.728  0.00  0.00    +0.000 C 
BRANCH  19  21
ATOM     20  C   UNL     1       4.054  -0.420  -1.783  0.00  0.00    +0.000 C 
ATOM     21  C   UNL     1       4.800  -0.157  -0.519  0.00  0.00    +0.000 C 
ATOM     22  C   UNL     1       6.223  -0.635  -0.525  0.00  0.00    +0.000 C 
ENDBRANCH  19  21
ENDBRANCH   1  19
TORSDOF 3
