REMARK  Name = 
REMARK  3 active torsions:
REMARK  status: ('A' for Active; 'I' for Inactive)
REMARK    1  A    between atoms: C_5  and  C_6
REMARK    2  A    between atoms: N_8  and  C_9
REMARK    3  A    between atoms: C_9  and  C_11
REMARK                            x       y       z     vdW  Elec       q    Type
REMARK                         _______ _______ _______ _____ _____    ______ ____
ROOT
ATOM      1  C   UNL     1      -0.514  -1.888   0.995  0.00  0.00    +0.000 C 
ATOM      2  C   UNL     1      -0.388  -2.430  -0.547  0.00  0.00    +0.000 C 
ENDROOT
BRANCH   1   3
ATOM      3  C   UNL     1      -1.569  -0.758   0.691  0.00  0.00    +0.000 A 
ATOM      4  C   UNL     1      -1.488   0.450   1.307  0.00  0.00    +0.000 A 
ATOM      5  C   UNL     1      -2.453   1.449   1.044  0.00  0.00    +0.000 A 
ATOM      6  C   UNL     1      -3.482   1.201   0.160  0.00  0.00    +0.000 A 
ATOM      7  C   UNL     1      -3.558  -0.018  -0.457  0.00  0.00    +0.000 A 
ATOM      8  C   UNL     1      -2.586  -0.985  -0.175  0.00  0.00    +0.000 A 
ATOM      9  O   UNL     1      -4.677   0.026  -1.273  0.00  0.00    +0.000 OA
ATOM     10  C   UNL     1      -5.496   1.145  -0.917  0.00  0.00    +0.000 C 
ATOM     11  O   UNL     1      -4.556   1.997  -0.277  0.00  0.00    +0.000 OA
ENDBRANCH   1   3
BRANCH   1  14
ATOM     12  C   UNL     1       1.681  -1.066  -0.035  0.00  0.00    +0.000 C 
ATOM     13  O   UNL     1       1.513  -1.781  -1.060  0.00  0.00    +0.000 OA
ATOM     14  N   UNL     1       0.765  -1.032   1.020  0.00  0.00    +0.000 NA
BRANCH  12  19
ATOM     15  C   UNL     1       6.529   1.465  -0.965  0.00  0.00    +0.000 C 
ATOM     16  C   UNL     1       5.227   0.929  -0.474  0.00  0.00    +0.000 A 
ATOM     17  C   UNL     1       4.563   1.174   0.691  0.00  0.00    +0.000 A 
ATOM     18  C   UNL     1       3.416   0.569   0.895  0.00  0.00    +0.000 A 
ATOM     19  C   UNL     1       2.929  -0.264  -0.036  0.00  0.00    +0.000 A 
ATOM     20  S   UNL     1       4.146  -0.183  -1.239  0.00  0.00    +0.000 S 
ENDBRANCH  12  19
ENDBRANCH   1  14
TORSDOF 3
