REMARK  Name = 
REMARK  2 active torsions:
REMARK  status: ('A' for Active; 'I' for Inactive)
REMARK    1  A    between atoms: O_2  and  C_3
REMARK    2  A    between atoms: C_7  and  C_8
REMARK                            x       y       z     vdW  Elec       q    Type
REMARK                         _______ _______ _______ _____ _____    ______ ____
ROOT
ATOM      1  C   UNL     1       0.046   0.021   0.338  0.00  0.00    +0.000 A 
ATOM      2  C   UNL     1      -0.253   1.373   0.142  0.00  0.00    +0.000 A 
ATOM      3  N   UNL     1       0.817   2.325   0.242  0.00  0.00    +0.000 NA
ATOM      4  N   UNL     1      -1.486   1.788  -0.140  0.00  0.00    +0.000 N 
ATOM      5  C   UNL     1      -1.792   3.215  -0.367  0.00  0.00    +0.000 C 
ATOM      6  C   UNL     1      -2.478   0.890  -0.241  0.00  0.00    +0.000 A 
ATOM      7  C   UNL     1      -3.780   1.313  -0.534  0.00  0.00    +0.000 A 
ATOM      8  C   UNL     1      -4.792   0.394  -0.635  0.00  0.00    +0.000 A 
ATOM      9  C   UNL     1      -4.516  -0.926  -0.448  0.00  0.00    +0.000 A 
ATOM     10  C   UNL     1      -3.253  -1.394  -0.157  0.00  0.00    +0.000 A 
ATOM     11  C   UNL     1      -2.232  -0.450  -0.057  0.00  0.00    +0.000 A 
ATOM     12  C   UNL     1      -0.954  -0.915   0.237  0.00  0.00    +0.000 A 
ATOM     13  O   UNL     1      -0.728  -2.128   0.401  0.00  0.00    +0.000 OA
ENDROOT
BRANCH   1  18
ATOM     14  C   UNL     1       3.700  -0.722   0.203  0.00  0.00    +0.000 A 
ATOM     15  C   UNL     1       3.943  -1.119   1.489  0.00  0.00    +0.000 A 
ATOM     16  C   UNL     1       2.880  -1.138   2.372  0.00  0.00    +0.000 A 
ATOM     17  C   UNL     1       1.623  -0.775   1.990  0.00  0.00    +0.000 A 
ATOM     18  C   UNL     1       1.398  -0.376   0.686  0.00  0.00    +0.000 A 
ATOM     19  C   UNL     1       2.429  -0.336  -0.252  0.00  0.00    +0.000 A 
BRANCH  14  21
ATOM     20  C   UNL     1       4.637  -0.329  -2.019  0.00  0.00    +0.000 C 
ATOM     21  O   UNL     1       4.793  -0.711  -0.672  0.00  0.00    +0.000 OA
ENDBRANCH  14  21
ENDBRANCH   1  18
TORSDOF 2
