REMARK  Name = 
REMARK  4 active torsions:
REMARK  status: ('A' for Active; 'I' for Inactive)
REMARK    1  A    between atoms: O_2  and  C_3
REMARK    2  A    between atoms: C_3  and  C_5
REMARK    3  A    between atoms: C_10  and  C_11
REMARK    4  A    between atoms: C_14  and  C_15
REMARK                            x       y       z     vdW  Elec       q    Type
REMARK                         _______ _______ _______ _____ _____    ______ ____
ROOT
ATOM      1  C   UNL     1      -2.368  -0.556   0.576  0.00  0.00    +0.000 A 
ATOM      2  N   UNL     1      -3.459  -1.260   0.641  0.00  0.00    +0.000 NA
ATOM      3  C   UNL     1      -3.512  -2.487   0.186  0.00  0.00    +0.000 A 
ATOM      4  N   UNL     1      -4.654  -3.323   0.234  0.00  0.00    +0.000 NA
ATOM      5  S   UNL     1      -1.925  -2.711  -0.387  0.00  0.00    +0.000 S 
ATOM      6  C   UNL     1      -1.258  -1.153   0.016  0.00  0.00    +0.000 A 
ENDROOT
BRANCH   6   7
ATOM      7  C   UNL     1       0.086  -0.672  -0.225  0.00  0.00    +0.000 A 
ATOM      8  C   UNL     1       0.746   0.050   0.782  0.00  0.00    +0.000 A 
ATOM      9  C   UNL     1       1.972   0.603   0.578  0.00  0.00    +0.000 A 
ATOM     10  C   UNL     1       2.656   0.489  -0.655  0.00  0.00    +0.000 A 
ATOM     11  C   UNL     1       2.011  -0.220  -1.648  0.00  0.00    +0.000 A 
ATOM     12  C   UNL     1       0.746  -0.789  -1.423  0.00  0.00    +0.000 A 
BRANCH  10  13
ATOM     13  C   UNL     1       3.985   1.110  -0.829  0.00  0.00    +0.000 C 
ATOM     14  C   UNL     1       5.015   0.363   0.020  0.00  0.00    +0.000 C 
ATOM     15  C   UNL     1       4.373   0.948  -2.312  0.00  0.00    +0.000 C 
ATOM     16  C   UNL     1       3.954   2.582  -0.503  0.00  0.00    +0.000 C 
ENDBRANCH  10  13
ENDBRANCH   6   7
BRANCH   1  17
ATOM     17  C   UNL     1      -2.393   0.876   0.947  0.00  0.00    +0.000 C 
ATOM     18  O   UNL     1      -3.425   1.436   1.369  0.00  0.00    +0.000 OA
BRANCH  17  20
ATOM     19  C   UNL     1      -1.327   3.052   1.169  0.00  0.00    +0.000 C 
ATOM     20  O   UNL     1      -1.224   1.660   0.813  0.00  0.00    +0.000 OA
ENDBRANCH  17  20
ENDBRANCH   1  17
TORSDOF 4
