REMARK  Name = 
REMARK  3 active torsions:
REMARK  status: ('A' for Active; 'I' for Inactive)
REMARK    1  A    between atoms: N_2  and  C_4
REMARK    2  A    between atoms: C_7  and  N_8
REMARK    3  A    between atoms: C_10  and  C_11
REMARK                            x       y       z     vdW  Elec       q    Type
REMARK                         _______ _______ _______ _____ _____    ______ ____
ROOT
ATOM      1  N   UNL     1       0.311   0.323  -0.018  0.00  0.00    +0.000 N 
ATOM      2  N   UNL     1       1.252   1.248  -0.002  0.00  0.00    +0.000 NA
ATOM      3  C   UNL     1       2.471   0.781  -0.371  0.00  0.00    +0.000 A 
ATOM      4  C   UNL     1       2.243  -0.607  -0.644  0.00  0.00    +0.000 A 
ATOM      5  C   UNL     1       0.957  -0.842  -0.430  0.00  0.00    +0.000 A 
ATOM      6  N   UNL     1       0.712  -2.247  -0.686  0.00  0.00    +0.000 NA
ATOM      7  C   UNL     1       2.028  -2.917  -0.515  0.00  0.00    +0.000 C 
ATOM      8  C   UNL     1       2.990  -1.825  -1.038  0.00  0.00    +0.000 C 
ENDROOT
BRANCH   1  12
ATOM      9  C   UNL     1      -3.827   0.022   0.510  0.00  0.00    +0.000 A 
ATOM     10  C   UNL     1      -3.192  -0.513  -0.613  0.00  0.00    +0.000 A 
ATOM     11  C   UNL     1      -1.839  -0.364  -0.721  0.00  0.00    +0.000 A 
ATOM     12  C   UNL     1      -1.064   0.305   0.233  0.00  0.00    +0.000 A 
ATOM     13  C   UNL     1      -1.698   0.820   1.303  0.00  0.00    +0.000 A 
ATOM     14  C   UNL     1      -3.110   0.673   1.448  0.00  0.00    +0.000 A 
BRANCH   9  16
ATOM     15  O   UNL     1      -5.818   0.206   1.630  0.00  0.00    +0.000 OA
ATOM     16  N   UNL     1      -5.231  -0.162   0.630  0.00  0.00    +0.000 N 
ATOM     17  O   UNL     1      -5.949  -0.775  -0.376  0.00  0.00    +0.000 OA
ENDBRANCH   9  16
ENDBRANCH   1  12
BRANCH   3  18
ATOM     18  C   UNL     1       3.720   1.391  -0.552  0.00  0.00    +0.000 C 
ATOM     19  C   UNL     1       4.463   2.462  -0.026  0.00  0.00    +0.000 C 
ATOM     20  C   UNL     1       5.693   1.427   0.111  0.00  0.00    +0.000 C 
ATOM     21  C   UNL     1       4.888   0.593  -0.946  0.00  0.00    +0.000 C 
ENDBRANCH   3  18
TORSDOF 3
