REMARK  Name = 
REMARK  0 active torsions:
REMARK  status: ('A' for Active; 'I' for Inactive)
REMARK                            x       y       z     vdW  Elec       q    Type
REMARK                         _______ _______ _______ _____ _____    ______ ____
ROOT
ATOM      1  C   UNL     1      -1.910   0.782   0.877  0.00  0.00    +0.000 C 
ATOM      2  C   UNL     1      -2.334   0.476  -0.525  0.00  0.00    +0.000 C 
ATOM      3  C   UNL     1      -1.719   1.290  -1.579  0.00  0.00    +0.000 C 
ATOM      4  C   UNL     1      -0.335   0.804  -1.958  0.00  0.00    +0.000 C 
ATOM      5  C   UNL     1       0.231  -0.038  -0.851  0.00  0.00    +0.000 A 
ATOM      6  C   UNL     1      -0.507  -0.991  -0.227  0.00  0.00    +0.000 A 
ATOM      7  C   UNL     1      -0.042  -1.766   0.765  0.00  0.00    +0.000 A 
ATOM      8  C   UNL     1       1.289  -1.553   1.156  0.00  0.00    +0.000 A 
ATOM      9  C   UNL     1       2.048  -0.587   0.528  0.00  0.00    +0.000 A 
ATOM     10  C   UNL     1       3.373  -0.366   0.908  0.00  0.00    +0.000 A 
ATOM     11  C   UNL     1       4.101   0.618   0.249  0.00  0.00    +0.000 A 
ATOM     12  N   UNL     1       5.465   0.866   0.619  0.00  0.00    +0.000 NA
ATOM     13  C   UNL     1       3.582   1.388  -0.763  0.00  0.00    +0.000 A 
ATOM     14  C   UNL     1       2.258   1.171  -1.147  0.00  0.00    +0.000 A 
ATOM     15  C   UNL     1       1.555   0.200  -0.489  0.00  0.00    +0.000 A 
ATOM     16  C   UNL     1      -1.956  -1.088  -0.790  0.00  0.00    +0.000 C 
ATOM     17  C   UNL     1      -2.693  -1.520   0.596  0.00  0.00    +0.000 C 
ATOM     18  C   UNL     1      -4.067  -0.932   0.233  0.00  0.00    +0.000 C 
ATOM     19  C   UNL     1      -3.776   0.275  -0.584  0.00  0.00    +0.000 C 
ATOM     20  O   UNL     1      -4.561   0.969  -1.188  0.00  0.00    +0.000 OA
ENDROOT
TORSDOF 0
