REMARK  Name = 
REMARK  1 active torsions:
REMARK  status: ('A' for Active; 'I' for Inactive)
REMARK    1  A    between atoms: C_10  and  C_11
REMARK                            x       y       z     vdW  Elec       q    Type
REMARK                         _______ _______ _______ _____ _____    ______ ____
ROOT
ATOM      1  C   UNL     1      -4.220   2.215   0.004  0.00  0.00    +0.000 C 
ATOM      2  C   UNL     1      -3.631   0.863  -0.059  0.00  0.00    +0.000 A 
ATOM      3  O   UNL     1      -4.323  -0.245  -0.279  0.00  0.00    +0.000 OA
ATOM      4  C   UNL     1      -3.506  -1.284  -0.276  0.00  0.00    +0.000 A 
ATOM      5  C   UNL     1      -3.888  -2.703  -0.485  0.00  0.00    +0.000 C 
ATOM      6  C   UNL     1      -2.233  -0.836  -0.044  0.00  0.00    +0.000 A 
ATOM      7  C   UNL     1      -1.092  -1.604   0.035  0.00  0.00    +0.000 A 
ATOM      8  O   UNL     1      -1.261  -2.835  -0.082  0.00  0.00    +0.000 OA
ATOM      9  C   UNL     1       0.194  -1.193   0.224  0.00  0.00    +0.000 A 
ATOM     10  C   UNL     1       0.780   0.063   0.242  0.00  0.00    +0.000 A 
ATOM     11  C   UNL     1       0.099   1.256   0.329  0.00  0.00    +0.000 A 
ATOM     12  C   UNL     1      -1.265   1.449   0.344  0.00  0.00    +0.000 A 
ATOM     13  O   UNL     1      -1.740   2.719   0.645  0.00  0.00    +0.000 OA
ATOM     14  C   UNL     1      -2.297   0.555   0.098  0.00  0.00    +0.000 A 
ENDROOT
BRANCH  10  15
ATOM     15  C   UNL     1       2.248   0.124   0.161  0.00  0.00    +0.000 A 
ATOM     16  C   UNL     1       2.897   1.189  -0.445  0.00  0.00    +0.000 A 
ATOM     17  C   UNL     1       4.262   1.279  -0.539  0.00  0.00    +0.000 A 
ATOM     18  C   UNL     1       5.049   0.277  -0.013  0.00  0.00    +0.000 A 
ATOM     19  O   UNL     1       6.423   0.382  -0.115  0.00  0.00    +0.000 OA
ATOM     20  C   UNL     1       4.445  -0.804   0.600  0.00  0.00    +0.000 A 
ATOM     21  C   UNL     1       3.057  -0.867   0.679  0.00  0.00    +0.000 A 
ENDBRANCH  10  15
TORSDOF 1
