REMARK  Name = 
REMARK  1 active torsions:
REMARK  status: ('A' for Active; 'I' for Inactive)
REMARK    1  A    between atoms: C_9  and  N_10
REMARK                            x       y       z     vdW  Elec       q    Type
REMARK                         _______ _______ _______ _____ _____    ______ ____
ROOT
ATOM      1  C   UNL     1      -5.251  -1.464   0.712  0.00  0.00    +0.000 C 
ATOM      2  C   UNL     1      -3.996  -0.665   0.466  0.00  0.00    +0.000 A 
ATOM      3  C   UNL     1      -2.771  -1.297   0.465  0.00  0.00    +0.000 A 
ATOM      4  C   UNL     1      -1.608  -0.553   0.236  0.00  0.00    +0.000 A 
ATOM      5  N   UNL     1      -0.469  -1.218   0.248  0.00  0.00    +0.000 NA
ATOM      6  C   UNL     1       0.765  -0.782   0.065  0.00  0.00    +0.000 A 
ATOM      7  C   UNL     1       1.818  -1.704   0.129  0.00  0.00    +0.000 A 
ATOM      8  C   UNL     1       3.124  -1.304  -0.054  0.00  0.00    +0.000 A 
ATOM      9  C   UNL     1       3.458   0.011  -0.307  0.00  0.00    +0.000 A 
ATOM     10  C   UNL     1       2.417   0.911  -0.368  0.00  0.00    +0.000 A 
ATOM     11  C   UNL     1       1.109   0.525  -0.187  0.00  0.00    +0.000 A 
ATOM     12  S   UNL     1      -0.237   1.589  -0.249  0.00  0.00    +0.000 S 
ATOM     13  C   UNL     1      -1.721   0.801   0.016  0.00  0.00    +0.000 A 
ATOM     14  C   UNL     1      -2.969   1.412   0.022  0.00  0.00    +0.000 A 
ATOM     15  C   UNL     1      -4.119   0.686   0.247  0.00  0.00    +0.000 A 
ATOM     16  N   UNL     1      -5.385   1.294   0.256  0.00  0.00    +0.000 NA
ENDROOT
BRANCH   9  17
ATOM     17  N   UNL     1       4.801   0.435  -0.498  0.00  0.00    +0.000 N 
ATOM     18  C   UNL     1       5.906  -0.502  -0.436  0.00  0.00    +0.000 C 
ATOM     19  C   UNL     1       5.128   1.823  -0.762  0.00  0.00    +0.000 C 
ENDBRANCH   9  17
TORSDOF 1
