REMARK  Name = 
REMARK  5 active torsions:
REMARK  status: ('A' for Active; 'I' for Inactive)
REMARK    1  A    between atoms: O_2  and  C_3
REMARK    2  A    between atoms: C_6  and  S_7
REMARK    3  A    between atoms: S_7  and  C_8
REMARK    4  A    between atoms: C_13  and  C_14
REMARK    5  A    between atoms: C_17  and  O_18
REMARK                            x       y       z     vdW  Elec       q    Type
REMARK                         _______ _______ _______ _____ _____    ______ ____
ROOT
ATOM      1  C   UNL     1       3.524   0.126   0.045  0.00  0.00    +0.000 A 
ATOM      2  C   UNL     1       3.086  -0.471   1.199  0.00  0.00    +0.000 A 
ATOM      3  C   UNL     1       1.785  -0.296   1.591  0.00  0.00    +0.000 A 
ATOM      4  C   UNL     1       0.903   0.477   0.835  0.00  0.00    +0.000 A 
ATOM      5  C   UNL     1       1.340   1.067  -0.310  0.00  0.00    +0.000 A 
ATOM      6  C   UNL     1       2.673   0.887  -0.709  0.00  0.00    +0.000 A 
ENDROOT
BRANCH   1   8
ATOM      7  C   UNL     1       5.734  -0.853   0.444  0.00  0.00    +0.000 C 
ATOM      8  O   UNL     1       4.863  -0.065  -0.340  0.00  0.00    +0.000 OA
ENDBRANCH   1   8
BRANCH   5   9
ATOM      9  O   UNL     1       0.525   1.847  -1.110  0.00  0.00    +0.000 OA
ATOM     10  C   UNL     1       1.037   2.429  -2.278  0.00  0.00    +0.000 C 
ENDBRANCH   5   9
BRANCH   4  11
ATOM     11  S   UNL     1      -0.791   0.671   1.405  0.00  0.00    +0.000 S 
BRANCH  11  12
ATOM     12  C   UNL     1      -1.849  -0.632   0.777  0.00  0.00    +0.000 A 
ATOM     13  C   UNL     1      -1.779  -1.884   1.374  0.00  0.00    +0.000 A 
ATOM     14  C   UNL     1      -2.570  -2.901   0.920  0.00  0.00    +0.000 A 
ATOM     15  C   UNL     1      -3.424  -2.657  -0.126  0.00  0.00    +0.000 A 
ATOM     16  C   UNL     1      -3.481  -1.413  -0.704  0.00  0.00    +0.000 A 
ATOM     17  C   UNL     1      -2.687  -0.348  -0.265  0.00  0.00    +0.000 A 
BRANCH  17  18
ATOM     18  C   UNL     1      -2.866   0.955  -0.886  0.00  0.00    +0.000 C 
ATOM     19  N   UNL     1      -3.654   1.047  -2.075  0.00  0.00    +0.000 NA
ATOM     20  O   UNL     1      -2.368   2.014  -0.439  0.00  0.00    +0.000 OA
ENDBRANCH  17  18
ENDBRANCH  11  12
ENDBRANCH   4  11
TORSDOF 5
