REMARK  Name = 
REMARK  4 active torsions:
REMARK  status: ('A' for Active; 'I' for Inactive)
REMARK    1  A    between atoms: C_2  and  O_3
REMARK    2  A    between atoms: O_3  and  C_4
REMARK    3  A    between atoms: C_15  and  O_16
REMARK    4  A    between atoms: O_16  and  C_17
REMARK                            x       y       z     vdW  Elec       q    Type
REMARK                         _______ _______ _______ _____ _____    ______ ____
ROOT
ATOM      1  C   UNL     1      -3.406  -0.596  -0.051  0.00  0.00    +0.000 A 
ATOM      2  C   UNL     1      -3.048  -0.788  -1.368  0.00  0.00    +0.000 A 
ATOM      3  C   UNL     1      -1.728  -0.690  -1.766  0.00  0.00    +0.000 A 
ATOM      4  C   UNL     1      -0.716  -0.399  -0.873  0.00  0.00    +0.000 A 
ATOM      5  C   UNL     1      -1.067  -0.206   0.443  0.00  0.00    +0.000 A 
ATOM      6  C   UNL     1      -2.394  -0.305   0.840  0.00  0.00    +0.000 A 
ATOM      7  C   UNL     1       0.171   0.079   1.142  0.00  0.00    +0.000 C 
ATOM      8  N   UNL     1       0.272   0.318   2.395  0.00  0.00    +0.000 NA
ATOM      9  N   UNL     1      -0.818   0.336   3.268  0.00  0.00    +0.000 NA
ATOM     10  C   UNL     1       1.268   0.049   0.193  0.00  0.00    +0.000 A 
ATOM     11  C   UNL     1       2.628   0.233   0.245  0.00  0.00    +0.000 A 
ATOM     12  C   UNL     1       3.464   0.143  -0.847  0.00  0.00    +0.000 A 
ATOM     13  C   UNL     1       2.894  -0.149  -2.058  0.00  0.00    +0.000 A 
ATOM     14  C   UNL     1       1.550  -0.343  -2.176  0.00  0.00    +0.000 A 
ATOM     15  C   UNL     1       0.746  -0.245  -1.060  0.00  0.00    +0.000 A 
ENDROOT
BRANCH   1  16
ATOM     16  O   UNL     1      -4.737  -0.695   0.351  0.00  0.00    +0.000 OA
BRANCH  16  18
ATOM     17  C   UNL     1      -4.763   0.848   2.231  0.00  0.00    +0.000 C 
ATOM     18  C   UNL     1      -5.105  -0.500   1.690  0.00  0.00    +0.000 C 
ENDBRANCH  16  18
ENDBRANCH   1  16
BRANCH  12  19
ATOM     19  O   UNL     1       4.822   0.348  -0.676  0.00  0.00    +0.000 OA
BRANCH  19  20
ATOM     20  C   UNL     1       5.314   0.644   0.613  0.00  0.00    +0.000 C 
ATOM     21  C   UNL     1       4.651   1.919   1.078  0.00  0.00    +0.000 C 
ENDBRANCH  19  20
ENDBRANCH  12  19
TORSDOF 4
