REMARK  Name = 
REMARK  3 active torsions:
REMARK  status: ('A' for Active; 'I' for Inactive)
REMARK    1  A    between atoms: C_5  and  C_6
REMARK    2  A    between atoms: N_8  and  C_9
REMARK    3  A    between atoms: C_17  and  N_18
REMARK                            x       y       z     vdW  Elec       q    Type
REMARK                         _______ _______ _______ _____ _____    ______ ____
ROOT
ATOM      1  C   UNL     1      -5.133  -0.657   0.456  0.00  0.00    +0.000 C 
ATOM      2  C   UNL     1      -3.643  -0.577   0.308  0.00  0.00    +0.000 A 
ATOM      3  C   UNL     1      -2.853  -1.702   0.338  0.00  0.00    +0.000 A 
ATOM      4  C   UNL     1      -1.484  -1.655   0.202  0.00  0.00    +0.000 A 
ATOM      5  C   UNL     1      -0.836  -0.438   0.025  0.00  0.00    +0.000 A 
ATOM      6  C   UNL     1      -1.641   0.687  -0.003  0.00  0.00    +0.000 A 
ATOM      7  C   UNL     1      -3.009   0.644   0.132  0.00  0.00    +0.000 A 
ENDROOT
BRANCH   5   8
ATOM      8  C   UNL     1       0.608  -0.349  -0.112  0.00  0.00    +0.000 C 
ATOM      9  O   UNL     1       1.093   0.706  -0.587  0.00  0.00    +0.000 OA
ATOM     10  N   UNL     1       1.460  -1.382   0.263  0.00  0.00    +0.000 NA
BRANCH  10  11
ATOM     11  C   UNL     1       2.846  -1.281   0.119  0.00  0.00    +0.000 C 
ATOM     12  C   UNL     1       3.732  -1.347   1.272  0.00  0.00    +0.000 C 
ATOM     13  C   UNL     1       4.928  -0.409   1.205  0.00  0.00    +0.000 C 
ATOM     14  C   UNL     1       4.420   0.949   0.725  0.00  0.00    +0.000 C 
ATOM     15  C   UNL     1       4.750   1.023  -0.752  0.00  0.00    +0.000 C 
ATOM     16  C   UNL     1       3.680   0.366  -1.582  0.00  0.00    +0.000 C 
ATOM     17  C   UNL     1       3.419  -1.051  -1.212  0.00  0.00    +0.000 C 
ENDBRANCH  10  11
ENDBRANCH   5   8
BRANCH   7  18
ATOM     18  N   UNL     1      -3.820   1.810   0.106  0.00  0.00    +0.000 N 
ATOM     19  O   UNL     1      -3.488   2.859  -0.502  0.00  0.00    +0.000 OA
ATOM     20  O   UNL     1      -5.030   1.804   0.783  0.00  0.00    +0.000 OA
ENDBRANCH   7  18
TORSDOF 3
