REMARK  Name = 
REMARK  2 active torsions:
REMARK  status: ('A' for Active; 'I' for Inactive)
REMARK    1  A    between atoms: C_7  and  N_8
REMARK    2  A    between atoms: C_9  and  C_11
REMARK                            x       y       z     vdW  Elec       q    Type
REMARK                         _______ _______ _______ _____ _____    ______ ____
ROOT
ATOM      1  N   UNL     1       1.339   0.351   0.628  0.00  0.00    +0.000 NA
ATOM      2  C   UNL     1       0.594  -0.791   0.610  0.00  0.00    +0.000 C 
ATOM      3  O   UNL     1       1.103  -1.929   0.659  0.00  0.00    +0.000 OA
ENDROOT
BRANCH   2   4
ATOM      4  C   UNL     1      -0.853  -0.707   0.528  0.00  0.00    +0.000 A 
ATOM      5  N   UNL     1      -1.772  -1.673   0.487  0.00  0.00    +0.000 NA
ATOM      6  C   UNL     1      -3.015  -1.129   0.407  0.00  0.00    +0.000 A 
ATOM      7  C   UNL     1      -4.288  -1.620   0.335  0.00  0.00    +0.000 A 
ATOM      8  C   UNL     1      -5.372  -0.769   0.255  0.00  0.00    +0.000 A 
ATOM      9  C   UNL     1      -5.165   0.584   0.248  0.00  0.00    +0.000 A 
ATOM     10  C   UNL     1      -3.892   1.133   0.320  0.00  0.00    +0.000 A 
ATOM     11  C   UNL     1      -2.854   0.226   0.398  0.00  0.00    +0.000 A 
ATOM     12  N   UNL     1      -1.535   0.451   0.472  0.00  0.00    +0.000 NA
ENDBRANCH   2   4
BRANCH   1  19
ATOM     13  C   UNL     1       3.059  -1.293  -1.067  0.00  0.00    +0.000 C 
ATOM     14  C   UNL     1       3.102   0.335  -0.963  0.00  0.00    +0.000 C 
ATOM     15  C   UNL     1       4.739   0.336  -0.851  0.00  0.00    +0.000 C 
ATOM     16  C   UNL     1       5.106   1.671  -0.264  0.00  0.00    +0.000 C 
ATOM     17  C   UNL     1       3.884   2.525  -0.126  0.00  0.00    +0.000 C 
ATOM     18  C   UNL     1       2.935   1.965   0.842  0.00  0.00    +0.000 C 
ATOM     19  C   UNL     1       2.885   0.334   0.717  0.00  0.00    +0.000 C 
ENDBRANCH   1  19
TORSDOF 2
