REMARK  Name = 
REMARK  3 active torsions:
REMARK  status: ('A' for Active; 'I' for Inactive)
REMARK    1  A    between atoms: C_2  and  C_4
REMARK    2  A    between atoms: C_4  and  C_5
REMARK    3  A    between atoms: C_8  and  C_9
REMARK                            x       y       z     vdW  Elec       q    Type
REMARK                         _______ _______ _______ _____ _____    ______ ____
ROOT
ATOM      1  C   UNL     1      -1.817  -0.032  -0.100  0.00  0.00    +0.000 A 
ATOM      2  C   UNL     1      -1.692   1.350   0.098  0.00  0.00    +0.000 A 
ATOM      3  C   UNL     1      -2.901   2.209   0.135  0.00  0.00    +0.000 C 
ATOM      4  C   UNL     1      -0.469   1.960   0.262  0.00  0.00    +0.000 A 
ATOM      5  C   UNL     1       0.700   1.202   0.236  0.00  0.00    +0.000 A 
ATOM      6  N   UNL     1       1.998   1.529   0.366  0.00  0.00    +0.000 NA
ATOM      7  C   UNL     1       2.734   0.412   0.262  0.00  0.00    +0.000 A 
ATOM      8  C   UNL     1       4.071   0.106   0.309  0.00  0.00    +0.000 A 
ATOM      9  C   UNL     1       4.473  -1.197   0.157  0.00  0.00    +0.000 A 
ATOM     10  C   UNL     1       3.585  -2.238  -0.046  0.00  0.00    +0.000 A 
ATOM     11  C   UNL     1       2.253  -1.913  -0.090  0.00  0.00    +0.000 A 
ATOM     12  C   UNL     1       1.829  -0.614   0.061  0.00  0.00    +0.000 A 
ATOM     13  N   UNL     1       0.558  -0.114   0.046  0.00  0.00    +0.000 N 
ATOM     14  C   UNL     1      -0.650  -0.724  -0.117  0.00  0.00    +0.000 A 
ATOM     15  O   UNL     1      -0.681  -2.093  -0.305  0.00  0.00    +0.000 OA
ENDROOT
BRANCH   4  16
ATOM     16  C   UNL     1      -0.356   3.378   0.466  0.00  0.00    +0.000 C 
ATOM     17  N   UNL     1      -0.273   4.531   0.631  0.00  0.00    +0.000 NA
ENDBRANCH   4  16
BRANCH   1  18
ATOM     18  C   UNL     1      -3.179  -0.542  -0.253  0.00  0.00    +0.000 C 
BRANCH  18  20
ATOM     19  C   UNL     1      -3.978  -2.757   0.280  0.00  0.00    +0.000 C 
ATOM     20  C   UNL     1      -3.353  -1.948  -0.560  0.00  0.00    +0.000 C 
ATOM     21  C   UNL     1      -2.852  -2.506  -1.838  0.00  0.00    +0.000 C 
ENDBRANCH  18  20
ENDBRANCH   1  18
TORSDOF 3
