REMARK  Name = 
REMARK  2 active torsions:
REMARK  status: ('A' for Active; 'I' for Inactive)
REMARK    1  A    between atoms: C_2  and  C_4
REMARK    2  A    between atoms: C_6  and  C_7
REMARK                            x       y       z     vdW  Elec       q    Type
REMARK                         _______ _______ _______ _____ _____    ______ ____
ROOT
ATOM      1  C   UNL     1       2.865   0.356  -0.582  0.00  0.00    +0.000 A 
ATOM      2  C   UNL     1       1.639   0.804  -0.133  0.00  0.00    +0.000 A 
ATOM      3  C   UNL     1       0.518   0.000  -0.159  0.00  0.00    +0.000 A 
ATOM      4  N   UNL     1       0.649  -1.238  -0.635  0.00  0.00    +0.000 NA
ATOM      5  C   UNL     1       1.854  -1.700  -1.084  0.00  0.00    +0.000 A 
ATOM      6  N   UNL     1       1.981  -3.024  -1.590  0.00  0.00    +0.000 NA
ATOM      7  N   UNL     1       2.955  -0.901  -1.055  0.00  0.00    +0.000 N 
ATOM      8  O   UNL     1       4.176  -1.386  -1.517  0.00  0.00    +0.000 OA
ENDROOT
BRANCH   3   9
ATOM      9  C   UNL     1      -0.744   0.544   0.334  0.00  0.00    +0.000 A 
ATOM     10  C   UNL     1      -0.848   1.830   0.820  0.00  0.00    +0.000 A 
ATOM     11  C   UNL     1      -2.056   2.316   1.279  0.00  0.00    +0.000 A 
ATOM     12  C   UNL     1      -3.208   1.557   1.276  0.00  0.00    +0.000 A 
ATOM     13  F   UNL     1      -4.389   2.051   1.732  0.00  0.00    +0.000 F 
ATOM     14  C   UNL     1      -3.110   0.269   0.790  0.00  0.00    +0.000 A 
ATOM     15  C   UNL     1      -4.249  -0.517   0.775  0.00  0.00    +0.000 A 
ATOM     16  C   UNL     1      -4.108  -1.798   0.282  0.00  0.00    +0.000 A 
ATOM     17  C   UNL     1      -2.910  -2.297  -0.179  0.00  0.00    +0.000 A 
ATOM     18  C   UNL     1      -1.780  -1.509  -0.161  0.00  0.00    +0.000 A 
ATOM     19  C   UNL     1      -1.894  -0.222   0.328  0.00  0.00    +0.000 A 
ENDBRANCH   3   9
BRANCH   1  21
ATOM     20  C   UNL     1       4.863   0.953   0.706  0.00  0.00    +0.000 C 
ATOM     21  C   UNL     1       4.072   1.225  -0.554  0.00  0.00    +0.000 C 
ATOM     22  C   UNL     1       3.722   2.686  -0.673  0.00  0.00    +0.000 C 
ENDBRANCH   1  21
TORSDOF 2
