REMARK  Name = 
REMARK  1 active torsions:
REMARK  status: ('A' for Active; 'I' for Inactive)
REMARK    1  A    between atoms: C_5  and  C_6
REMARK                            x       y       z     vdW  Elec       q    Type
REMARK                         _______ _______ _______ _____ _____    ______ ____
ROOT
ATOM      1  C   UNL     1      -1.142   0.170   0.200  0.00  0.00    +0.000 A 
ATOM      2  N   UNL     1      -0.433  -0.600   1.025  0.00  0.00    +0.000 NA
ATOM      3  C   UNL     1       0.883  -0.725   1.013  0.00  0.00    +0.000 A 
ATOM      4  N   UNL     1       1.474  -1.590   1.966  0.00  0.00    +0.000 NA
ATOM      5  C   UNL     1       1.635  -0.004   0.070  0.00  0.00    +0.000 A 
ATOM      6  C   UNL     1       2.982  -0.010  -0.086  0.00  0.00    +0.000 A 
ATOM      7  C   UNL     1       3.491   0.779  -1.082  0.00  0.00    +0.000 A 
ATOM      8  S   UNL     1       2.100   1.492  -1.759  0.00  0.00    +0.000 S 
ATOM      9  C   UNL     1       0.907   0.778  -0.768  0.00  0.00    +0.000 A 
ATOM     10  N   UNL     1      -0.439   0.867  -0.711  0.00  0.00    +0.000 NA
ATOM     11  C   UNL     1       4.986   0.806  -1.296  0.00  0.00    +0.000 C 
ATOM     12  C   UNL     1       5.419  -0.628  -1.452  0.00  0.00    +0.000 C 
ATOM     13  C   UNL     1       4.886  -1.514  -0.366  0.00  0.00    +0.000 C 
ATOM     14  C   UNL     1       4.082  -0.756   0.663  0.00  0.00    +0.000 C 
ENDROOT
BRANCH   1  19
ATOM     15  C   UNL     1      -6.878   0.485   0.521  0.00  0.00    +0.000 C 
ATOM     16  C   UNL     1      -5.393   0.410   0.429  0.00  0.00    +0.000 A 
ATOM     17  C   UNL     1      -4.668  -0.390   1.289  0.00  0.00    +0.000 A 
ATOM     18  C   UNL     1      -3.285  -0.460   1.205  0.00  0.00    +0.000 A 
ATOM     19  C   UNL     1      -2.598   0.270   0.257  0.00  0.00    +0.000 A 
ATOM     20  C   UNL     1      -3.314   1.071  -0.605  0.00  0.00    +0.000 A 
ATOM     21  C   UNL     1      -4.697   1.136  -0.514  0.00  0.00    +0.000 A 
ENDBRANCH   1  19
TORSDOF 1
