REMARK  Name = 
REMARK  4 active torsions:
REMARK  status: ('A' for Active; 'I' for Inactive)
REMARK    1  A    between atoms: C_10  and  C_11
REMARK    2  A    between atoms: C_11  and  O_12
REMARK    3  A    between atoms: O_12  and  C_13
REMARK    4  A    between atoms: C_13  and  C_15
REMARK                            x       y       z     vdW  Elec       q    Type
REMARK                         _______ _______ _______ _____ _____    ______ ____
ROOT
ATOM      1  C   UNL     1      -0.939  -1.291   0.597  0.00  0.00    +0.000 C 
ENDROOT
BRANCH   1  11
ATOM      2  C   UNL     1      -3.761   0.267  -2.069  0.00  0.00    +0.000 C 
ATOM      3  C   UNL     1      -3.430   0.934  -0.807  0.00  0.00    +0.000 C 
ATOM      4  C   UNL     1      -3.536   2.431  -0.816  0.00  0.00    +0.000 C 
ATOM      5  C   UNL     1      -1.852   0.679  -0.491  0.00  0.00    +0.000 C 
ATOM      6  C   UNL     1      -1.900   0.973   1.089  0.00  0.00    +0.000 C 
ATOM      7  C   UNL     1      -3.284   1.359   1.382  0.00  0.00    +0.000 C 
ATOM      8  C   UNL     1      -3.960   0.348   0.434  0.00  0.00    +0.000 C 
ATOM      9  C   UNL     1      -5.391   0.316   0.661  0.00  0.00    +0.000 C 
ATOM     10  C   UNL     1      -3.275  -0.942   0.652  0.00  0.00    +0.000 C 
ATOM     11  C   UNL     1      -2.114  -0.984  -0.451  0.00  0.00    +0.000 C 
ENDBRANCH   1  11
BRANCH   1  12
ATOM     12  O   UNL     1       0.272  -0.864   0.032  0.00  0.00    +0.000 OA
BRANCH  12  13
ATOM     13  C   UNL     1       1.440  -1.019   0.743  0.00  0.00    +0.000 C 
ATOM     14  O   UNL     1       1.377  -1.539   1.873  0.00  0.00    +0.000 OA
BRANCH  13  15
ATOM     15  C   UNL     1       2.755  -0.606   0.242  0.00  0.00    +0.000 A 
ATOM     16  C   UNL     1       3.882  -0.783   0.990  0.00  0.00    +0.000 A 
ATOM     17  C   UNL     1       5.114  -0.400   0.530  0.00  0.00    +0.000 A 
ATOM     18  C   UNL     1       5.227   0.188  -0.734  0.00  0.00    +0.000 A 
ATOM     19  N   UNL     1       6.452   0.609  -1.280  0.00  0.00    +0.000 NA
ATOM     20  C   UNL     1       4.078   0.359  -1.475  0.00  0.00    +0.000 A 
ATOM     21  C   UNL     1       2.846  -0.034  -0.993  0.00  0.00    +0.000 A 
ENDBRANCH  13  15
ENDBRANCH  12  13
ENDBRANCH   1  12
TORSDOF 4
