REMARK  Name = 
REMARK  1 active torsions:
REMARK  status: ('A' for Active; 'I' for Inactive)
REMARK    1  A    between atoms: C_7  and  C_8
REMARK                            x       y       z     vdW  Elec       q    Type
REMARK                         _______ _______ _______ _____ _____    ______ ____
ROOT
ATOM      1  C   UNL     1       1.327  -0.071  -0.152  0.00  0.00    +0.000 A 
ATOM      2  N   UNL     1       0.594   0.962  -0.616  0.00  0.00    +0.000 NA
ATOM      3  C   UNL     1      -0.759   0.967  -0.543  0.00  0.00    +0.000 A 
ATOM      4  S   UNL     1      -1.966   2.077  -1.018  0.00  0.00    +0.000 S 
ATOM      5  C   UNL     1      -3.361   1.207  -0.517  0.00  0.00    +0.000 A 
ATOM      6  C   UNL     1      -2.827   0.077   0.005  0.00  0.00    +0.000 A 
ATOM      7  C   UNL     1      -1.489  -0.058  -0.003  0.00  0.00    +0.000 A 
ATOM      8  C   UNL     1      -0.706  -1.123   0.474  0.00  0.00    +0.000 A 
ATOM      9  O   UNL     1      -1.204  -2.151   1.003  0.00  0.00    +0.000 OA
ATOM     10  N   UNL     1       0.619  -1.081   0.380  0.00  0.00    +0.000 N 
ATOM     11  N   UNL     1       1.393  -2.167   0.867  0.00  0.00    +0.000 NA
ATOM     12  C   UNL     1      -3.887  -0.890   0.533  0.00  0.00    +0.000 C 
ATOM     13  C   UNL     1      -5.046  -0.882  -0.454  0.00  0.00    +0.000 C 
ATOM     14  C   UNL     1      -5.715   0.442  -0.284  0.00  0.00    +0.000 C 
ATOM     15  C   UNL     1      -4.804   1.557  -0.607  0.00  0.00    +0.000 C 
ENDROOT
BRANCH   1  22
ATOM     16  C   UNL     1       2.807   2.088  -1.287  0.00  0.00    +0.000 C 
ATOM     17  C   UNL     1       3.506   0.913  -0.753  0.00  0.00    +0.000 A 
ATOM     18  C   UNL     1       4.890   0.892  -0.819  0.00  0.00    +0.000 A 
ATOM     19  C   UNL     1       5.558  -0.198  -0.324  0.00  0.00    +0.000 A 
ATOM     20  C   UNL     1       4.846  -1.243   0.225  0.00  0.00    +0.000 A 
ATOM     21  C   UNL     1       3.450  -1.202   0.282  0.00  0.00    +0.000 A 
ATOM     22  C   UNL     1       2.775  -0.114  -0.211  0.00  0.00    +0.000 A 
ENDBRANCH   1  22
TORSDOF 1
