REMARK  Name = 
REMARK  2 active torsions:
REMARK  status: ('A' for Active; 'I' for Inactive)
REMARK    1  A    between atoms: C_6  and  C_7
REMARK    2  A    between atoms: C_7  and  C_8
REMARK                            x       y       z     vdW  Elec       q    Type
REMARK                         _______ _______ _______ _____ _____    ______ ____
ROOT
ATOM      1  C   UNL     1      -4.796   1.135   1.466  0.00  0.00    +0.000 C 
ATOM      2  C   UNL     1      -3.645   0.626   0.659  0.00  0.00    +0.000 A 
ATOM      3  C   UNL     1      -2.437   0.287   1.235  0.00  0.00    +0.000 A 
ATOM      4  C   UNL     1      -1.372  -0.187   0.460  0.00  0.00    +0.000 A 
ATOM      5  N   UNL     1      -0.197  -0.513   1.051  0.00  0.00    +0.000 NA
ATOM      6  C   UNL     1       0.857  -0.972   0.357  0.00  0.00    +0.000 A 
ATOM      7  C   UNL     1       0.713  -1.108  -1.004  0.00  0.00    +0.000 A 
ATOM      8  O   UNL     1       1.692  -1.537  -1.666  0.00  0.00    +0.000 OA
ATOM      9  N   UNL     1      -0.461  -0.787  -1.627  0.00  0.00    +0.000 NA
ATOM     10  C   UNL     1      -1.500  -0.329  -0.906  0.00  0.00    +0.000 A 
ATOM     11  C   UNL     1      -2.712   0.010  -1.488  0.00  0.00    +0.000 A 
ATOM     12  C   UNL     1      -3.749   0.476  -0.709  0.00  0.00    +0.000 A 
ATOM     13  C   UNL     1      -5.060   0.847  -1.318  0.00  0.00    +0.000 C 
ENDROOT
BRANCH   6  14
ATOM     14  C   UNL     1       2.155  -1.338   0.968  0.00  0.00    +0.000 C 
BRANCH  14  15
ATOM     15  C   UNL     1       3.199  -0.281   0.713  0.00  0.00    +0.000 A 
ATOM     16  C   UNL     1       3.476   0.801   1.502  0.00  0.00    +0.000 A 
ATOM     17  C   UNL     1       4.439   1.625   1.105  0.00  0.00    +0.000 A 
ATOM     18  C   UNL     1       5.087   1.339  -0.060  0.00  0.00    +0.000 A 
ATOM     19  S   UNL     1       4.312  -0.092  -0.563  0.00  0.00    +0.000 S 
ENDBRANCH  14  15
ENDBRANCH   6  14
TORSDOF 2
