REMARK  Name = 
REMARK  3 active torsions:
REMARK  status: ('A' for Active; 'I' for Inactive)
REMARK    1  A    between atoms: C_4  and  C_5
REMARK    2  A    between atoms: C_13  and  N_14
REMARK    3  A    between atoms: N_14  and  C_15
REMARK                            x       y       z     vdW  Elec       q    Type
REMARK                         _______ _______ _______ _____ _____    ______ ____
ROOT
ATOM      1  C   UNL     1      -1.104   0.184   0.077  0.00  0.00    +0.000 A 
ATOM      2  N   UNL     1      -1.719   1.375   0.279  0.00  0.00    +0.000 NA
ATOM      3  C   UNL     1      -0.884   2.399   0.053  0.00  0.00    +0.000 A 
ATOM      4  C   UNL     1      -1.030   3.786   0.120  0.00  0.00    +0.000 A 
ATOM      5  N   UNL     1       0.009   4.569  -0.170  0.00  0.00    +0.000 NA
ATOM      6  C   UNL     1       1.175   4.016  -0.520  0.00  0.00    +0.000 A 
ATOM      7  C   UNL     1       1.294   2.660  -0.579  0.00  0.00    +0.000 A 
ATOM      8  N   UNL     1       0.280   1.847  -0.297  0.00  0.00    +0.000 N 
ATOM      9  C   UNL     1       0.178   0.473  -0.290  0.00  0.00    +0.000 A 
ENDROOT
BRANCH   1  13
ATOM     10  C   UNL     1      -2.198  -3.395   0.119  0.00  0.00    +0.000 A 
ATOM     11  C   UNL     1      -3.446  -3.106   0.594  0.00  0.00    +0.000 A 
ATOM     12  S   UNL     1      -3.389  -1.411   0.749  0.00  0.00    +0.000 S 
ATOM     13  C   UNL     1      -1.774  -1.130   0.204  0.00  0.00    +0.000 A 
ATOM     14  C   UNL     1      -1.360  -2.384  -0.074  0.00  0.00    +0.000 A 
ENDBRANCH   1  13
BRANCH   9  15
ATOM     15  N   UNL     1       1.241  -0.375  -0.573  0.00  0.00    +0.000 NA
BRANCH  15  16
ATOM     16  C   UNL     1       1.396  -1.772  -0.498  0.00  0.00    +0.000 C 
ATOM     17  C   UNL     1       2.697  -2.249  -1.149  0.00  0.00    +0.000 C 
ATOM     18  C   UNL     1       3.790  -1.962  -0.150  0.00  0.00    +0.000 C 
ATOM     19  C   UNL     1       3.114  -1.457   1.106  0.00  0.00    +0.000 C 
ATOM     20  C   UNL     1       1.733  -2.067   0.998  0.00  0.00    +0.000 C 
ENDBRANCH  15  16
ENDBRANCH   9  15
TORSDOF 3
