REMARK  Name = 
REMARK  2 active torsions:
REMARK  status: ('A' for Active; 'I' for Inactive)
REMARK    1  A    between atoms: C_7  and  C_8
REMARK    2  A    between atoms: C_8  and  C_9
REMARK                            x       y       z     vdW  Elec       q    Type
REMARK                         _______ _______ _______ _____ _____    ______ ____
ROOT
ATOM      1  C   UNL     1      -4.596  -0.268   1.921  0.00  0.00    +0.000 C 
ATOM      2  C   UNL     1      -3.498  -0.328   0.940  0.00  0.00    +0.000 A 
ATOM      3  C   UNL     1      -2.807   0.834   0.605  0.00  0.00    +0.000 A 
ATOM      4  C   UNL     1      -3.216   2.099   1.263  0.00  0.00    +0.000 C 
ATOM      5  C   UNL     1      -1.782   0.822  -0.301  0.00  0.00    +0.000 A 
ATOM      6  O   UNL     1      -1.111   2.009  -0.614  0.00  0.00    +0.000 OA
ATOM      7  C   UNL     1      -1.394  -0.352  -0.919  0.00  0.00    +0.000 A 
ATOM      8  C   UNL     1      -2.068  -1.511  -0.598  0.00  0.00    +0.000 A 
ATOM      9  C   UNL     1      -1.654  -2.758  -1.256  0.00  0.00    +0.000 C 
ATOM     10  C   UNL     1      -3.110  -1.499   0.323  0.00  0.00    +0.000 A 
ATOM     11  O   UNL     1      -3.756  -2.680   0.614  0.00  0.00    +0.000 OA
ENDROOT
BRANCH   7  12
ATOM     12  C   UNL     1      -0.276  -0.304  -1.890  0.00  0.00    +0.000 C 
BRANCH  12  13
ATOM     13  C   UNL     1       1.044  -0.194  -1.208  0.00  0.00    +0.000 A 
ATOM     14  N   UNL     1       1.653   0.929  -0.887  0.00  0.00    +0.000 NA
ATOM     15  C   UNL     1       2.811   0.900  -0.288  0.00  0.00    +0.000 A 
ATOM     16  C   UNL     1       3.570   2.024   0.111  0.00  0.00    +0.000 A 
ATOM     17  C   UNL     1       4.767   1.841   0.729  0.00  0.00    +0.000 A 
ATOM     18  C   UNL     1       5.335   0.614   1.016  0.00  0.00    +0.000 A 
ATOM     19  C   UNL     1       4.591  -0.481   0.624  0.00  0.00    +0.000 A 
ATOM     20  C   UNL     1       3.353  -0.326  -0.015  0.00  0.00    +0.000 A 
ATOM     21  S   UNL     1       2.145  -1.369  -0.646  0.00  0.00    +0.000 S 
ENDBRANCH  12  13
ENDBRANCH   7  12
TORSDOF 2
