REMARK  Name = 
REMARK  2 active torsions:
REMARK  status: ('A' for Active; 'I' for Inactive)
REMARK    1  A    between atoms: C_6  and  O_7
REMARK    2  A    between atoms: O_7  and  C_8
REMARK                            x       y       z     vdW  Elec       q    Type
REMARK                         _______ _______ _______ _____ _____    ______ ____
ROOT
ATOM      1  C   UNL     1      -0.057   1.530  -0.565  0.00  0.00    +0.000 A 
ATOM      2  N   UNL     1      -0.431   2.822  -0.328  0.00  0.00    +0.000 NA
ATOM      3  C   UNL     1       0.307   3.723   0.302  0.00  0.00    +0.000 A 
ATOM      4  N   UNL     1       1.518   3.325   0.739  0.00  0.00    +0.000 NA
ATOM      5  C   UNL     1       1.935   2.045   0.523  0.00  0.00    +0.000 A 
ATOM      6  S   UNL     1       3.380   1.222   0.905  0.00  0.00    +0.000 S 
ATOM      7  C   UNL     1       3.020  -0.296   0.237  0.00  0.00    +0.000 A 
ATOM      8  C   UNL     1       1.756  -0.116  -0.274  0.00  0.00    +0.000 A 
ATOM      9  C   UNL     1       1.186   1.095  -0.128  0.00  0.00    +0.000 A 
ATOM     10  C   UNL     1       1.280  -1.386  -0.961  0.00  0.00    +0.000 C 
ATOM     11  C   UNL     1       1.346  -2.458   0.131  0.00  0.00    +0.000 C 
ATOM     12  C   UNL     1       2.777  -2.749   0.514  0.00  0.00    +0.000 C 
ATOM     13  C   UNL     1       3.715  -1.633   0.107  0.00  0.00    +0.000 C 
ENDROOT
BRANCH   1  14
ATOM     14  O   UNL     1      -0.999   0.748  -1.251  0.00  0.00    +0.000 OA
BRANCH  14  20
ATOM     15  N   UNL     1      -2.622  -3.461   0.522  0.00  0.00    +0.000 NA
ATOM     16  C   UNL     1      -2.842  -2.086   0.227  0.00  0.00    +0.000 A 
ATOM     17  C   UNL     1      -4.051  -1.478   0.516  0.00  0.00    +0.000 A 
ATOM     18  C   UNL     1      -4.196  -0.132   0.200  0.00  0.00    +0.000 A 
ATOM     19  C   UNL     1      -3.195   0.611  -0.383  0.00  0.00    +0.000 A 
ATOM     20  C   UNL     1      -1.972  -0.012  -0.673  0.00  0.00    +0.000 A 
ATOM     21  C   UNL     1      -1.854  -1.313  -0.359  0.00  0.00    +0.000 A 
ENDBRANCH  14  20
ENDBRANCH   1  14
TORSDOF 2
