REMARK  Name = 
REMARK  4 active torsions:
REMARK  status: ('A' for Active; 'I' for Inactive)
REMARK    1  A    between atoms: C_2  and  C_5
REMARK    2  A    between atoms: N_7  and  C_8
REMARK    3  A    between atoms: C_8  and  N_10
REMARK    4  A    between atoms: N_10  and  C_11
REMARK                            x       y       z     vdW  Elec       q    Type
REMARK                         _______ _______ _______ _____ _____    ______ ____
ROOT
ATOM      1  C   UNL     1       0.493  -0.868   1.173  0.00  0.00    +0.000 C 
ATOM      2  S   UNL     1       0.487  -1.897   2.504  0.00  0.00    +0.000 S 
ENDROOT
BRANCH   1   5
ATOM      3  C   UNL     1       2.144   0.336  -0.261  0.00  0.00    +0.000 C 
ATOM      4  O   UNL     1       1.254   0.835  -0.976  0.00  0.00    +0.000 OA
ATOM      5  N   UNL     1       1.797  -0.503   0.800  0.00  0.00    +0.000 NA
BRANCH   3   7
ATOM      6  C   UNL     1       4.264  -0.636  -0.904  0.00  0.00    +0.000 C 
ATOM      7  C   UNL     1       3.566   0.679  -0.595  0.00  0.00    +0.000 C 
ATOM      8  C   UNL     1       3.599   1.494  -1.863  0.00  0.00    +0.000 C 
ATOM      9  C   UNL     1       4.240   1.367   0.565  0.00  0.00    +0.000 C 
ENDBRANCH   3   7
ENDBRANCH   1   5
BRANCH   1  10
ATOM     10  N   UNL     1      -0.637  -0.518   0.639  0.00  0.00    +0.000 NA
BRANCH  10  11
ATOM     11  C   UNL     1      -1.789  -0.161   0.094  0.00  0.00    +0.000 A 
ATOM     12  C   UNL     1      -1.905   0.682  -0.986  0.00  0.00    +0.000 A 
ATOM     13  C   UNL     1      -3.097   1.064  -1.563  0.00  0.00    +0.000 A 
ATOM     14  C   UNL     1      -4.253   0.558  -1.010  0.00  0.00    +0.000 A 
ATOM     15  C   UNL     1      -4.220  -0.291   0.071  0.00  0.00    +0.000 A 
ATOM     16  C   UNL     1      -3.006  -0.639   0.606  0.00  0.00    +0.000 A 
ATOM     17  O   UNL     1      -2.937  -1.501   1.706  0.00  0.00    +0.000 OA
ENDBRANCH  10  11
ENDBRANCH   1  10
TORSDOF 4
