REMARK  Name = 
REMARK  3 active torsions:
REMARK  status: ('A' for Active; 'I' for Inactive)
REMARK    1  A    between atoms: C_5  and  N_6
REMARK    2  A    between atoms: C_7  and  C_9
REMARK    3  A    between atoms: C_15  and  N_16
REMARK                            x       y       z     vdW  Elec       q    Type
REMARK                         _______ _______ _______ _____ _____    ______ ____
ROOT
ATOM      1  N   UNL     1       0.415  -0.279  -0.569  0.00  0.00    +0.000 NA
ATOM      2  C   UNL     1      -0.482  -0.767   0.404  0.00  0.00    +0.000 C 
ATOM      3  O   UNL     1      -0.005  -1.161   1.505  0.00  0.00    +0.000 OA
ENDROOT
BRANCH   1   8
ATOM      4  C   UNL     1       6.103   0.279  -0.133  0.00  0.00    +0.000 C 
ATOM      5  C   UNL     1       4.635   0.128  -0.223  0.00  0.00    +0.000 A 
ATOM      6  C   UNL     1       3.976   0.260  -1.433  0.00  0.00    +0.000 A 
ATOM      7  C   UNL     1       2.618   0.112  -1.507  0.00  0.00    +0.000 A 
ATOM      8  C   UNL     1       1.820  -0.174  -0.432  0.00  0.00    +0.000 A 
ATOM      9  C   UNL     1       2.474  -0.309   0.788  0.00  0.00    +0.000 A 
ATOM     10  C   UNL     1       3.869  -0.159   0.889  0.00  0.00    +0.000 A 
ATOM     11  C   UNL     1       4.526  -0.290   2.210  0.00  0.00    +0.000 C 
ENDBRANCH   1   8
BRANCH   2  12
ATOM     12  C   UNL     1      -1.924  -0.840   0.187  0.00  0.00    +0.000 A 
ATOM     13  C   UNL     1      -2.608  -1.968  -0.179  0.00  0.00    +0.000 A 
ATOM     14  C   UNL     1      -3.967  -1.972  -0.445  0.00  0.00    +0.000 A 
ATOM     15  C   UNL     1      -4.634  -0.779  -0.325  0.00  0.00    +0.000 A 
ATOM     16  C   UNL     1      -4.019   0.392   0.039  0.00  0.00    +0.000 A 
ATOM     17  C   UNL     1      -4.833   1.601   0.138  0.00  0.00    +0.000 C 
ATOM     18  C   UNL     1      -2.657   0.350   0.296  0.00  0.00    +0.000 A 
BRANCH  18  19
ATOM     19  N   UNL     1      -1.981   1.508   0.717  0.00  0.00    +0.000 N 
ATOM     20  O   UNL     1      -1.721   2.420  -0.062  0.00  0.00    +0.000 OA
ATOM     21  O   UNL     1      -1.604   1.647   2.053  0.00  0.00    +0.000 OA
ENDBRANCH  18  19
ENDBRANCH   2  12
TORSDOF 3
