REMARK  Name = 
REMARK  5 active torsions:
REMARK  status: ('A' for Active; 'I' for Inactive)
REMARK    1  A    between atoms: N_2  and  C_4
REMARK    2  A    between atoms: C_7  and  N_8
REMARK    3  A    between atoms: C_14  and  N_15
REMARK    4  A    between atoms: N_15  and  C_16
REMARK    5  A    between atoms: C_16  and  C_17
REMARK                            x       y       z     vdW  Elec       q    Type
REMARK                         _______ _______ _______ _____ _____    ______ ____
ROOT
ATOM      1  C   UNL     1      -0.503  -0.269  -1.913  0.00  0.00    +0.000 A 
ATOM      2  C   UNL     1      -1.870  -0.294  -2.140  0.00  0.00    +0.000 A 
ATOM      3  C   UNL     1      -2.761  -0.314  -1.089  0.00  0.00    +0.000 A 
ATOM      4  C   UNL     1      -2.319  -0.311   0.239  0.00  0.00    +0.000 A 
ATOM      5  C   UNL     1      -0.938  -0.286   0.422  0.00  0.00    +0.000 A 
ATOM      6  C   UNL     1      -0.031  -0.266  -0.615  0.00  0.00    +0.000 A 
ENDROOT
BRANCH   4   7
ATOM      7  N   UNL     1      -3.216  -0.332   1.325  0.00  0.00    +0.000 N 
ATOM      8  C   UNL     1      -2.840  -0.332   2.712  0.00  0.00    +0.000 C 
ATOM      9  C   UNL     1      -4.035   0.272   3.451  0.00  0.00    +0.000 C 
ATOM     10  C   UNL     1      -5.037   0.615   2.364  0.00  0.00    +0.000 C 
ATOM     11  C   UNL     1      -4.649  -0.356   1.266  0.00  0.00    +0.000 C 
ENDBRANCH   4   7
BRANCH   1  13
ATOM     12  O   UNL     1       0.008   0.229  -4.133  0.00  0.00    +0.000 OA
ATOM     13  N   UNL     1       0.352  -0.249  -3.041  0.00  0.00    +0.000 N 
ATOM     14  O   UNL     1       1.610  -0.775  -2.930  0.00  0.00    +0.000 OA
ENDBRANCH   1  13
BRANCH   6  15
ATOM     15  N   UNL     1       1.381  -0.240  -0.390  0.00  0.00    +0.000 NA
BRANCH  15  16
ATOM     16  C   UNL     1       1.963  -0.234   0.920  0.00  0.00    +0.000 C 
BRANCH  16  17
ATOM     17  C   UNL     1       3.455  -0.206   0.765  0.00  0.00    +0.000 A 
ATOM     18  C   UNL     1       4.302  -0.190   1.851  0.00  0.00    +0.000 A 
ATOM     19  C   UNL     1       5.569  -0.166   1.319  0.00  0.00    +0.000 A 
ATOM     20  C   UNL     1       5.418  -0.169  -0.052  0.00  0.00    +0.000 A 
ATOM     21  O   UNL     1       4.142  -0.193  -0.331  0.00  0.00    +0.000 OA
ENDBRANCH  16  17
ENDBRANCH  15  16
ENDBRANCH   6  15
TORSDOF 5
