REMARK  Name = 
REMARK  5 active torsions:
REMARK  status: ('A' for Active; 'I' for Inactive)
REMARK    1  A    between atoms: C_5  and  O_6
REMARK    2  A    between atoms: O_6  and  C_7
REMARK    3  A    between atoms: C_7  and  C_8
REMARK    4  A    between atoms: C_8  and  S_9
REMARK    5  A    between atoms: S_9  and  C_10
REMARK                            x       y       z     vdW  Elec       q    Type
REMARK                         _______ _______ _______ _____ _____    ______ ____
ROOT
ATOM      1  C   UNL     1       0.230  -0.592  -0.784  0.00  0.00    +0.000 C 
ENDROOT
BRANCH   1   2
ATOM      2  C   UNL     1       0.517   0.040   0.550  0.00  0.00    +0.000 C 
BRANCH   2   3
ATOM      3  O   UNL     1       1.561   0.958   0.479  0.00  0.00    +0.000 OA
BRANCH   3   8
ATOM      4  C   UNL     1       6.984   0.173  -1.069  0.00  0.00    +0.000 C 
ATOM      5  C   UNL     1       5.556   0.334  -0.670  0.00  0.00    +0.000 A 
ATOM      6  C   UNL     1       5.083   1.568  -0.289  0.00  0.00    +0.000 A 
ATOM      7  C   UNL     1       3.757   1.763   0.090  0.00  0.00    +0.000 A 
ATOM      8  C   UNL     1       2.861   0.698   0.093  0.00  0.00    +0.000 A 
ATOM      9  C   UNL     1       3.355  -0.524  -0.290  0.00  0.00    +0.000 A 
ATOM     10  C   UNL     1       4.674  -0.726  -0.668  0.00  0.00    +0.000 A 
ENDBRANCH   3   8
ENDBRANCH   2   3
ENDBRANCH   1   2
BRANCH   1  11
ATOM     11  S   UNL     1      -1.125  -1.783  -0.692  0.00  0.00    +0.000 S 
BRANCH  11  12
ATOM     12  C   UNL     1      -2.667  -0.960  -0.305  0.00  0.00    +0.000 A 
ATOM     13  C   UNL     1      -3.798  -1.760  -0.208  0.00  0.00    +0.000 A 
ATOM     14  C   UNL     1      -4.993  -1.143   0.092  0.00  0.00    +0.000 A 
ATOM     15  C   UNL     1      -6.274  -1.896   0.222  0.00  0.00    +0.000 C 
ATOM     16  N   UNL     1      -5.046   0.189   0.282  0.00  0.00    +0.000 NA
ATOM     17  C   UNL     1      -3.928   0.942   0.181  0.00  0.00    +0.000 A 
ATOM     18  N   UNL     1      -4.001   2.359   0.387  0.00  0.00    +0.000 NA
ATOM     19  N   UNL     1      -2.747   0.358  -0.112  0.00  0.00    +0.000 NA
ENDBRANCH  11  12
ENDBRANCH   1  11
TORSDOF 5
