REMARK  Name = 
REMARK  3 active torsions:
REMARK  status: ('A' for Active; 'I' for Inactive)
REMARK    1  A    between atoms: O_2  and  C_3
REMARK    2  A    between atoms: C_8  and  N_9
REMARK    3  A    between atoms: C_10  and  C_12
REMARK                            x       y       z     vdW  Elec       q    Type
REMARK                         _______ _______ _______ _____ _____    ______ ____
ROOT
ATOM      1  N   UNL     1      -0.622   0.028   0.349  0.00  0.00    +0.000 NA
ATOM      2  C   UNL     1       0.530  -0.654   0.769  0.00  0.00    +0.000 C 
ATOM      3  O   UNL     1       0.473  -1.371   1.781  0.00  0.00    +0.000 OA
ENDROOT
BRANCH   2   4
ATOM      4  C   UNL     1       1.827  -0.552   0.044  0.00  0.00    +0.000 A 
ATOM      5  C   UNL     1       2.930  -1.226   0.475  0.00  0.00    +0.000 A 
ATOM      6  N   UNL     1       3.088  -2.091   1.595  0.00  0.00    +0.000 NA
ATOM      7  S   UNL     1       4.125  -0.798  -0.650  0.00  0.00    +0.000 S 
ATOM      8  C   UNL     1       3.212   0.231  -1.655  0.00  0.00    +0.000 A 
ATOM      9  C   UNL     1       1.977   0.212  -1.075  0.00  0.00    +0.000 A 
ATOM     10  C   UNL     1       0.965   1.081  -1.815  0.00  0.00    +0.000 C 
ATOM     11  C   UNL     1       1.027   0.584  -3.252  0.00  0.00    +0.000 C 
ATOM     12  C   UNL     1       2.370   0.763  -3.873  0.00  0.00    +0.000 C 
ATOM     13  C   UNL     1       3.471   1.051  -2.900  0.00  0.00    +0.000 C 
ENDBRANCH   2   4
BRANCH   1  19
ATOM     14  C   UNL     1      -2.970   0.629   0.577  0.00  0.00    +0.000 A 
ATOM     15  C   UNL     1      -4.190   0.571   1.206  0.00  0.00    +0.000 A 
ATOM     16  C   UNL     1      -4.331  -0.216   2.352  0.00  0.00    +0.000 A 
ATOM     17  C   UNL     1      -3.227  -0.907   2.807  0.00  0.00    +0.000 A 
ATOM     18  C   UNL     1      -1.994  -0.844   2.165  0.00  0.00    +0.000 A 
ATOM     19  C   UNL     1      -1.871  -0.063   1.035  0.00  0.00    +0.000 A 
BRANCH  14  21
ATOM     20  C   UNL     1      -3.943   2.153  -1.081  0.00  0.00    +0.000 C 
ATOM     21  O   UNL     1      -2.849   1.419  -0.564  0.00  0.00    +0.000 OA
ENDBRANCH  14  21
ENDBRANCH   1  19
TORSDOF 3
