REMARK  Name = 
REMARK  2 active torsions:
REMARK  status: ('A' for Active; 'I' for Inactive)
REMARK    1  A    between atoms: O_2  and  C_3
REMARK    2  A    between atoms: C_7  and  C_8
REMARK                            x       y       z     vdW  Elec       q    Type
REMARK                         _______ _______ _______ _____ _____    ______ ____
ROOT
ATOM      1  C   UNL     1       0.533  -1.225  -0.776  0.00  0.00    +0.000 C 
ATOM      2  C   UNL     1       0.343  -2.542   0.140  0.00  0.00    +0.000 C 
ATOM      3  C   UNL     1      -0.763  -3.311  -0.498  0.00  0.00    +0.000 C 
ATOM      4  O   UNL     1      -0.630  -4.378  -1.096  0.00  0.00    +0.000 OA
ATOM      5  N   UNL     1      -2.042  -2.671  -0.347  0.00  0.00    +0.000 NA
ATOM      6  C   UNL     1      -1.938  -1.226  -0.336  0.00  0.00    +0.000 A 
ATOM      7  C   UNL     1      -3.189  -0.595  -0.111  0.00  0.00    +0.000 A 
ATOM      8  C   UNL     1      -3.197   0.775  -0.017  0.00  0.00    +0.000 A 
ATOM      9  C   UNL     1      -4.499   1.486   0.222  0.00  0.00    +0.000 C 
ATOM     10  C   UNL     1      -2.031   1.510  -0.138  0.00  0.00    +0.000 A 
ATOM     11  C   UNL     1      -2.140   2.986  -0.021  0.00  0.00    +0.000 C 
ATOM     12  C   UNL     1      -0.835   0.861  -0.358  0.00  0.00    +0.000 A 
ATOM     13  C   UNL     1      -0.807  -0.516  -0.456  0.00  0.00    +0.000 A 
ENDROOT
BRANCH   1  18
ATOM     14  C   UNL     1       2.839   1.557   0.316  0.00  0.00    +0.000 A 
ATOM     15  C   UNL     1       3.076   1.252   1.615  0.00  0.00    +0.000 A 
ATOM     16  C   UNL     1       2.511   0.132   2.225  0.00  0.00    +0.000 A 
ATOM     17  C   UNL     1       1.685  -0.684   1.470  0.00  0.00    +0.000 A 
ATOM     18  C   UNL     1       1.463  -0.371   0.201  0.00  0.00    +0.000 A 
ATOM     19  C   UNL     1       2.005   0.728  -0.435  0.00  0.00    +0.000 A 
BRANCH  14  21
ATOM     20  C   UNL     1       4.236   3.574   0.308  0.00  0.00    +0.000 C 
ATOM     21  O   UNL     1       3.380   2.656  -0.324  0.00  0.00    +0.000 OA
ENDBRANCH  14  21
ENDBRANCH   1  18
TORSDOF 2
