REMARK  Name = 
REMARK  2 active torsions:
REMARK  status: ('A' for Active; 'I' for Inactive)
REMARK    1  A    between atoms: O_2  and  C_3
REMARK    2  A    between atoms: C_6  and  C_7
REMARK                            x       y       z     vdW  Elec       q    Type
REMARK                         _______ _______ _______ _____ _____    ______ ____
ROOT
ATOM      1  C   UNL     1       0.831   0.054   0.114  0.00  0.00    +0.000 A 
ATOM      2  N   UNL     1       0.296  -0.461  -0.995  0.00  0.00    +0.000 NA
ATOM      3  C   UNL     1      -0.999  -0.734  -1.181  0.00  0.00    +0.000 A 
ATOM      4  N   UNL     1      -1.451  -1.289  -2.423  0.00  0.00    +0.000 NA
ATOM      5  C   UNL     1      -1.917  -0.471  -0.142  0.00  0.00    +0.000 A 
ATOM      6  C   UNL     1      -3.250  -0.678  -0.145  0.00  0.00    +0.000 A 
ATOM      7  C   UNL     1      -3.938  -0.340   0.991  0.00  0.00    +0.000 A 
ATOM      8  S   UNL     1      -2.723   0.250   2.021  0.00  0.00    +0.000 S 
ATOM      9  C   UNL     1      -1.367   0.057   0.990  0.00  0.00    +0.000 A 
ATOM     10  N   UNL     1      -0.023   0.313   1.114  0.00  0.00    +0.000 NA
ATOM     11  C   UNL     1      -5.428  -0.559   1.021  0.00  0.00    +0.000 C 
ATOM     12  C   UNL     1      -6.086  -0.082  -0.230  0.00  0.00    +0.000 C 
ATOM     13  C   UNL     1      -5.200  -0.131  -1.443  0.00  0.00    +0.000 C 
ATOM     14  C   UNL     1      -4.176  -1.242  -1.224  0.00  0.00    +0.000 C 
ENDROOT
BRANCH   1  18
ATOM     15  C   UNL     1       5.007   0.824   0.432  0.00  0.00    +0.000 A 
ATOM     16  C   UNL     1       4.157   1.110   1.502  0.00  0.00    +0.000 A 
ATOM     17  C   UNL     1       2.809   0.848   1.363  0.00  0.00    +0.000 A 
ATOM     18  C   UNL     1       2.263   0.315   0.215  0.00  0.00    +0.000 A 
ATOM     19  C   UNL     1       3.134   0.046  -0.817  0.00  0.00    +0.000 A 
ATOM     20  C   UNL     1       4.489   0.291  -0.728  0.00  0.00    +0.000 A 
BRANCH  15  22
ATOM     21  C   UNL     1       7.209   0.794  -0.516  0.00  0.00    +0.000 C 
ATOM     22  O   UNL     1       6.362   1.086   0.567  0.00  0.00    +0.000 OA
ENDBRANCH  15  22
ENDBRANCH   1  18
TORSDOF 2
