REMARK  Name = 
REMARK  1 active torsions:
REMARK  status: ('A' for Active; 'I' for Inactive)
REMARK    1  A    between atoms: C_7  and  C_8
REMARK                            x       y       z     vdW  Elec       q    Type
REMARK                         _______ _______ _______ _____ _____    ______ ____
ROOT
ATOM      1  C   UNL     1      -1.492   0.257   0.370  0.00  0.00    +0.000 C 
ATOM      2  N   UNL     1      -0.686   1.200   0.586  0.00  0.00    +0.000 NA
ATOM      3  N   UNL     1       0.633   0.914   0.716  0.00  0.00    +0.000 NA
ATOM      4  C   UNL     1       1.100  -0.354   0.543  0.00  0.00    +0.000 C 
ATOM      5  C   UNL     1       1.749  -1.204   1.457  0.00  0.00    +0.000 C 
ATOM      6  C   UNL     1       3.232  -1.390   0.785  0.00  0.00    +0.000 C 
ATOM      7  C   UNL     1       2.542  -1.870  -0.575  0.00  0.00    +0.000 C 
ATOM      8  C   UNL     1       1.639  -0.617  -0.964  0.00  0.00    +0.000 C 
ATOM      9  C   UNL     1       2.985   0.391  -1.018  0.00  0.00    +0.000 C 
ATOM     10  C   UNL     1       4.116  -0.593  -1.577  0.00  0.00    +0.000 C 
ATOM     11  C   UNL     1       5.262   0.039  -0.961  0.00  0.00    +0.000 C 
ATOM     12  C   UNL     1       4.943   0.339   0.415  0.00  0.00    +0.000 C 
ATOM     13  C   UNL     1       3.347   0.269   0.568  0.00  0.00    +0.000 C 
ATOM     14  S   UNL     1      -0.523  -1.243   0.308  0.00  0.00    +0.000 S 
ENDROOT
BRANCH   1  21
ATOM     15  O   UNL     1      -2.952   2.595   0.473  0.00  0.00    +0.000 OA
ATOM     16  C   UNL     1      -3.655   1.423   0.242  0.00  0.00    +0.000 A 
ATOM     17  C   UNL     1      -5.011   1.363   0.065  0.00  0.00    +0.000 A 
ATOM     18  C   UNL     1      -5.704   0.195  -0.164  0.00  0.00    +0.000 A 
ATOM     19  C   UNL     1      -4.972  -0.999  -0.218  0.00  0.00    +0.000 A 
ATOM     20  C   UNL     1      -3.611  -0.945  -0.041  0.00  0.00    +0.000 A 
ATOM     21  C   UNL     1      -2.940   0.229   0.186  0.00  0.00    +0.000 A 
ENDBRANCH   1  21
TORSDOF 1
