REMARK  Name = 
REMARK  3 active torsions:
REMARK  status: ('A' for Active; 'I' for Inactive)
REMARK    1  A    between atoms: C_2  and  C_5
REMARK    2  A    between atoms: C_8  and  C_9
REMARK    3  A    between atoms: N_11  and  C_12
REMARK                            x       y       z     vdW  Elec       q    Type
REMARK                         _______ _______ _______ _____ _____    ______ ____
ROOT
ATOM      1  C   UNL     1       3.421  -0.134  -0.289  0.00  0.00    +0.000 A 
ATOM      2  C   UNL     1       2.948  -0.496   0.942  0.00  0.00    +0.000 A 
ATOM      3  C   UNL     1       1.572  -0.357   1.187  0.00  0.00    +0.000 A 
ATOM      4  C   UNL     1       0.734   0.119   0.238  0.00  0.00    +0.000 A 
ATOM      5  C   UNL     1       1.272   0.477  -1.005  0.00  0.00    +0.000 A 
ATOM      6  C   UNL     1       2.612   0.357  -1.282  0.00  0.00    +0.000 A 
ENDROOT
BRANCH   1   8
ATOM      7  C   UNL     1       5.073  -1.316  -1.692  0.00  0.00    +0.000 C 
ATOM      8  C   UNL     1       4.874  -0.214  -0.686  0.00  0.00    +0.000 C 
ATOM      9  C   UNL     1       5.306   1.071  -1.358  0.00  0.00    +0.000 C 
ATOM     10  C   UNL     1       5.730  -0.413   0.541  0.00  0.00    +0.000 C 
ENDBRANCH   1   8
BRANCH   4  11
ATOM     11  C   UNL     1      -0.721   0.297   0.428  0.00  0.00    +0.000 C 
ATOM     12  O   UNL     1      -1.109   0.829   1.498  0.00  0.00    +0.000 OA
ATOM     13  N   UNL     1      -1.658  -0.089  -0.508  0.00  0.00    +0.000 NA
BRANCH  13  14
ATOM     14  C   UNL     1      -3.057   0.027  -0.423  0.00  0.00    +0.000 A 
ATOM     15  C   UNL     1      -3.652   0.683   0.650  0.00  0.00    +0.000 A 
ATOM     16  C   UNL     1      -5.016   0.809   0.716  0.00  0.00    +0.000 A 
ATOM     17  C   UNL     1      -5.870   0.315  -0.238  0.00  0.00    +0.000 A 
ATOM     18  C   UNL     1      -5.280  -0.341  -1.306  0.00  0.00    +0.000 A 
ATOM     19  C   UNL     1      -3.893  -0.483  -1.394  0.00  0.00    +0.000 A 
ATOM     20  O   UNL     1      -3.287  -1.142  -2.459  0.00  0.00    +0.000 OA
ENDBRANCH  13  14
ENDBRANCH   4  11
TORSDOF 3
