REMARK  Name = 
REMARK  4 active torsions:
REMARK  status: ('A' for Active; 'I' for Inactive)
REMARK    1  A    between atoms: O_2  and  C_3
REMARK    2  A    between atoms: C_6  and  C_7
REMARK    3  A    between atoms: C_7  and  N_8
REMARK    4  A    between atoms: N_8  and  C_9
REMARK                            x       y       z     vdW  Elec       q    Type
REMARK                         _______ _______ _______ _____ _____    ______ ____
ROOT
ATOM      1  C   UNL     1       0.080  -0.208   0.575  0.00  0.00    +0.000 C 
ENDROOT
BRANCH   1   5
ATOM      2  C   UNL     1       4.331  -0.048   0.767  0.00  0.00    +0.000 A 
ATOM      3  C   UNL     1       3.685   0.059  -0.448  0.00  0.00    +0.000 A 
ATOM      4  C   UNL     1       2.283   0.006  -0.509  0.00  0.00    +0.000 A 
ATOM      5  C   UNL     1       1.548  -0.153   0.642  0.00  0.00    +0.000 A 
ATOM      6  C   UNL     1       2.195  -0.258   1.840  0.00  0.00    +0.000 A 
ATOM      7  O   UNL     1       1.518  -0.418   3.033  0.00  0.00    +0.000 OA
ATOM      8  C   UNL     1       3.594  -0.207   1.920  0.00  0.00    +0.000 A 
BRANCH   2  10
ATOM      9  C   UNL     1       6.461   0.163  -0.315  0.00  0.00    +0.000 C 
ATOM     10  O   UNL     1       5.717  -0.001   0.878  0.00  0.00    +0.000 OA
ENDBRANCH   2  10
ENDBRANCH   1   5
BRANCH   1  11
ATOM     11  N   UNL     1      -0.429  -0.082  -0.763  0.00  0.00    +0.000 NA
BRANCH  11  12
ATOM     12  C   UNL     1      -1.854  -0.122  -0.954  0.00  0.00    +0.000 A 
ATOM     13  C   UNL     1      -2.406  -0.006  -2.216  0.00  0.00    +0.000 A 
ATOM     14  C   UNL     1      -3.763  -0.041  -2.429  0.00  0.00    +0.000 A 
ATOM     15  C   UNL     1      -4.635  -0.196  -1.363  0.00  0.00    +0.000 A 
ATOM     16 BR   UNL     1      -6.501  -0.240  -1.686  0.00  0.00    +0.000 Br
ATOM     17  C   UNL     1      -4.073  -0.310  -0.110  0.00  0.00    +0.000 A 
ATOM     18  C   UNL     1      -5.036  -0.478   1.035  0.00  0.00    +0.000 C 
ATOM     19  C   UNL     1      -2.713  -0.276   0.102  0.00  0.00    +0.000 A 
ENDBRANCH  11  12
ENDBRANCH   1  11
TORSDOF 4
