REMARK  Name = 
REMARK  3 active torsions:
REMARK  status: ('A' for Active; 'I' for Inactive)
REMARK    1  A    between atoms: C_2  and  C_3
REMARK    2  A    between atoms: C_3  and  C_4
REMARK    3  A    between atoms: C_10  and  C_11
REMARK                            x       y       z     vdW  Elec       q    Type
REMARK                         _______ _______ _______ _____ _____    ______ ____
ROOT
ATOM      1  C   UNL     1       3.749  -0.968  -0.172  0.00  0.00    +0.000 A 
ATOM      2  C   UNL     1       2.693  -1.782  -0.337  0.00  0.00    +0.000 A 
ATOM      3  C   UNL     1       1.455  -1.315  -0.225  0.00  0.00    +0.000 A 
ATOM      4  C   UNL     1       1.329   0.024   0.064  0.00  0.00    +0.000 A 
ATOM      5  S   UNL     1       2.949   0.536   0.158  0.00  0.00    +0.000 S 
ATOM      6  N   UNL     1       0.047   0.651   0.202  0.00  0.00    +0.000 NA
ATOM      7  C   UNL     1      -1.020   0.062  -0.881  0.00  0.00    +0.000 C 
ATOM      8  N   UNL     1      -1.057  -1.346  -0.150  0.00  0.00    +0.000 NA
ATOM      9  C   UNL     1       0.169  -2.015  -0.333  0.00  0.00    +0.000 C 
ATOM     10  O   UNL     1       0.177  -3.269  -0.602  0.00  0.00    +0.000 OA
ENDROOT
BRANCH   7  11
ATOM     11  C   UNL     1      -2.346   0.642  -0.203  0.00  0.00    +0.000 A 
ATOM     12  C   UNL     1      -2.663   0.619   1.064  0.00  0.00    +0.000 A 
ATOM     13  C   UNL     1      -3.852   1.167   1.483  0.00  0.00    +0.000 A 
ATOM     14  C   UNL     1      -4.715   1.741   0.590  0.00  0.00    +0.000 A 
ATOM     15  C   UNL     1      -6.027   2.344   1.065  0.00  0.00    +0.000 C 
ATOM     16  C   UNL     1      -4.400   1.776  -0.745  0.00  0.00    +0.000 A 
ATOM     17  C   UNL     1      -3.178   1.207  -1.137  0.00  0.00    +0.000 A 
ENDBRANCH   7  11
BRANCH   1  18
ATOM     18  C   UNL     1       5.215  -1.250  -0.247  0.00  0.00    +0.000 C 
BRANCH  18  20
ATOM     19  C   UNL     1       5.538   1.107  -1.011  0.00  0.00    +0.000 C 
ATOM     20  C   UNL     1       5.935   0.069   0.029  0.00  0.00    +0.000 C 
ENDBRANCH  18  20
ENDBRANCH   1  18
TORSDOF 3
