REMARK  Name = 
REMARK  3 active torsions:
REMARK  status: ('A' for Active; 'I' for Inactive)
REMARK    1  A    between atoms: C_3  and  C_4
REMARK    2  A    between atoms: C_8  and  C_9
REMARK    3  A    between atoms: C_12  and  C_13
REMARK                            x       y       z     vdW  Elec       q    Type
REMARK                         _______ _______ _______ _____ _____    ______ ____
ROOT
ATOM      1  C   UNL     1      -3.127  -1.962   0.693  0.00  0.00    +0.000 C 
ATOM      2  C   UNL     1      -2.140  -0.892   0.427  0.00  0.00    +0.000 A 
ATOM      3  C   UNL     1      -2.629   0.369   0.282  0.00  0.00    +0.000 A 
ATOM      4  C   UNL     1      -1.749   1.389   0.030  0.00  0.00    +0.000 A 
ATOM      5  C   UNL     1      -0.400   1.111  -0.065  0.00  0.00    +0.000 A 
ATOM      6  C   UNL     1       0.074  -0.186   0.090  0.00  0.00    +0.000 A 
ATOM      7  C   UNL     1      -0.816  -1.225   0.343  0.00  0.00    +0.000 A 
ATOM      8 CL   UNL     1      -0.337  -2.891   0.546  0.00  0.00    +0.000 Cl
ENDROOT
BRANCH   6   9
ATOM      9  C   UNL     1       1.468  -0.527   0.034  0.00  0.00    +0.000 A 
ATOM     10  C   UNL     1       2.231  -0.667   1.164  0.00  0.00    +0.000 A 
ATOM     11  C   UNL     1       3.582  -0.988   1.155  0.00  0.00    +0.000 A 
ATOM     12  C   UNL     1       4.181  -1.176  -0.100  0.00  0.00    +0.000 A 
ATOM     13  O   UNL     1       5.553  -1.509  -0.152  0.00  0.00    +0.000 OA
ATOM     14  C   UNL     1       3.425  -1.037  -1.227  0.00  0.00    +0.000 A 
ATOM     15  C   UNL     1       2.070  -0.716  -1.210  0.00  0.00    +0.000 A 
ENDBRANCH   6   9
BRANCH   3  16
ATOM     16  C   UNL     1      -4.164   0.653   0.467  0.00  0.00    +0.000 C 
ATOM     17  C   UNL     1      -4.186   2.115  -0.262  0.00  0.00    +0.000 C 
ATOM     18  O   UNL     1      -4.738  -0.084  -0.716  0.00  0.00    +0.000 OA
ENDBRANCH   3  16
BRANCH   5  19
ATOM     19  C   UNL     1       0.528   2.251  -0.308  0.00  0.00    +0.000 C 
ATOM     20  C   UNL     1      -0.254   3.492  -0.660  0.00  0.00    +0.000 C 
ATOM     21  C   UNL     1       1.426   2.479   0.890  0.00  0.00    +0.000 C 
ENDBRANCH   5  19
TORSDOF 3
