REMARK  Name = 
REMARK  3 active torsions:
REMARK  status: ('A' for Active; 'I' for Inactive)
REMARK    1  A    between atoms: O_2  and  C_3
REMARK    2  A    between atoms: C_8  and  C_9
REMARK    3  A    between atoms: C_9  and  C_11
REMARK                            x       y       z     vdW  Elec       q    Type
REMARK                         _______ _______ _______ _____ _____    ______ ____
ROOT
ATOM      1  C   UNL     1      -0.574   1.073  -0.383  0.00  0.00    +0.000 C 
ATOM      2  O   UNL     1      -1.103   1.960  -1.100  0.00  0.00    +0.000 OA
ENDROOT
BRANCH   1   3
ATOM      3  C   UNL     1       0.869   1.147  -0.021  0.00  0.00    +0.000 A 
ATOM      4  C   UNL     1       1.601   2.251  -0.439  0.00  0.00    +0.000 A 
ATOM      5  N   UNL     1       1.127   3.405  -1.181  0.00  0.00    +0.000 NA
ATOM      6  S   UNL     1       3.171   1.931   0.127  0.00  0.00    +0.000 S 
ATOM      7  C   UNL     1       2.913   0.451   0.867  0.00  0.00    +0.000 A 
ATOM      8  C   UNL     1       1.558   0.209   0.660  0.00  0.00    +0.000 A 
ATOM      9  C   UNL     1       1.048  -1.115   1.234  0.00  0.00    +0.000 C 
ATOM     10  C   UNL     1       1.979  -2.205   0.955  0.00  0.00    +0.000 C 
ATOM     11  C   UNL     1       3.425  -1.882   0.875  0.00  0.00    +0.000 C 
ATOM     12  C   UNL     1       3.704  -0.606   1.627  0.00  0.00    +0.000 C 
ENDBRANCH   1   3
BRANCH   1  18
ATOM     13  C   UNL     1      -2.321  -0.531  -0.932  0.00  0.00    +0.000 A 
ATOM     14  C   UNL     1      -3.220  -1.507  -0.577  0.00  0.00    +0.000 A 
ATOM     15  C   UNL     1      -3.305  -1.966   0.703  0.00  0.00    +0.000 A 
ATOM     16  C   UNL     1      -2.485  -1.457   1.670  0.00  0.00    +0.000 A 
ATOM     17  C   UNL     1      -1.575  -0.471   1.318  0.00  0.00    +0.000 A 
ATOM     18  C   UNL     1      -1.465   0.011   0.042  0.00  0.00    +0.000 A 
BRANCH  13  20
ATOM     19  C   UNL     1      -3.110  -0.629  -3.205  0.00  0.00    +0.000 C 
ATOM     20  O   UNL     1      -2.237  -0.066  -2.240  0.00  0.00    +0.000 OA
ENDBRANCH  13  20
ENDBRANCH   1  18
TORSDOF 3
