REMARK  Name = 
REMARK  3 active torsions:
REMARK  status: ('A' for Active; 'I' for Inactive)
REMARK    1  A    between atoms: C_7  and  N_8
REMARK    2  A    between atoms: C_9  and  C_11
REMARK    3  A    between atoms: C_14  and  N_15
REMARK                            x       y       z     vdW  Elec       q    Type
REMARK                         _______ _______ _______ _____ _____    ______ ____
ROOT
ATOM      1  N   UNL     1      -1.750   0.091   0.104  0.00  0.00    +0.000 NA
ATOM      2  C   UNL     1      -0.744  -0.589   0.803  0.00  0.00    +0.000 C 
ATOM      3  O   UNL     1      -1.028  -1.409   1.740  0.00  0.00    +0.000 OA
ENDROOT
BRANCH   1  10
ATOM      4  C   UNL     1      -3.453   2.122   0.957  0.00  0.00    +0.000 C 
ATOM      5  C   UNL     1      -4.081   1.018  -0.095  0.00  0.00    +0.000 C 
ATOM      6  C   UNL     1      -3.106   1.465  -1.301  0.00  0.00    +0.000 C 
ATOM      7  C   UNL     1      -3.112   0.388  -2.333  0.00  0.00    +0.000 C 
ATOM      8  C   UNL     1      -3.890  -0.764  -1.806  0.00  0.00    +0.000 C 
ATOM      9  C   UNL     1      -3.481  -1.364  -0.565  0.00  0.00    +0.000 C 
ATOM     10  C   UNL     1      -3.199  -0.259   0.603  0.00  0.00    +0.000 C 
ENDBRANCH   1  10
BRANCH   2  11
ATOM     11  C   UNL     1       0.681  -0.388   0.493  0.00  0.00    +0.000 A 
ATOM     12  C   UNL     1       1.077   0.414  -0.564  0.00  0.00    +0.000 A 
ATOM     13  C   UNL     1       2.418   0.580  -0.819  0.00  0.00    +0.000 A 
ATOM     14  C   UNL     1       3.401  -0.039  -0.049  0.00  0.00    +0.000 A 
ATOM     15  C   UNL     1       3.001  -0.835   0.995  0.00  0.00    +0.000 A 
ATOM     16  C   UNL     1       1.666  -0.987   1.236  0.00  0.00    +0.000 A 
BRANCH  14  17
ATOM     17  N   UNL     1       4.783   0.116  -0.307  0.00  0.00    +0.000 N 
ATOM     18  O   UNL     1       5.628  -0.449   0.405  0.00  0.00    +0.000 OA
ATOM     19  O   UNL     1       5.190   0.890  -1.351  0.00  0.00    +0.000 OA
ENDBRANCH  14  17
ENDBRANCH   2  11
TORSDOF 3
