REMARK  Name = 
REMARK  4 active torsions:
REMARK  status: ('A' for Active; 'I' for Inactive)
REMARK    1  A    between atoms: O_2  and  C_3
REMARK    2  A    between atoms: C_3  and  C_4
REMARK    3  A    between atoms: C_9  and  N_10
REMARK    4  A    between atoms: C_15  and  C_16
REMARK                            x       y       z     vdW  Elec       q    Type
REMARK                         _______ _______ _______ _____ _____    ______ ____
ROOT
ATOM      1  C   UNL     1      -1.412  -0.934  -1.163  0.00  0.00    +0.000 A 
ATOM      2  N   UNL     1      -0.501  -1.922  -1.361  0.00  0.00    +0.000 NA
ATOM      3  C   UNL     1       0.657  -1.638  -0.734  0.00  0.00    +0.000 A 
ATOM      4  C   UNL     1       1.875  -2.292  -0.617  0.00  0.00    +0.000 A 
ATOM      5  C   UNL     1       2.915  -1.764   0.101  0.00  0.00    +0.000 A 
ATOM      6  C   UNL     1       2.771  -0.552   0.733  0.00  0.00    +0.000 A 
ATOM      7  C   UNL     1       1.562   0.136   0.640  0.00  0.00    +0.000 A 
ATOM      8  C   UNL     1       0.526  -0.427  -0.096  0.00  0.00    +0.000 A 
ATOM      9  C   UNL     1      -0.784  -0.008  -0.382  0.00  0.00    +0.000 A 
ENDROOT
BRANCH   9  10
ATOM     10  C   UNL     1      -1.334   1.241   0.107  0.00  0.00    +0.000 A 
ATOM     11  C   UNL     1      -2.359   1.255   1.048  0.00  0.00    +0.000 A 
ATOM     12  C   UNL     1      -2.862   2.428   1.522  0.00  0.00    +0.000 A 
ATOM     13  C   UNL     1      -2.377   3.681   1.093  0.00  0.00    +0.000 A 
ATOM     14  C   UNL     1      -1.365   3.657   0.164  0.00  0.00    +0.000 A 
ATOM     15  C   UNL     1      -0.852   2.476  -0.322  0.00  0.00    +0.000 A 
ENDBRANCH   9  10
BRANCH   6  16
ATOM     16  N   UNL     1       3.822   0.049   1.473  0.00  0.00    +0.000 N 
ATOM     17  O   UNL     1       4.876  -0.566   1.625  0.00  0.00    +0.000 OA
ATOM     18  O   UNL     1       3.661   1.277   2.016  0.00  0.00    +0.000 OA
ENDBRANCH   6  16
BRANCH   1  19
ATOM     19  C   UNL     1      -2.811  -0.887  -1.685  0.00  0.00    +0.000 C 
BRANCH  19  21
ATOM     20  C   UNL     1      -2.924  -3.186  -1.707  0.00  0.00    +0.000 C 
ATOM     21  O   UNL     1      -3.082  -2.025  -2.455  0.00  0.00    +0.000 OA
ENDBRANCH  19  21
ENDBRANCH   1  19
TORSDOF 4
