REMARK  Name = 
REMARK  1 active torsions:
REMARK  status: ('A' for Active; 'I' for Inactive)
REMARK    1  A    between atoms: N_12  and  C_13
REMARK                            x       y       z     vdW  Elec       q    Type
REMARK                         _______ _______ _______ _____ _____    ______ ____
ROOT
ATOM      1  C   UNL     1       0.261   1.840  -0.799  0.00  0.00    +0.000 C 
ATOM      2  C   UNL     1      -0.565   0.569  -1.475  0.00  0.00    +0.000 C 
ATOM      3  C   UNL     1      -1.750   0.531  -0.396  0.00  0.00    +0.000 A 
ATOM      4  C   UNL     1      -2.168   1.605   0.261  0.00  0.00    +0.000 A 
ATOM      5  C   UNL     1      -3.205   1.468   1.155  0.00  0.00    +0.000 A 
ATOM      6  C   UNL     1      -3.791   0.234   1.355  0.00  0.00    +0.000 A 
ATOM      7  O   UNL     1      -4.846   0.095   2.264  0.00  0.00    +0.000 OA
ATOM      8  C   UNL     1      -3.319  -0.875   0.642  0.00  0.00    +0.000 A 
ATOM      9  C   UNL     1      -2.277  -0.720  -0.251  0.00  0.00    +0.000 A 
ATOM     10  C   UNL     1      -1.772  -1.907  -0.995  0.00  0.00    +0.000 C 
ATOM     11  C   UNL     1      -0.271  -1.876  -0.749  0.00  0.00    +0.000 C 
ATOM     12  N   UNL     1       0.282  -0.563  -0.901  0.00  0.00    +0.000 N 
ENDROOT
BRANCH  12  13
ATOM     13  C   UNL     1       1.610  -0.317  -0.540  0.00  0.00    +0.000 A 
ATOM     14  C   UNL     1       2.320   0.841  -0.763  0.00  0.00    +0.000 A 
ATOM     15  C   UNL     1       3.628   1.006  -0.375  0.00  0.00    +0.000 A 
ATOM     16  C   UNL     1       4.292  -0.006   0.266  0.00  0.00    +0.000 A 
ATOM     17  O   UNL     1       5.621   0.105   0.683  0.00  0.00    +0.000 OA
ATOM     18  C   UNL     1       3.615  -1.173   0.504  0.00  0.00    +0.000 A 
ATOM     19  C   UNL     1       2.334  -1.310   0.114  0.00  0.00    +0.000 A 
ENDBRANCH  12  13
TORSDOF 1
