REMARK  Name = 
REMARK  3 active torsions:
REMARK  status: ('A' for Active; 'I' for Inactive)
REMARK    1  A    between atoms: O_2  and  C_3
REMARK    2  A    between atoms: C_8  and  O_9
REMARK    3  A    between atoms: C_11  and  C_12
REMARK                            x       y       z     vdW  Elec       q    Type
REMARK                         _______ _______ _______ _____ _____    ______ ____
ROOT
ATOM      1  C   UNL     1       2.594   1.021  -0.195  0.00  0.00    +0.000 A 
ATOM      2  C   UNL     1       2.085   1.093   1.086  0.00  0.00    +0.000 A 
ATOM      3  C   UNL     1       0.971   0.377   1.479  0.00  0.00    +0.000 A 
ATOM      4  C   UNL     1       0.387  -0.397   0.588  0.00  0.00    +0.000 A 
ATOM      5  C   UNL     1       0.841  -0.507  -0.680  0.00  0.00    +0.000 A 
ATOM      6  C   UNL     1       1.958   0.196  -1.115  0.00  0.00    +0.000 A 
ATOM      7  C   UNL     1      -0.900  -1.278   0.871  0.00  0.00    +0.000 C 
ATOM      8  C   UNL     1      -1.552  -0.331   2.050  0.00  0.00    +0.000 C 
ATOM      9  C   UNL     1      -0.609  -0.260   3.148  0.00  0.00    +0.000 C 
ATOM     10  O   UNL     1      -0.794  -0.843   4.241  0.00  0.00    +0.000 OA
ATOM     11  N   UNL     1       0.535   0.533   2.864  0.00  0.00    +0.000 NA
ENDROOT
BRANCH   7  12
ATOM     12  C   UNL     1      -1.817  -0.630  -0.272  0.00  0.00    +0.000 A 
ATOM     13  C   UNL     1      -1.828   0.743  -0.353  0.00  0.00    +0.000 A 
ATOM     14  C   UNL     1      -2.622   1.295  -1.367  0.00  0.00    +0.000 A 
ATOM     15  C   UNL     1      -3.344   0.492  -2.225  0.00  0.00    +0.000 A 
ATOM     16  C   UNL     1      -3.267  -0.875  -2.062  0.00  0.00    +0.000 A 
ATOM     17  C   UNL     1      -2.502  -1.476  -1.082  0.00  0.00    +0.000 A 
ATOM     18  F   UNL     1      -2.447  -2.824  -0.950  0.00  0.00    +0.000 F 
ENDBRANCH   7  12
BRANCH   1  20
ATOM     19  C   UNL     1       4.337   2.572   0.373  0.00  0.00    +0.000 C 
ATOM     20  O   UNL     1       3.717   1.738  -0.604  0.00  0.00    +0.000 OA
ENDBRANCH   1  20
BRANCH   6  21
ATOM     21  O   UNL     1       2.419   0.084  -2.402  0.00  0.00    +0.000 OA
ATOM     22  C   UNL     1       1.838  -0.724  -3.395  0.00  0.00    +0.000 C 
ENDBRANCH   6  21
TORSDOF 3
