REMARK  Name = 
REMARK  5 active torsions:
REMARK  status: ('A' for Active; 'I' for Inactive)
REMARK    1  A    between atoms: N_6  and  C_7
REMARK    2  A    between atoms: C_7  and  N_9
REMARK    3  A    between atoms: N_9  and  C_10
REMARK    4  A    between atoms: C_10  and  C_11
REMARK    5  A    between atoms: C_11  and  C_12
REMARK                            x       y       z     vdW  Elec       q    Type
REMARK                         _______ _______ _______ _____ _____    ______ ____
ROOT
ATOM      1  C   UNL     1      -1.271  -0.625   0.349  0.00  0.00    +0.000 C 
ATOM      2  S   UNL     1      -0.872  -0.067   1.812  0.00  0.00    +0.000 S 
ENDROOT
BRANCH   1   8
ATOM      3  O   UNL     1      -3.415   1.283  -1.338  0.00  0.00    +0.000 OA
ATOM      4  C   UNL     1      -3.906   0.062  -2.066  0.00  0.00    +0.000 C 
ATOM      5  C   UNL     1      -5.234  -0.103  -1.147  0.00  0.00    +0.000 C 
ATOM      6  C   UNL     1      -4.976  -0.454   0.210  0.00  0.00    +0.000 C 
ATOM      7  C   UNL     1      -3.693  -0.113   0.867  0.00  0.00    +0.000 C 
ATOM      8  N   UNL     1      -2.628  -0.598  -0.008  0.00  0.00    +0.000 N 
ATOM      9  C   UNL     1      -3.034  -1.053  -1.265  0.00  0.00    +0.000 C 
ENDBRANCH   1   8
BRANCH   1  10
ATOM     10  N   UNL     1      -0.287  -1.104  -0.512  0.00  0.00    +0.000 NA
BRANCH  10  11
ATOM     11  C   UNL     1       1.140  -1.171  -0.241  0.00  0.00    +0.000 C 
BRANCH  11  12
ATOM     12  C   UNL     1       1.598   0.273  -0.213  0.00  0.00    +0.000 C 
BRANCH  12  13
ATOM     13  C   UNL     1       3.039   0.439   0.045  0.00  0.00    +0.000 A 
ATOM     14  C   UNL     1       3.950   0.434  -1.034  0.00  0.00    +0.000 A 
ATOM     15  C   UNL     1       5.284   0.605  -0.756  0.00  0.00    +0.000 A 
ATOM     16  C   UNL     1       5.808   0.783   0.486  0.00  0.00    +0.000 A 
ATOM     17  C   UNL     1       4.912   0.790   1.566  0.00  0.00    +0.000 A 
ATOM     18  C   UNL     1       3.585   0.619   1.286  0.00  0.00    +0.000 A 
ENDBRANCH  12  13
ENDBRANCH  11  12
ENDBRANCH  10  11
ENDBRANCH   1  10
TORSDOF 5
