REMARK  Name = 
REMARK  3 active torsions:
REMARK  status: ('A' for Active; 'I' for Inactive)
REMARK    1  A    between atoms: C_2  and  O_3
REMARK    2  A    between atoms: O_3  and  C_4
REMARK    3  A    between atoms: C_10  and  C_11
REMARK                            x       y       z     vdW  Elec       q    Type
REMARK                         _______ _______ _______ _____ _____    ______ ____
ROOT
ATOM      1  C   UNL     1      -2.582   0.431  -0.153  0.00  0.00    +0.000 A 
ATOM      2  C   UNL     1      -3.439  -0.589  -0.519  0.00  0.00    +0.000 A 
ATOM      3  C   UNL     1      -2.977  -1.851  -0.812  0.00  0.00    +0.000 A 
ATOM      4  C   UNL     1      -1.632  -2.119  -0.744  0.00  0.00    +0.000 A 
ATOM      5  N   UNL     1      -0.868  -3.222  -0.963  0.00  0.00    +0.000 NA
ATOM      6  C   UNL     1       0.427  -2.903  -0.741  0.00  0.00    +0.000 A 
ATOM      7  C   UNL     1       0.528  -1.581  -0.373  0.00  0.00    +0.000 A 
ATOM      8  C   UNL     1      -0.767  -1.105  -0.379  0.00  0.00    +0.000 A 
ATOM      9  C   UNL     1      -1.231   0.172  -0.082  0.00  0.00    +0.000 A 
ENDROOT
BRANCH   7  10
ATOM     10  C   UNL     1       1.764  -0.817  -0.037  0.00  0.00    +0.000 A 
ATOM     11  C   UNL     1       2.991  -1.442  -0.078  0.00  0.00    +0.000 A 
ATOM     12  S   UNL     1       4.050  -0.182   0.374  0.00  0.00    +0.000 S 
ATOM     13  C   UNL     1       2.889   1.045   0.585  0.00  0.00    +0.000 A 
ATOM     14  N   UNL     1       3.062   2.420   0.975  0.00  0.00    +0.000 NA
ATOM     15  C   UNL     1       4.434   2.874   1.241  0.00  0.00    +0.000 C 
ATOM     16  N   UNL     1       1.752   0.437   0.301  0.00  0.00    +0.000 NA
ENDBRANCH   7  10
BRANCH   1  17
ATOM     17  O   UNL     1      -3.119   1.673   0.127  0.00  0.00    +0.000 OA
BRANCH  17  19
ATOM     18  C   UNL     1      -3.034   4.010   0.768  0.00  0.00    +0.000 C 
ATOM     19  C   UNL     1      -2.248   2.749   0.509  0.00  0.00    +0.000 C 
ENDBRANCH  17  19
ENDBRANCH   1  17
TORSDOF 3
