REMARK  Name = 
REMARK  3 active torsions:
REMARK  status: ('A' for Active; 'I' for Inactive)
REMARK    1  A    between atoms: C_6  and  C_7
REMARK    2  A    between atoms: N_9  and  C_10
REMARK    3  A    between atoms: C_10  and  C_11
REMARK                            x       y       z     vdW  Elec       q    Type
REMARK                         _______ _______ _______ _____ _____    ______ ____
ROOT
ATOM      1  N   UNL     1       0.376   1.449  -3.066  0.00  0.00    +0.000 NA
ATOM      2  C   UNL     1       1.217   0.794  -2.083  0.00  0.00    +0.000 A 
ATOM      3  S   UNL     1       2.906   0.859  -1.903  0.00  0.00    +0.000 S 
ATOM      4  C   UNL     1       3.075  -0.158  -0.554  0.00  0.00    +0.000 A 
ATOM      5  C   UNL     1       1.784  -0.531  -0.271  0.00  0.00    +0.000 A 
ATOM      6  C   UNL     1       0.812  -0.038  -1.063  0.00  0.00    +0.000 A 
ATOM      7  C   UNL     1       1.425  -1.464   0.886  0.00  0.00    +0.000 C 
ATOM      8  C   UNL     1       2.138  -1.064   2.134  0.00  0.00    +0.000 C 
ATOM      9  C   UNL     1       2.897   0.228   1.929  0.00  0.00    +0.000 C 
ATOM     10  C   UNL     1       4.328  -0.152   1.591  0.00  0.00    +0.000 C 
ATOM     11  C   UNL     1       4.362  -0.541   0.145  0.00  0.00    +0.000 C 
ENDROOT
BRANCH   6  12
ATOM     12  C   UNL     1      -0.637  -0.356  -0.877  0.00  0.00    +0.000 C 
ATOM     13  O   UNL     1      -1.505   0.126  -1.638  0.00  0.00    +0.000 OA
ATOM     14  N   UNL     1      -1.104  -1.206   0.157  0.00  0.00    +0.000 NA
BRANCH  14  15
ATOM     15  C   UNL     1      -2.482  -1.536   0.371  0.00  0.00    +0.000 C 
BRANCH  15  16
ATOM     16  C   UNL     1      -3.300  -0.298   0.642  0.00  0.00    +0.000 A 
ATOM     17  C   UNL     1      -2.828   0.996   0.688  0.00  0.00    +0.000 A 
ATOM     18  C   UNL     1      -3.903   1.814   0.963  0.00  0.00    +0.000 A 
ATOM     19  C   UNL     1      -4.980   0.970   1.071  0.00  0.00    +0.000 A 
ATOM     20  O   UNL     1      -4.581  -0.237   0.878  0.00  0.00    +0.000 OA
ENDBRANCH  15  16
ENDBRANCH  14  15
ENDBRANCH   6  12
TORSDOF 3
