REMARK  Name = 
REMARK  5 active torsions:
REMARK  status: ('A' for Active; 'I' for Inactive)
REMARK    1  A    between atoms: C_2  and  C_3
REMARK    2  A    between atoms: C_2  and  N_20
REMARK    3  A    between atoms: C_3  and  C_4
REMARK    4  A    between atoms: C_4  and  C_5
REMARK    5  A    between atoms: C_13  and  C_14
REMARK                            x       y       z     vdW  Elec       q    Type
REMARK                         _______ _______ _______ _____ _____    ______ ____
ROOT
ATOM      1  C   UNL     1       0.547  -0.326  -1.022  0.00  0.00    +0.000 A 
ATOM      2  O   UNL     1       1.441   0.578  -1.341  0.00  0.00    +0.000 OA
ATOM      3  C   UNL     1       1.037   1.771  -0.929  0.00  0.00    +0.000 A 
ATOM      4  C   UNL     1       1.623   3.012  -1.030  0.00  0.00    +0.000 A 
ATOM      5  C   UNL     1       0.954   4.114  -0.493  0.00  0.00    +0.000 A 
ATOM      6  C   UNL     1      -0.266   3.944   0.121  0.00  0.00    +0.000 A 
ATOM      7  C   UNL     1      -0.870   2.709   0.232  0.00  0.00    +0.000 A 
ATOM      8  C   UNL     1      -0.169   1.644  -0.316  0.00  0.00    +0.000 A 
ATOM      9  C   UNL     1      -0.493   0.310  -0.368  0.00  0.00    +0.000 A 
ENDROOT
BRANCH   9  10
ATOM     10  C   UNL     1      -1.688  -0.352   0.149  0.00  0.00    +0.000 A 
ATOM     11  C   UNL     1      -2.740   0.255   0.804  0.00  0.00    +0.000 A 
ATOM     12  C   UNL     1      -3.681  -0.725   1.135  0.00  0.00    +0.000 A 
ATOM     13  C   UNL     1      -3.135  -1.895   0.651  0.00  0.00    +0.000 A 
ATOM     14  C   UNL     1      -3.728  -3.250   0.735  0.00  0.00    +0.000 C 
ATOM     15  O   UNL     1      -1.981  -1.625   0.089  0.00  0.00    +0.000 OA
ENDBRANCH   9  10
BRANCH   1  16
ATOM     16  C   UNL     1       0.586  -1.806  -1.290  0.00  0.00    +0.000 C 
BRANCH  16  17
ATOM     17  C   UNL     1       0.931  -2.468   0.009  0.00  0.00    +0.000 C 
BRANCH  17  19
ATOM     18  C   UNL     1       3.151  -3.016   0.749  0.00  0.00    +0.000 C 
ATOM     19  C   UNL     1       2.232  -2.051   0.568  0.00  0.00    +0.000 C 
BRANCH  19  20
ATOM     20  N   UNL     1       2.523  -0.696   0.909  0.00  0.00    +0.000 NA
ATOM     21  O   UNL     1       3.723  -0.128   0.635  0.00  0.00    +0.000 OA
ENDBRANCH  19  20
ENDBRANCH  17  19
ENDBRANCH  16  17
ENDBRANCH   1  16
TORSDOF 5
