REMARK  Name = 
REMARK  4 active torsions:
REMARK  status: ('A' for Active; 'I' for Inactive)
REMARK    1  A    between atoms: C_8  and  N_9
REMARK    2  A    between atoms: C_10  and  C_12
REMARK    3  A    between atoms: C_12  and  C_14
REMARK    4  A    between atoms: C_17  and  N_18
REMARK                            x       y       z     vdW  Elec       q    Type
REMARK                         _______ _______ _______ _____ _____    ______ ____
ROOT
ATOM      1  N   UNL     1      -1.152  -0.774   0.187  0.00  0.00    +0.000 NA
ATOM      2  C   UNL     1      -0.790  -1.601  -0.920  0.00  0.00    +0.000 C 
ATOM      3  O   UNL     1      -1.373  -1.615  -1.988  0.00  0.00    +0.000 OA
ENDROOT
BRANCH   1  11
ATOM      4  C   UNL     1      -0.860   1.909  -0.883  0.00  0.00    +0.000 C 
ATOM      5  C   UNL     1      -2.194   1.338  -0.509  0.00  0.00    +0.000 A 
ATOM      6  C   UNL     1      -3.323   2.124  -0.683  0.00  0.00    +0.000 A 
ATOM      7  C   UNL     1      -4.559   1.638  -0.354  0.00  0.00    +0.000 A 
ATOM      8  C   UNL     1      -4.658   0.365   0.148  0.00  0.00    +0.000 A 
ATOM      9  C   UNL     1      -3.516  -0.410   0.317  0.00  0.00    +0.000 A 
ATOM     10  C   UNL     1      -3.712  -1.773   0.865  0.00  0.00    +0.000 C 
ATOM     11  C   UNL     1      -2.268   0.064  -0.009  0.00  0.00    +0.000 A 
ENDBRANCH   1  11
BRANCH   2  12
ATOM     12  C   UNL     1       0.486  -2.549  -0.660  0.00  0.00    +0.000 C 
ATOM     13  C   UNL     1       0.916  -2.662  -2.252  0.00  0.00    +0.000 C 
BRANCH  12  14
ATOM     14  C   UNL     1       1.497  -1.367  -0.311  0.00  0.00    +0.000 A 
ATOM     15  C   UNL     1       1.084  -0.443   0.588  0.00  0.00    +0.000 A 
ATOM     16  C   UNL     1       1.917   0.595   0.943  0.00  0.00    +0.000 A 
ATOM     17  C   UNL     1       3.185   0.673   0.362  0.00  0.00    +0.000 A 
ATOM     18  C   UNL     1       3.572  -0.288  -0.551  0.00  0.00    +0.000 A 
ATOM     19  C   UNL     1       2.708  -1.310  -0.878  0.00  0.00    +0.000 A 
BRANCH  17  20
ATOM     20  N   UNL     1       4.056   1.726   0.709  0.00  0.00    +0.000 N 
ATOM     21  O   UNL     1       3.690   2.574   1.528  0.00  0.00    +0.000 OA
ATOM     22  O   UNL     1       5.295   1.788   0.132  0.00  0.00    +0.000 OA
ENDBRANCH  17  20
ENDBRANCH  12  14
ENDBRANCH   2  12
TORSDOF 4
