REMARK  Name = 
REMARK  3 active torsions:
REMARK  status: ('A' for Active; 'I' for Inactive)
REMARK    1  A    between atoms: C_2  and  C_3
REMARK    2  A    between atoms: C_3  and  S_4
REMARK    3  A    between atoms: S_4  and  C_5
REMARK                            x       y       z     vdW  Elec       q    Type
REMARK                         _______ _______ _______ _____ _____    ______ ____
ROOT
ATOM      1  O   UNL     1      -0.429  -0.462   0.713  0.00  0.00    +0.000 OA
ATOM      2  C   UNL     1      -1.472  -0.197  -0.137  0.00  0.00    +0.000 C 
ATOM      3  C   UNL     1      -2.078   1.167   0.210  0.00  0.00    +0.000 C 
ATOM      4  C   UNL     1      -2.913   1.103   1.446  0.00  0.00    +0.000 C 
ATOM      5  C   UNL     1      -4.041   0.087   1.348  0.00  0.00    +0.000 C 
ATOM      6  C   UNL     1      -4.884   0.468   0.136  0.00  0.00    +0.000 C 
ATOM      7  C   UNL     1      -4.010   0.488  -1.118  0.00  0.00    +0.000 C 
ATOM      8  C   UNL     1      -2.935   1.532  -1.003  0.00  0.00    +0.000 C 
ATOM      9  C   UNL     1      -3.469  -0.913  -1.309  0.00  0.00    +0.000 C 
ATOM     10  C   UNL     1      -2.570  -1.239  -0.109  0.00  0.00    +0.000 C 
ATOM     11  C   UNL     1      -3.361  -1.259   1.163  0.00  0.00    +0.000 C 
ENDROOT
BRANCH   2  12
ATOM     12  C   UNL     1      -1.012  -0.138  -1.602  0.00  0.00    +0.000 C 
BRANCH  12  13
ATOM     13  S   UNL     1       0.216   1.135  -1.874  0.00  0.00    +0.000 S 
BRANCH  13  14
ATOM     14  C   UNL     1       1.700   0.701  -1.006  0.00  0.00    +0.000 A 
ATOM     15  N   UNL     1       1.983   1.041   0.262  0.00  0.00    +0.000 NA
ATOM     16  C   UNL     1       3.175   0.565   0.629  0.00  0.00    +0.000 A 
ATOM     17  C   UNL     1       3.932   0.620   1.796  0.00  0.00    +0.000 A 
ATOM     18  C   UNL     1       5.165   0.026   1.915  0.00  0.00    +0.000 A 
ATOM     19  C   UNL     1       5.656  -0.656   0.800  0.00  0.00    +0.000 A 
ATOM     20  C   UNL     1       4.915  -0.717  -0.359  0.00  0.00    +0.000 A 
ATOM     21  C   UNL     1       3.676  -0.114  -0.461  0.00  0.00    +0.000 A 
ATOM     22  N   UNL     1       2.757  -0.013  -1.440  0.00  0.00    +0.000 NA
ENDBRANCH  13  14
ENDBRANCH  12  13
ENDBRANCH   2  12
TORSDOF 3
