REMARK  Name = 
REMARK  5 active torsions:
REMARK  status: ('A' for Active; 'I' for Inactive)
REMARK    1  A    between atoms: C_2  and  C_12
REMARK    2  A    between atoms: N_3  and  C_4
REMARK    3  A    between atoms: C_4  and  C_5
REMARK    4  A    between atoms: C_5  and  C_6
REMARK    5  A    between atoms: C_17  and  N_18
REMARK                            x       y       z     vdW  Elec       q    Type
REMARK                         _______ _______ _______ _____ _____    ______ ____
ROOT
ATOM      1  O   UNL     1      -1.031  -0.270   2.342  0.00  0.00    +0.000 OA
ATOM      2  C   UNL     1      -1.282  -0.271   1.110  0.00  0.00    +0.000 C 
ATOM      3  N   UNL     1      -0.220  -0.204   0.182  0.00  0.00    +0.000 NA
ENDROOT
BRANCH   2   4
ATOM      4  C   UNL     1      -2.652  -0.351   0.599  0.00  0.00    +0.000 A 
ATOM      5  C   UNL     1      -3.463  -1.364   1.134  0.00  0.00    +0.000 A 
ATOM      6  C   UNL     1      -4.723  -1.561   0.673  0.00  0.00    +0.000 A 
ATOM      7  C   UNL     1      -5.225  -0.777  -0.321  0.00  0.00    +0.000 A 
ATOM      8  C   UNL     1      -4.434   0.239  -0.873  0.00  0.00    +0.000 A 
ATOM      9  C   UNL     1      -3.132   0.439  -0.387  0.00  0.00    +0.000 A 
BRANCH   9  10
ATOM     10  N   UNL     1      -2.376   1.522  -0.932  0.00  0.00    +0.000 N 
ATOM     11  O   UNL     1      -2.565   1.955  -2.069  0.00  0.00    +0.000 OA
ATOM     12  O   UNL     1      -1.423   2.090  -0.132  0.00  0.00    +0.000 OA
ENDBRANCH   9  10
ENDBRANCH   2   4
BRANCH   3  13
ATOM     13  C   UNL     1       1.148  -0.117   0.592  0.00  0.00    +0.000 C 
BRANCH  13  14
ATOM     14  C   UNL     1       2.111  -0.142  -0.543  0.00  0.00    +0.000 C 
BRANCH  14  15
ATOM     15  C   UNL     1       3.527   0.029  -0.138  0.00  0.00    +0.000 C 
ATOM     16  C   UNL     1       3.944   0.327   1.101  0.00  0.00    +0.000 C 
ATOM     17  C   UNL     1       5.386   0.473   1.388  0.00  0.00    +0.000 C 
ATOM     18  C   UNL     1       6.119  -0.714   0.864  0.00  0.00    +0.000 C 
ATOM     19  C   UNL     1       5.649  -1.135  -0.498  0.00  0.00    +0.000 C 
ATOM     20  C   UNL     1       4.642  -0.170  -1.126  0.00  0.00    +0.000 C 
ENDBRANCH  14  15
ENDBRANCH  13  14
ENDBRANCH   3  13
TORSDOF 5
