REMARK  Name = 
REMARK  5 active torsions:
REMARK  status: ('A' for Active; 'I' for Inactive)
REMARK    1  A    between atoms: O_2  and  C_3
REMARK    2  A    between atoms: C_5  and  O_6
REMARK    3  A    between atoms: C_9  and  C_10
REMARK    4  A    between atoms: C_10  and  S_11
REMARK    5  A    between atoms: S_11  and  C_12
REMARK                            x       y       z     vdW  Elec       q    Type
REMARK                         _______ _______ _______ _____ _____    ______ ____
ROOT
ATOM      1  C   UNL     1      -3.477  -0.998   0.514  0.00  0.00    +0.000 A 
ATOM      2  C   UNL     1      -4.112   0.153   0.063  0.00  0.00    +0.000 A 
ATOM      3  C   UNL     1      -3.366   1.285  -0.149  0.00  0.00    +0.000 A 
ATOM      4  N   UNL     1      -2.046   1.226   0.091  0.00  0.00    +0.000 NA
ATOM      5  C   UNL     1      -1.435   0.116   0.527  0.00  0.00    +0.000 A 
ATOM      6  N   UNL     1      -2.148  -0.989   0.736  0.00  0.00    +0.000 NA
ENDROOT
BRANCH   1   8
ATOM      7  C   UNL     1      -3.655  -3.302   1.173  0.00  0.00    +0.000 C 
ATOM      8  O   UNL     1      -4.270  -2.117   0.714  0.00  0.00    +0.000 OA
ENDBRANCH   1   8
BRANCH   3   9
ATOM      9  O   UNL     1      -3.962   2.457  -0.601  0.00  0.00    +0.000 OA
ATOM     10  C   UNL     1      -3.265   3.641  -0.837  0.00  0.00    +0.000 C 
ENDBRANCH   3   9
BRANCH   5  11
ATOM     11  C   UNL     1       0.030   0.168   0.759  0.00  0.00    +0.000 C 
BRANCH  11  12
ATOM     12  S   UNL     1       0.837  -0.303  -0.796  0.00  0.00    +0.000 S 
BRANCH  12  13
ATOM     13  C   UNL     1       2.610  -0.248  -0.545  0.00  0.00    +0.000 A 
ATOM     14  C   UNL     1       3.497  -0.558  -1.555  0.00  0.00    +0.000 A 
ATOM     15  C   UNL     1       4.862  -0.516  -1.364  0.00  0.00    +0.000 A 
ATOM     16  C   UNL     1       5.409  -0.161  -0.148  0.00  0.00    +0.000 A 
ATOM     17  N   UNL     1       6.818  -0.112   0.069  0.00  0.00    +0.000 NA
ATOM     18  C   UNL     1       4.519   0.149   0.862  0.00  0.00    +0.000 A 
ATOM     19  C   UNL     1       3.153   0.108   0.673  0.00  0.00    +0.000 A 
ENDBRANCH  12  13
ENDBRANCH  11  12
ENDBRANCH   5  11
TORSDOF 5
