REMARK  Name = 
REMARK  2 active torsions:
REMARK  status: ('A' for Active; 'I' for Inactive)
REMARK    1  A    between atoms: C_2  and  C_3
REMARK    2  A    between atoms: C_13  and  C_14
REMARK                            x       y       z     vdW  Elec       q    Type
REMARK                         _______ _______ _______ _____ _____    ______ ____
ROOT
ATOM      1  C   UNL     1      -0.648   1.450   0.760  0.00  0.00    +0.000 C 
ATOM      2  C   UNL     1      -1.529   1.706  -0.144  0.00  0.00    +0.000 C 
ATOM      3  N   UNL     1      -1.793   3.091  -0.458  0.00  0.00    +0.000 NA
ATOM      4  O   UNL     1      -2.247   0.773  -0.842  0.00  0.00    +0.000 OA
ATOM      5  C   UNL     1      -1.996  -0.562  -0.543  0.00  0.00    +0.000 C 
ATOM      6  C   UNL     1      -1.135  -0.905   0.342  0.00  0.00    +0.000 C 
ATOM      7  C   UNL     1      -0.940  -2.363   0.589  0.00  0.00    +0.000 C 
ATOM      8  C   UNL     1      -2.325  -2.939   0.795  0.00  0.00    +0.000 C 
ATOM      9  C   UNL     1      -3.238  -2.660  -0.349  0.00  0.00    +0.000 C 
ATOM     10  C   UNL     1      -2.787  -1.619  -1.313  0.00  0.00    +0.000 C 
ATOM     11  C   UNL     1      -0.256   0.009   1.206  0.00  0.00    +0.000 C 
ENDROOT
BRANCH  11  12
ATOM     12  C   UNL     1       1.099  -0.109   0.406  0.00  0.00    +0.000 A 
ATOM     13  C   UNL     1       1.433  -1.294  -0.137  0.00  0.00    +0.000 A 
ATOM     14  C   UNL     1       2.625  -1.456  -0.852  0.00  0.00    +0.000 A 
ATOM     15  C   UNL     1       3.460  -0.378  -0.996  0.00  0.00    +0.000 A 
ATOM     16  F   UNL     1       4.647  -0.478  -1.689  0.00  0.00    +0.000 F 
ATOM     17  C   UNL     1       3.109   0.830  -0.435  0.00  0.00    +0.000 A 
ATOM     18  C   UNL     1       1.906   0.974   0.281  0.00  0.00    +0.000 A 
ENDBRANCH  11  12
BRANCH   1  20
ATOM     19  N   UNL     1       0.583   3.399   1.962  0.00  0.00    +0.000 NA
ATOM     20  C   UNL     1       0.033   2.530   1.416  0.00  0.00    +0.000 C 
ENDBRANCH   1  20
TORSDOF 2
