REMARK  Name = 
REMARK  2 active torsions:
REMARK  status: ('A' for Active; 'I' for Inactive)
REMARK    1  A    between atoms: C_10  and  N_11
REMARK    2  A    between atoms: N_11  and  C_12
REMARK                            x       y       z     vdW  Elec       q    Type
REMARK                         _______ _______ _______ _____ _____    ______ ____
ROOT
ATOM      1  C   UNL     1      -3.894   2.941   0.384  0.00  0.00    +0.000 C 
ATOM      2  C   UNL     1      -3.377   1.547   0.284  0.00  0.00    +0.000 A 
ATOM      3  C   UNL     1      -4.233   0.453   0.325  0.00  0.00    +0.000 A 
ATOM      4  C   UNL     1      -3.814  -0.842   0.238  0.00  0.00    +0.000 A 
ATOM      5  C   UNL     1      -2.452  -1.092   0.100  0.00  0.00    +0.000 A 
ATOM      6  N   UNL     1      -1.960  -2.333   0.007  0.00  0.00    +0.000 NA
ATOM      7  C   UNL     1      -0.647  -2.564  -0.126  0.00  0.00    +0.000 A 
ATOM      8  C   UNL     1      -0.081  -3.940  -0.230  0.00  0.00    +0.000 C 
ATOM      9  C   UNL     1       0.247  -1.521  -0.172  0.00  0.00    +0.000 A 
ATOM     10  C   UNL     1      -0.198  -0.233  -0.083  0.00  0.00    +0.000 A 
ATOM     11  C   UNL     1      -1.555  -0.031   0.053  0.00  0.00    +0.000 A 
ATOM     12  C   UNL     1      -2.035   1.260   0.146  0.00  0.00    +0.000 A 
ENDROOT
BRANCH  10  13
ATOM     13  N   UNL     1       0.726   0.857  -0.131  0.00  0.00    +0.000 NA
BRANCH  13  14
ATOM     14  C   UNL     1       2.117   0.663  -0.270  0.00  0.00    +0.000 A 
ATOM     15  C   UNL     1       2.582  -0.638  -0.361  0.00  0.00    +0.000 A 
ATOM     16  C   UNL     1       3.918  -0.906  -0.498  0.00  0.00    +0.000 A 
ATOM     17  C   UNL     1       4.814   0.166  -0.544  0.00  0.00    +0.000 A 
ATOM     18  C   UNL     1       4.351   1.464  -0.452  0.00  0.00    +0.000 A 
ATOM     19  C   UNL     1       2.992   1.726  -0.314  0.00  0.00    +0.000 A 
ATOM     20  O   UNL     1       2.499   3.025  -0.219  0.00  0.00    +0.000 OA
ENDBRANCH  13  14
ENDBRANCH  10  13
TORSDOF 2
