REMARK  Name = 
REMARK  3 active torsions:
REMARK  status: ('A' for Active; 'I' for Inactive)
REMARK    1  A    between atoms: C_4  and  N_5
REMARK    2  A    between atoms: N_13  and  C_14
REMARK    3  A    between atoms: C_14  and  C_15
REMARK                            x       y       z     vdW  Elec       q    Type
REMARK                         _______ _______ _______ _____ _____    ______ ____
ROOT
ATOM      1  O   UNL     1       0.337  -0.749   2.544  0.00  0.00    +0.000 OA
ATOM      2  C   UNL     1      -0.185  -0.241   1.518  0.00  0.00    +0.000 A 
ATOM      3  C   UNL     1      -1.398  -0.742   1.047  0.00  0.00    +0.000 A 
ATOM      4  C   UNL     1      -1.969  -0.184  -0.077  0.00  0.00    +0.000 A 
ATOM      5  N   UNL     1      -1.314   0.828  -0.664  0.00  0.00    +0.000 NA
ATOM      6  C   UNL     1      -0.132   1.296  -0.181  0.00  0.00    +0.000 A 
ATOM      7  O   UNL     1       0.466   2.247  -0.748  0.00  0.00    +0.000 OA
ATOM      8  N   UNL     1       0.455   0.776   0.912  0.00  0.00    +0.000 N 
ENDROOT
BRANCH   4   9
ATOM      9  N   UNL     1      -3.206  -0.652  -0.608  0.00  0.00    +0.000 N 
ATOM     10  C   UNL     1      -4.016  -1.732  -0.076  0.00  0.00    +0.000 C 
ATOM     11  C   UNL     1      -5.437  -1.459  -0.505  0.00  0.00    +0.000 C 
ATOM     12  C   UNL     1      -5.329  -0.490  -1.653  0.00  0.00    +0.000 C 
ATOM     13  C   UNL     1      -3.870  -0.133  -1.768  0.00  0.00    +0.000 C 
ENDBRANCH   4   9
BRANCH   8  14
ATOM     14  C   UNL     1       1.724   1.305   1.401  0.00  0.00    +0.000 C 
BRANCH  14  15
ATOM     15  C   UNL     1       2.876   0.610   0.798  0.00  0.00    +0.000 A 
ATOM     16  C   UNL     1       3.412   1.093  -0.371  0.00  0.00    +0.000 A 
ATOM     17  C   UNL     1       4.493   0.491  -0.994  0.00  0.00    +0.000 A 
ATOM     18  C   UNL     1       5.075  -0.628  -0.451  0.00  0.00    +0.000 A 
ATOM     19  C   UNL     1       4.555  -1.126   0.718  0.00  0.00    +0.000 A 
ATOM     20  C   UNL     1       3.463  -0.509   1.335  0.00  0.00    +0.000 A 
ENDBRANCH  14  15
ENDBRANCH   8  14
TORSDOF 3
