REMARK  Name = 
REMARK  3 active torsions:
REMARK  status: ('A' for Active; 'I' for Inactive)
REMARK    1  A    between atoms: C_2  and  C_3
REMARK    2  A    between atoms: C_8  and  N_9
REMARK    3  A    between atoms: C_10  and  C_12
REMARK                            x       y       z     vdW  Elec       q    Type
REMARK                         _______ _______ _______ _____ _____    ______ ____
ROOT
ATOM      1  N   UNL     1      -0.754   0.250   0.309  0.00  0.00    +0.000 NA
ATOM      2  C   UNL     1       0.062   0.651  -0.766  0.00  0.00    +0.000 C 
ATOM      3  O   UNL     1      -0.449   1.185  -1.771  0.00  0.00    +0.000 OA
ENDROOT
BRANCH   2   4
ATOM      4  C   UNL     1       1.534   0.452  -0.737  0.00  0.00    +0.000 A 
ATOM      5  S   UNL     1       2.690   0.861  -1.920  0.00  0.00    +0.000 S 
ATOM      6  C   UNL     1       4.092   0.312  -1.123  0.00  0.00    +0.000 A 
ATOM      7  C   UNL     1       3.611  -0.183   0.062  0.00  0.00    +0.000 A 
ATOM      8  C   UNL     1       2.281  -0.103   0.249  0.00  0.00    +0.000 A 
ATOM      9  C   UNL     1       1.770  -0.654   1.565  0.00  0.00    +0.000 C 
ATOM     10  C   UNL     1       2.357  -2.038   1.685  0.00  0.00    +0.000 C 
ATOM     11  C   UNL     1       3.850  -2.045   1.691  0.00  0.00    +0.000 C 
ATOM     12  C   UNL     1       4.474  -0.801   1.151  0.00  0.00    +0.000 C 
ENDBRANCH   2   4
BRANCH   1  18
ATOM     13  C   UNL     1      -2.951   0.030   1.368  0.00  0.00    +0.000 A 
ATOM     14  C   UNL     1      -4.328   0.244   1.280  0.00  0.00    +0.000 A 
ATOM     15  C   UNL     1      -4.921   0.824   0.199  0.00  0.00    +0.000 A 
ATOM     16  C   UNL     1      -4.130   1.219  -0.857  0.00  0.00    +0.000 A 
ATOM     17  C   UNL     1      -2.779   1.018  -0.788  0.00  0.00    +0.000 A 
ATOM     18  C   UNL     1      -2.180   0.432   0.302  0.00  0.00    +0.000 A 
BRANCH  13  20
ATOM     19  N   UNL     1      -1.878  -1.070   3.439  0.00  0.00    +0.000 NA
ATOM     20  C   UNL     1      -2.352  -0.584   2.521  0.00  0.00    +0.000 C 
ENDBRANCH  13  20
ENDBRANCH   1  18
TORSDOF 3
