REMARK  Name = 
REMARK  3 active torsions:
REMARK  status: ('A' for Active; 'I' for Inactive)
REMARK    1  A    between atoms: C_5  and  C_6
REMARK    2  A    between atoms: C_6  and  N_7
REMARK    3  A    between atoms: C_8  and  C_10
REMARK                            x       y       z     vdW  Elec       q    Type
REMARK                         _______ _______ _______ _____ _____    ______ ____
ROOT
ATOM      1  N   UNL     1      -0.320  -0.876   1.353  0.00  0.00    +0.000 NA
ATOM      2  C   UNL     1       0.512   0.183   0.918  0.00  0.00    +0.000 C 
ATOM      3  O   UNL     1       0.096   1.358   1.050  0.00  0.00    +0.000 OA
ENDROOT
BRANCH   2   4
ATOM      4  C   UNL     1       1.827  -0.028   0.324  0.00  0.00    +0.000 A 
ATOM      5  C   UNL     1       2.271  -1.315   0.111  0.00  0.00    +0.000 A 
ATOM      6  C   UNL     1       3.509  -1.542  -0.445  0.00  0.00    +0.000 A 
ATOM      7  C   UNL     1       4.358  -0.526  -0.814  0.00  0.00    +0.000 A 
ATOM      8  O   UNL     1       5.615  -0.743  -1.379  0.00  0.00    +0.000 OA
ATOM      9  C   UNL     1       3.908   0.778  -0.598  0.00  0.00    +0.000 A 
ATOM     10 CL   UNL     1       4.931   2.108  -1.039  0.00  0.00    +0.000 Cl
ATOM     11  C   UNL     1       2.655   1.003  -0.035  0.00  0.00    +0.000 A 
ENDBRANCH   2   4
BRANCH   1  12
ATOM     12  C   UNL     1      -1.627  -0.697   1.944  0.00  0.00    +0.000 C 
BRANCH  12  17
ATOM     13  C   UNL     1      -5.755   0.599  -1.909  0.00  0.00    +0.000 C 
ATOM     14  C   UNL     1      -4.676   0.266  -0.928  0.00  0.00    +0.000 A 
ATOM     15  C   UNL     1      -4.950   0.165   0.419  0.00  0.00    +0.000 A 
ATOM     16  C   UNL     1      -3.950  -0.147   1.331  0.00  0.00    +0.000 A 
ATOM     17  C   UNL     1      -2.654  -0.365   0.925  0.00  0.00    +0.000 A 
ATOM     18  C   UNL     1      -2.373  -0.267  -0.415  0.00  0.00    +0.000 A 
ATOM     19  C   UNL     1      -3.374   0.045  -1.329  0.00  0.00    +0.000 A 
ENDBRANCH  12  17
ENDBRANCH   1  12
TORSDOF 3
