REMARK  Name = 
REMARK  3 active torsions:
REMARK  status: ('A' for Active; 'I' for Inactive)
REMARK    1  A    between atoms: C_2  and  C_3
REMARK    2  A    between atoms: C_3  and  C_4
REMARK    3  A    between atoms: C_6  and  C_7
REMARK                            x       y       z     vdW  Elec       q    Type
REMARK                         _______ _______ _______ _____ _____    ______ ____
ROOT
ATOM      1  C   UNL     1      -2.636  -0.407   0.324  0.00  0.00    +0.000 A 
ATOM      2  C   UNL     1      -1.290  -0.178   0.491  0.00  0.00    +0.000 A 
ATOM      3  C   UNL     1      -0.356  -1.179   0.335  0.00  0.00    +0.000 A 
ATOM      4  C   UNL     1      -0.793  -2.440   0.003  0.00  0.00    +0.000 A 
ATOM      5  C   UNL     1      -2.140  -2.674  -0.165  0.00  0.00    +0.000 A 
ATOM      6  C   UNL     1      -3.050  -1.662  -0.005  0.00  0.00    +0.000 A 
ATOM      7  O   UNL     1      -4.401  -1.982  -0.194  0.00  0.00    +0.000 OA
ENDROOT
BRANCH   3   8
ATOM      8  C   UNL     1       1.060  -0.885   0.517  0.00  0.00    +0.000 A 
ATOM      9  N   UNL     1       1.981  -1.602   1.229  0.00  0.00    +0.000 NA
ATOM     10  O   UNL     1       3.136  -1.036   1.151  0.00  0.00    +0.000 OA
ATOM     11  C   UNL     1       3.096   0.059   0.416  0.00  0.00    +0.000 A 
ATOM     12  C   UNL     1       4.063   0.986   0.049  0.00  0.00    +0.000 A 
ATOM     13  C   UNL     1       3.732   2.074  -0.756  0.00  0.00    +0.000 A 
ATOM     14  O   UNL     1       4.697   3.013  -1.131  0.00  0.00    +0.000 OA
ATOM     15  C   UNL     1       2.423   2.185  -1.167  0.00  0.00    +0.000 A 
ATOM     16  C   UNL     1       1.475   1.249  -0.790  0.00  0.00    +0.000 A 
ATOM     17  C   UNL     1       1.785   0.170   0.005  0.00  0.00    +0.000 A 
ENDBRANCH   3   8
BRANCH   1  18
ATOM     18  C   UNL     1      -3.588   0.697   0.506  0.00  0.00    +0.000 C 
BRANCH  18  20
ATOM     19  C   UNL     1      -5.080   2.372  -0.416  0.00  0.00    +0.000 C 
ATOM     20  C   UNL     1      -4.113   1.242  -0.802  0.00  0.00    +0.000 C 
ENDBRANCH  18  20
ENDBRANCH   1  18
TORSDOF 3
