REMARK  Name = 
REMARK  3 active torsions:
REMARK  status: ('A' for Active; 'I' for Inactive)
REMARK    1  A    between atoms: C_2  and  C_13
REMARK    2  A    between atoms: N_3  and  C_4
REMARK    3  A    between atoms: C_16  and  N_17
REMARK                            x       y       z     vdW  Elec       q    Type
REMARK                         _______ _______ _______ _____ _____    ______ ____
ROOT
ATOM      1  O   UNL     1       0.006  -0.987   1.678  0.00  0.00    +0.000 OA
ATOM      2  C   UNL     1       0.397  -0.394   0.648  0.00  0.00    +0.000 C 
ATOM      3  N   UNL     1      -0.556   0.104  -0.269  0.00  0.00    +0.000 NA
ENDROOT
BRANCH   3   4
ATOM      4  C   UNL     1      -1.953  -0.039  -0.075  0.00  0.00    +0.000 A 
ATOM      5  C   UNL     1      -2.408  -0.687   1.050  0.00  0.00    +0.000 A 
ATOM      6  C   UNL     1      -3.790  -0.824   1.235  0.00  0.00    +0.000 A 
ATOM      7  C   UNL     1      -4.696  -0.328   0.322  0.00  0.00    +0.000 A 
ATOM      8  C   UNL     1      -4.222   0.315  -0.793  0.00  0.00    +0.000 A 
ATOM      9  C   UNL     1      -2.857   0.453  -0.980  0.00  0.00    +0.000 A 
ATOM     10  C   UNL     1      -5.343   0.775  -1.651  0.00  0.00    +0.000 C 
ATOM     11  C   UNL     1      -6.493   0.848  -0.663  0.00  0.00    +0.000 C 
ATOM     12  C   UNL     1      -6.187  -0.320   0.247  0.00  0.00    +0.000 C 
ENDBRANCH   3   4
BRANCH   2  13
ATOM     13  C   UNL     1       1.814  -0.214   0.388  0.00  0.00    +0.000 A 
ATOM     14  C   UNL     1       2.225   0.447  -0.760  0.00  0.00    +0.000 A 
ATOM     15  C   UNL     1       3.571   0.616  -1.003  0.00  0.00    +0.000 A 
ATOM     16  C   UNL     1       4.534   0.154  -0.148  0.00  0.00    +0.000 A 
ATOM     17  C   UNL     1       4.119  -0.499   0.986  0.00  0.00    +0.000 A 
ATOM     18  C   UNL     1       2.783  -0.679   1.249  0.00  0.00    +0.000 A 
BRANCH  16  19
ATOM     19  N   UNL     1       5.929   0.339  -0.418  0.00  0.00    +0.000 N 
ATOM     20  O   UNL     1       6.795  -0.075   0.348  0.00  0.00    +0.000 OA
ATOM     21  O   UNL     1       6.332   0.992  -1.553  0.00  0.00    +0.000 OA
ENDBRANCH  16  19
ENDBRANCH   2  13
TORSDOF 3
