REMARK  Name = 
REMARK  3 active torsions:
REMARK  status: ('A' for Active; 'I' for Inactive)
REMARK    1  A    between atoms: C_2  and  C_3
REMARK    2  A    between atoms: C_6  and  N_7
REMARK    3  A    between atoms: C_15  and  C_16
REMARK                            x       y       z     vdW  Elec       q    Type
REMARK                         _______ _______ _______ _____ _____    ______ ____
ROOT
ATOM      1  N   UNL     1      -0.028   0.960  -0.582  0.00  0.00    +0.000 NA
ATOM      2  C   UNL     1      -1.049   0.159  -0.010  0.00  0.00    +0.000 A 
ATOM      3  N   UNL     1      -0.772  -1.046   0.560  0.00  0.00    +0.000 NA
ATOM      4  C   UNL     1      -1.732  -1.802   1.100  0.00  0.00    +0.000 A 
ATOM      5  C   UNL     1      -1.456  -3.116   1.726  0.00  0.00    +0.000 C 
ATOM      6  C   UNL     1      -3.036  -1.357   1.082  0.00  0.00    +0.000 A 
ATOM      7  C   UNL     1      -3.365  -0.143   0.515  0.00  0.00    +0.000 A 
ATOM      8  C   UNL     1      -4.764   0.355   0.485  0.00  0.00    +0.000 C 
ATOM      9  C   UNL     1      -2.344   0.628  -0.042  0.00  0.00    +0.000 A 
ENDROOT
BRANCH   1  13
ATOM     10  C   UNL     1       3.932  -0.500  -0.471  0.00  0.00    +0.000 A 
ATOM     11  C   UNL     1       3.629   0.713  -1.041  0.00  0.00    +0.000 A 
ATOM     12  C   UNL     1       2.357   1.212  -1.093  0.00  0.00    +0.000 A 
ATOM     13  C   UNL     1       1.318   0.494  -0.560  0.00  0.00    +0.000 A 
ATOM     14  C   UNL     1       1.604  -0.723   0.015  0.00  0.00    +0.000 A 
ATOM     15  C   UNL     1       2.884  -1.234   0.071  0.00  0.00    +0.000 A 
BRANCH  10  17
ATOM     16  C   UNL     1       5.941  -0.488   0.870  0.00  0.00    +0.000 C 
ATOM     17  C   UNL     1       5.324  -1.002  -0.437  0.00  0.00    +0.000 C 
ENDBRANCH  10  17
ENDBRANCH   1  13
BRANCH   9  18
ATOM     18  C   UNL     1      -2.683   1.914  -0.644  0.00  0.00    +0.000 C 
ATOM     19  N   UNL     1      -4.004   2.383  -0.672  0.00  0.00    +0.000 NA
ATOM     20  O   UNL     1      -1.754   2.595  -1.140  0.00  0.00    +0.000 OA
ENDBRANCH   9  18
TORSDOF 3
