REMARK  Name = 
REMARK  2 active torsions:
REMARK  status: ('A' for Active; 'I' for Inactive)
REMARK    1  A    between atoms: C_6  and  C_7
REMARK    2  A    between atoms: C_11  and  C_12
REMARK                            x       y       z     vdW  Elec       q    Type
REMARK                         _______ _______ _______ _____ _____    ______ ____
ROOT
ATOM      1  C   UNL     1      -0.769   1.800  -1.863  0.00  0.00    +0.000 C 
ATOM      2  C   UNL     1      -1.190   1.270  -0.511  0.00  0.00    +0.000 C 
ATOM      3  C   UNL     1      -2.457   1.070  -0.464  0.00  0.00    +0.000 C 
ATOM      4  C   UNL     1      -3.111   0.514   0.893  0.00  0.00    +0.000 C 
ATOM      5  C   UNL     1      -4.070  -0.561   0.125  0.00  0.00    +0.000 C 
ATOM      6  C   UNL     1      -1.897  -0.582   1.081  0.00  0.00    +0.000 C 
ATOM      7  C   UNL     1      -1.415  -1.091  -0.098  0.00  0.00    +0.000 C 
ATOM      8  O   UNL     1      -0.204  -1.112  -0.615  0.00  0.00    +0.000 OA
ATOM      9  C   UNL     1       0.699  -0.372   0.308  0.00  0.00    +0.000 C 
ATOM     10  C   UNL     1      -0.128   1.062   0.541  0.00  0.00    +0.000 C 
ATOM     11  C   UNL     1      -1.062   0.566   1.889  0.00  0.00    +0.000 C 
ATOM     12  C   UNL     1      -0.029  -0.430   2.604  0.00  0.00    +0.000 C 
ENDROOT
BRANCH   9  13
ATOM     13  C   UNL     1       1.800   0.084  -0.624  0.00  0.00    +0.000 A 
ATOM     14  C   UNL     1       1.506   0.263  -1.932  0.00  0.00    +0.000 A 
ATOM     15  C   UNL     1       2.453   0.493  -2.921  0.00  0.00    +0.000 A 
ATOM     16  C   UNL     1       3.785   0.547  -2.541  0.00  0.00    +0.000 A 
ATOM     17  C   UNL     1       4.123   0.371  -1.226  0.00  0.00    +0.000 A 
ATOM     18  C   UNL     1       3.155   0.140  -0.273  0.00  0.00    +0.000 A 
ATOM     19  O   UNL     1       3.498  -0.041   1.036  0.00  0.00    +0.000 OA
ENDBRANCH   9  13
BRANCH   6  20
ATOM     20  C   UNL     1      -2.619  -1.445   2.032  0.00  0.00    +0.000 C 
ATOM     21  O   UNL     1      -2.068  -2.546   2.557  0.00  0.00    +0.000 OA
ENDBRANCH   6  20
TORSDOF 2
