REMARK  Name = 
REMARK  2 active torsions:
REMARK  status: ('A' for Active; 'I' for Inactive)
REMARK    1  A    between atoms: N_11  and  C_12
REMARK    2  A    between atoms: C_12  and  C_13
REMARK                            x       y       z     vdW  Elec       q    Type
REMARK                         _______ _______ _______ _____ _____    ______ ____
ROOT
ATOM      1  C   UNL     1      -2.755   0.196   2.393  0.00  0.00    +0.000 C 
ATOM      2  C   UNL     1      -2.511   1.143   1.065  0.00  0.00    +0.000 C 
ATOM      3  C   UNL     1      -4.103   1.142   0.652  0.00  0.00    +0.000 C 
ATOM      4  C   UNL     1      -4.176   0.868  -0.820  0.00  0.00    +0.000 C 
ATOM      5  C   UNL     1      -4.147  -0.654  -0.960  0.00  0.00    +0.000 C 
ATOM      6  C   UNL     1      -3.161  -1.113   0.109  0.00  0.00    +0.000 C 
ATOM      7  C   UNL     1      -2.079  -0.128   0.122  0.00  0.00    +0.000 C 
ATOM      8  N   UNL     1      -1.751   0.445  -1.161  0.00  0.00    +0.000 NA
ATOM      9  C   UNL     1      -0.466  -0.046  -1.498  0.00  0.00    +0.000 C 
ATOM     10  O   UNL     1       0.123   0.026  -2.629  0.00  0.00    +0.000 OA
ATOM     11  N   UNL     1       0.121  -0.664  -0.364  0.00  0.00    +0.000 N 
ATOM     12  C   UNL     1      -0.809  -0.559   0.703  0.00  0.00    +0.000 C 
ATOM     13  O   UNL     1      -0.607  -0.787   1.915  0.00  0.00    +0.000 OA
ENDROOT
BRANCH  11  14
ATOM     14  C   UNL     1       1.448  -1.299  -0.293  0.00  0.00    +0.000 C 
BRANCH  14  15
ATOM     15  C   UNL     1       2.472  -0.304   0.103  0.00  0.00    +0.000 A 
ATOM     16  C   UNL     1       2.144   0.998   0.348  0.00  0.00    +0.000 A 
ATOM     17  C   UNL     1       3.148   1.874   0.713  0.00  0.00    +0.000 A 
ATOM     18  C   UNL     1       4.469   1.472   0.836  0.00  0.00    +0.000 A 
ATOM     19  C   UNL     1       4.774   0.149   0.583  0.00  0.00    +0.000 A 
ATOM     20  C   UNL     1       3.768  -0.736   0.215  0.00  0.00    +0.000 A 
ATOM     21  F   UNL     1       4.098  -2.023  -0.027  0.00  0.00    +0.000 F 
ENDBRANCH  14  15
ENDBRANCH  11  14
TORSDOF 2
