REMARK  Name = 
REMARK  2 active torsions:
REMARK  status: ('A' for Active; 'I' for Inactive)
REMARK    1  A    between atoms: O_2  and  C_3
REMARK    2  A    between atoms: C_6  and  C_7
REMARK                            x       y       z     vdW  Elec       q    Type
REMARK                         _______ _______ _______ _____ _____    ______ ____
ROOT
ATOM      1  C   UNL     1       0.338   0.061   0.163  0.00  0.00    +0.000 A 
ATOM      2  O   UNL     1      -0.448  -0.182  -0.849  0.00  0.00    +0.000 OA
ATOM      3  C   UNL     1      -1.767  -0.209  -0.775  0.00  0.00    +0.000 A 
ATOM      4  C   UNL     1      -2.530  -0.478  -1.918  0.00  0.00    +0.000 A 
ATOM      5  C   UNL     1      -3.906  -0.512  -1.865  0.00  0.00    +0.000 A 
ATOM      6  C   UNL     1      -4.725  -0.802  -3.096  0.00  0.00    +0.000 C 
ATOM      7  C   UNL     1      -4.511  -0.272  -0.650  0.00  0.00    +0.000 A 
ATOM      8  C   UNL     1      -3.794  -0.003   0.495  0.00  0.00    +0.000 A 
ATOM      9  C   UNL     1      -4.415   0.259   1.812  0.00  0.00    +0.000 C 
ATOM     10  C   UNL     1      -2.411   0.026   0.421  0.00  0.00    +0.000 A 
ATOM     11  C   UNL     1      -1.633   0.290   1.535  0.00  0.00    +0.000 A 
ATOM     12  O   UNL     1      -2.201   0.507   2.636  0.00  0.00    +0.000 OA
ATOM     13  C   UNL     1      -0.270   0.300   1.373  0.00  0.00    +0.000 A 
ATOM     14  O   UNL     1       0.539   0.560   2.466  0.00  0.00    +0.000 OA
ENDROOT
BRANCH   1  18
ATOM     15  C   UNL     1       4.598   0.094  -0.331  0.00  0.00    +0.000 A 
ATOM     16  C   UNL     1       4.011   0.336   0.891  0.00  0.00    +0.000 A 
ATOM     17  C   UNL     1       2.635   0.324   1.045  0.00  0.00    +0.000 A 
ATOM     18  C   UNL     1       1.786   0.071  -0.011  0.00  0.00    +0.000 A 
ATOM     19  C   UNL     1       2.369  -0.173  -1.236  0.00  0.00    +0.000 A 
ATOM     20  C   UNL     1       3.750  -0.160  -1.388  0.00  0.00    +0.000 A 
BRANCH  15  22
ATOM     21  C   UNL     1       6.594  -0.143  -1.744  0.00  0.00    +0.000 C 
ATOM     22  O   UNL     1       5.990   0.105  -0.489  0.00  0.00    +0.000 OA
ENDBRANCH  15  22
ENDBRANCH   1  18
TORSDOF 2
