REMARK  Name = 
REMARK  4 active torsions:
REMARK  status: ('A' for Active; 'I' for Inactive)
REMARK    1  A    between atoms: C_2  and  C_3
REMARK    2  A    between atoms: C_3  and  C_4
REMARK    3  A    between atoms: C_4  and  N_5
REMARK    4  A    between atoms: C_16  and  O_17
REMARK                            x       y       z     vdW  Elec       q    Type
REMARK                         _______ _______ _______ _____ _____    ______ ____
ROOT
ATOM      1  N   UNL     1      -2.569  -0.954   1.028  0.00  0.00    +0.000 NA
ATOM      2  C   UNL     1      -1.726   0.047   0.483  0.00  0.00    +0.000 A 
ATOM      3  N   UNL     1      -2.143   1.279   0.150  0.00  0.00    +0.000 NA
ATOM      4  C   UNL     1      -1.308   2.199  -0.365  0.00  0.00    +0.000 A 
ATOM      5  N   UNL     1       0.009   1.922  -0.573  0.00  0.00    +0.000 NA
ATOM      6  C   UNL     1       0.456   0.709  -0.254  0.00  0.00    +0.000 A 
ATOM      7  C   UNL     1      -0.385  -0.245   0.274  0.00  0.00    +0.000 A 
ATOM      8  N   UNL     1       0.289  -1.382   0.515  0.00  0.00    +0.000 NA
ATOM      9  C   UNL     1       1.586  -1.193   0.148  0.00  0.00    +0.000 A 
ATOM     10  C   UNL     1       2.704  -1.986   0.166  0.00  0.00    +0.000 A 
ATOM     11  C   UNL     1       3.895  -1.468  -0.291  0.00  0.00    +0.000 A 
ATOM     12  C   UNL     1       4.019  -0.180  -0.769  0.00  0.00    +0.000 A 
ATOM     13  C   UNL     1       2.895   0.619  -0.787  0.00  0.00    +0.000 A 
ATOM     14  C   UNL     1       1.702   0.094  -0.328  0.00  0.00    +0.000 A 
ENDROOT
BRANCH  12  15
ATOM     15  O   UNL     1       5.254   0.303  -1.224  0.00  0.00    +0.000 OA
ATOM     16  C   UNL     1       6.379  -0.536  -1.192  0.00  0.00    +0.000 C 
ENDBRANCH  12  15
BRANCH   1  17
ATOM     17  C   UNL     1      -3.968  -0.766   1.287  0.00  0.00    +0.000 C 
BRANCH  17  18
ATOM     18  C   UNL     1      -4.702  -0.427   0.003  0.00  0.00    +0.000 C 
BRANCH  18  20
ATOM     19  C   UNL     1      -6.224   0.892   1.369  0.00  0.00    +0.000 C 
ATOM     20  C   UNL     1      -6.166  -0.245   0.360  0.00  0.00    +0.000 C 
ENDBRANCH  18  20
ENDBRANCH  17  18
ENDBRANCH   1  17
TORSDOF 4
