REMARK  Name = 
REMARK  3 active torsions:
REMARK  status: ('A' for Active; 'I' for Inactive)
REMARK    1  A    between atoms: N_5  and  C_6
REMARK    2  A    between atoms: C_6  and  C_7
REMARK    3  A    between atoms: C_7  and  C_9
REMARK                            x       y       z     vdW  Elec       q    Type
REMARK                         _______ _______ _______ _____ _____    ______ ____
ROOT
ATOM      1  C   UNL     1      -0.136   0.422   0.072  0.00  0.00    +0.000 C 
ATOM      2  O   UNL     1       0.286   1.422  -0.445  0.00  0.00    +0.000 OA
ENDROOT
BRANCH   1   3
ATOM      3  C   UNL     1      -1.579   0.138   0.045  0.00  0.00    +0.000 C 
ATOM      4  C   UNL     1      -2.055   0.055   1.479  0.00  0.00    +0.000 C 
ATOM      5  C   UNL     1      -3.506  -0.297   1.516  0.00  0.00    +0.000 C 
ATOM      6  C   UNL     1      -4.264   0.741   0.710  0.00  0.00    +0.000 C 
ATOM      7  C   UNL     1      -3.806   0.778  -0.722  0.00  0.00    +0.000 C 
ATOM      8  C   UNL     1      -4.049  -0.616  -1.308  0.00  0.00    +0.000 C 
ATOM      9  C   UNL     1      -3.230  -1.614  -0.529  0.00  0.00    +0.000 C 
ATOM     10  C   UNL     1      -3.678  -1.693   0.923  0.00  0.00    +0.000 C 
ATOM     11  C   UNL     1      -1.781  -1.205  -0.640  0.00  0.00    +0.000 C 
ATOM     12  C   UNL     1      -2.362   1.158  -0.748  0.00  0.00    +0.000 C 
ENDBRANCH   1   3
BRANCH   1  13
ATOM     13  C   UNL     1       0.788  -0.515   0.729  0.00  0.00    +0.000 C 
BRANCH  13  18
ATOM     14  C   UNL     1       6.212   1.023   0.430  0.00  0.00    +0.000 C 
ATOM     15  C   UNL     1       4.776   0.619   0.514  0.00  0.00    +0.000 A 
ATOM     16  C   UNL     1       4.001   1.022   1.571  0.00  0.00    +0.000 A 
ATOM     17  C   UNL     1       2.683   0.646   1.641  0.00  0.00    +0.000 A 
ATOM     18  N   UNL     1       2.153  -0.113   0.678  0.00  0.00    +0.000 N 
ATOM     19  C   UNL     1       2.916  -0.502  -0.350  0.00  0.00    +0.000 A 
ATOM     20  N   UNL     1       2.385  -1.319  -1.406  0.00  0.00    +0.000 NA
ATOM     21  C   UNL     1       4.247  -0.154  -0.471  0.00  0.00    +0.000 A 
ENDBRANCH  13  18
ENDBRANCH   1  13
TORSDOF 3
