REMARK  Name = 
REMARK  4 active torsions:
REMARK  status: ('A' for Active; 'I' for Inactive)
REMARK    1  A    between atoms: C_5  and  C_7
REMARK    2  A    between atoms: C_7  and  O_8
REMARK    3  A    between atoms: O_8  and  C_9
REMARK    4  A    between atoms: C_9  and  C_11
REMARK                            x       y       z     vdW  Elec       q    Type
REMARK                         _______ _______ _______ _____ _____    ______ ____
ROOT
ATOM      1  C   UNL     1       1.346   0.895   0.687  0.00  0.00    +0.000 C 
ENDROOT
BRANCH   1   6
ATOM      2  C   UNL     1       3.979  -1.497  -1.166  0.00  0.00    +0.000 C 
ATOM      3  C   UNL     1       4.282   0.076  -1.530  0.00  0.00    +0.000 C 
ATOM      4  C   UNL     1       2.958   0.232  -2.482  0.00  0.00    +0.000 C 
ATOM      5  C   UNL     1       1.836   0.218  -1.588  0.00  0.00    +0.000 C 
ATOM      6  C   UNL     1       2.258   0.024  -0.183  0.00  0.00    +0.000 C 
ATOM      7  C   UNL     1       2.147  -1.351   0.345  0.00  0.00    +0.000 C 
ATOM      8  C   UNL     1       3.576   0.665  -0.175  0.00  0.00    +0.000 C 
ATOM      9  C   UNL     1       4.463   0.268   0.955  0.00  0.00    +0.000 C 
ATOM     10  C   UNL     1       3.455   2.145  -0.375  0.00  0.00    +0.000 C 
ENDBRANCH   1   6
BRANCH   1  11
ATOM     11  O   UNL     1       0.018   0.425   0.450  0.00  0.00    +0.000 OA
BRANCH  11  12
ATOM     12  C   UNL     1      -1.096   0.943   1.042  0.00  0.00    +0.000 C 
ATOM     13  O   UNL     1      -0.983   1.895   1.850  0.00  0.00    +0.000 OA
BRANCH  12  14
ATOM     14  C   UNL     1      -2.418   0.384   0.727  0.00  0.00    +0.000 A 
ATOM     15  C   UNL     1      -3.580   0.866   1.292  0.00  0.00    +0.000 A 
ATOM     16  C   UNL     1      -4.799   0.307   0.965  0.00  0.00    +0.000 A 
ATOM     17  C   UNL     1      -4.920  -0.741   0.074  0.00  0.00    +0.000 A 
ATOM     18  N   UNL     1      -6.205  -1.283  -0.230  0.00  0.00    +0.000 NA
ATOM     19  C   UNL     1      -3.766  -1.227  -0.494  0.00  0.00    +0.000 A 
ATOM     20  C   UNL     1      -2.550  -0.666  -0.165  0.00  0.00    +0.000 A 
ENDBRANCH  12  14
ENDBRANCH  11  12
ENDBRANCH   1  11
TORSDOF 4
