REMARK  Name = 
REMARK  3 active torsions:
REMARK  status: ('A' for Active; 'I' for Inactive)
REMARK    1  A    between atoms: C_7  and  N_8
REMARK    2  A    between atoms: C_9  and  C_11
REMARK    3  A    between atoms: C_14  and  C_15
REMARK                            x       y       z     vdW  Elec       q    Type
REMARK                         _______ _______ _______ _____ _____    ______ ____
ROOT
ATOM      1  N   UNL     1      -1.313   0.480   0.687  0.00  0.00    +0.000 NA
ATOM      2  C   UNL     1      -0.585  -0.134  -0.338  0.00  0.00    +0.000 C 
ATOM      3  O   UNL     1      -1.242  -0.598  -1.325  0.00  0.00    +0.000 OA
ENDROOT
BRANCH   1  10
ATOM      4  C   UNL     1      -5.651  -0.339  -1.506  0.00  0.00    +0.000 C 
ATOM      5  C   UNL     1      -4.838   0.213  -0.364  0.00  0.00    +0.000 A 
ATOM      6  C   UNL     1      -5.488   0.843   0.693  0.00  0.00    +0.000 A 
ATOM      7  C   UNL     1      -4.731   1.357   1.751  0.00  0.00    +0.000 A 
ATOM      8  C   UNL     1      -3.358   1.261   1.788  0.00  0.00    +0.000 A 
ATOM      9  O   UNL     1      -2.678   1.792   2.868  0.00  0.00    +0.000 OA
ATOM     10  C   UNL     1      -2.716   0.634   0.741  0.00  0.00    +0.000 A 
ATOM     11  C   UNL     1      -3.472   0.127  -0.307  0.00  0.00    +0.000 A 
ENDBRANCH   1  10
BRANCH   2  12
ATOM     12  C   UNL     1       0.879  -0.273  -0.336  0.00  0.00    +0.000 A 
ATOM     13  C   UNL     1       1.576  -0.481  -1.502  0.00  0.00    +0.000 A 
ATOM     14  C   UNL     1       2.967  -0.628  -1.512  0.00  0.00    +0.000 A 
ATOM     15  C   UNL     1       3.700  -0.570  -0.353  0.00  0.00    +0.000 A 
ATOM     16  C   UNL     1       2.981  -0.357   0.830  0.00  0.00    +0.000 A 
ATOM     17  C   UNL     1       1.608  -0.214   0.833  0.00  0.00    +0.000 A 
BRANCH  15  18
ATOM     18  C   UNL     1       5.177  -0.726  -0.361  0.00  0.00    +0.000 C 
ATOM     19  C   UNL     1       5.567  -2.148  -0.714  0.00  0.00    +0.000 C 
ATOM     20  C   UNL     1       5.859   0.190  -1.338  0.00  0.00    +0.000 C 
ATOM     21  C   UNL     1       5.758  -0.430   1.020  0.00  0.00    +0.000 C 
ENDBRANCH  15  18
ENDBRANCH   2  12
TORSDOF 3
