REMARK  Name = 
REMARK  5 active torsions:
REMARK  status: ('A' for Active; 'I' for Inactive)
REMARK    1  A    between atoms: O_2  and  C_3
REMARK    2  A    between atoms: C_5  and  C_6
REMARK    3  A    between atoms: C_6  and  N_7
REMARK    4  A    between atoms: N_7  and  C_8
REMARK    5  A    between atoms: C_13  and  S_14
REMARK                            x       y       z     vdW  Elec       q    Type
REMARK                         _______ _______ _______ _____ _____    ______ ____
ROOT
ATOM      1  C   UNL     1      -0.254  -1.167   1.556  0.00  0.00    +0.000 C 
ENDROOT
BRANCH   1   4
ATOM      2  C   UNL     1      -3.222   0.213  -0.344  0.00  0.00    +0.000 A 
ATOM      3  C   UNL     1      -2.432  -0.303   0.661  0.00  0.00    +0.000 A 
ATOM      4  C   UNL     1      -1.089  -0.606   0.458  0.00  0.00    +0.000 A 
ATOM      5  C   UNL     1      -0.602  -0.358  -0.808  0.00  0.00    +0.000 A 
ATOM      6  C   UNL     1      -1.378   0.157  -1.824  0.00  0.00    +0.000 A 
ATOM      7  C   UNL     1      -2.708   0.453  -1.612  0.00  0.00    +0.000 A 
ATOM      8  O   UNL     1      -3.523   0.972  -2.604  0.00  0.00    +0.000 OA
BRANCH   2  10
ATOM      9  C   UNL     1      -5.110   0.281   1.137  0.00  0.00    +0.000 C 
ATOM     10  O   UNL     1      -4.553   0.513  -0.143  0.00  0.00    +0.000 OA
ENDBRANCH   2  10
ENDBRANCH   1   4
BRANCH   1  11
ATOM     11  N   UNL     1       1.109  -1.211   1.095  0.00  0.00    +0.000 NA
BRANCH  11  12
ATOM     12  C   UNL     1       1.767  -0.010   0.765  0.00  0.00    +0.000 A 
ATOM     13  C   UNL     1       1.103   1.184   0.909  0.00  0.00    +0.000 A 
ATOM     14  C   UNL     1       1.730   2.354   0.598  0.00  0.00    +0.000 A 
ATOM     15  C   UNL     1       3.034   2.318   0.140  0.00  0.00    +0.000 A 
ATOM     16  C   UNL     1       3.716   1.121  -0.011  0.00  0.00    +0.000 A 
ATOM     17  C   UNL     1       3.062  -0.070   0.311  0.00  0.00    +0.000 A 
BRANCH  17  18
ATOM     18  S   UNL     1       3.833  -1.661   0.159  0.00  0.00    +0.000 S 
ATOM     19  C   UNL     1       5.515  -1.571  -0.443  0.00  0.00    +0.000 C 
ENDBRANCH  17  18
ENDBRANCH  11  12
ENDBRANCH   1  11
TORSDOF 5
