REMARK  Name = 
REMARK  3 active torsions:
REMARK  status: ('A' for Active; 'I' for Inactive)
REMARK    1  A    between atoms: C_3  and  C_5
REMARK    2  A    between atoms: C_9  and  N_10
REMARK    3  A    between atoms: C_11  and  C_13
REMARK                            x       y       z     vdW  Elec       q    Type
REMARK                         _______ _______ _______ _____ _____    ______ ____
ROOT
ATOM      1  N   UNL     1       0.410  -0.313   0.213  0.00  0.00    +0.000 NA
ATOM      2  C   UNL     1      -0.425   0.644  -0.139  0.00  0.00    +0.000 C 
ATOM      3  O   UNL     1       0.026   1.756  -0.482  0.00  0.00    +0.000 OA
ENDROOT
BRANCH   2   4
ATOM      4  C   UNL     1      -1.894   0.425  -0.133  0.00  0.00    +0.000 A 
ATOM      5  C   UNL     1      -2.706   1.467  -0.511  0.00  0.00    +0.000 A 
ATOM      6  C   UNL     1      -4.079   1.346  -0.533  0.00  0.00    +0.000 A 
ATOM      7  C   UNL     1      -4.642   0.123  -0.158  0.00  0.00    +0.000 A 
ATOM      8  C   UNL     1      -6.107  -0.102  -0.150  0.00  0.00    +0.000 C 
ATOM      9  C   UNL     1      -3.839  -0.940   0.226  0.00  0.00    +0.000 A 
ATOM     10  C   UNL     1      -4.386  -2.254   0.632  0.00  0.00    +0.000 C 
ATOM     11  C   UNL     1      -2.475  -0.764   0.230  0.00  0.00    +0.000 A 
ENDBRANCH   2   4
BRANCH   1  16
ATOM     12  C   UNL     1       2.974  -0.434   0.368  0.00  0.00    +0.000 A 
ATOM     13  C   UNL     1       3.866  -1.398   0.724  0.00  0.00    +0.000 A 
ATOM     14  C   UNL     1       3.444  -2.602   1.099  0.00  0.00    +0.000 A 
ATOM     15  S   UNL     1       1.772  -2.453   0.975  0.00  0.00    +0.000 S 
ATOM     16  C   UNL     1       1.659  -0.785   0.423  0.00  0.00    +0.000 A 
BRANCH  12  19
ATOM     17  C   UNL     1       5.376   2.432  -0.463  0.00  0.00    +0.000 C 
ATOM     18  N   UNL     1       4.855   1.132  -0.060  0.00  0.00    +0.000 NA
ATOM     19  C   UNL     1       3.438   0.887  -0.044  0.00  0.00    +0.000 C 
ATOM     20  O   UNL     1       2.734   1.831  -0.385  0.00  0.00    +0.000 OA
ENDBRANCH  12  19
ENDBRANCH   1  16
TORSDOF 3
