REMARK  Name = 
REMARK  3 active torsions:
REMARK  status: ('A' for Active; 'I' for Inactive)
REMARK    1  A    between atoms: C_2  and  C_15
REMARK    2  A    between atoms: N_3  and  N_4
REMARK    3  A    between atoms: N_4  and  C_5
REMARK                            x       y       z     vdW  Elec       q    Type
REMARK                         _______ _______ _______ _____ _____    ______ ____
ROOT
ATOM      1  N   UNL     1       0.472  -1.528   0.000  0.00  0.00    +0.000 NA
ENDROOT
BRANCH   1   2
ATOM      2  C   UNL     1       1.895  -1.054   0.000  0.00  0.00    +0.000 C 
ATOM      3  C   UNL     1       2.196   0.416   0.000  0.00  0.00    +0.000 C 
ATOM      4  C   UNL     1       3.318  -0.580   0.000  0.00  0.00    +0.000 C 
ATOM      5  C   UNL     1       4.741  -0.105   0.000  0.00  0.00    +0.000 C 
ATOM      6  C   UNL     1       4.440  -1.575   0.000  0.00  0.00    +0.000 C 
ATOM      7  C   UNL     1       3.017  -2.049   0.000  0.00  0.00    +0.000 C 
ATOM      8  C   UNL     1       4.394   0.936   0.000  0.00  0.00    +0.000 C 
ATOM      9  C   UNL     1       3.919   2.360   0.000  0.00  0.00    +0.000 C 
ATOM     10  C   UNL     1       2.496   1.885   0.000  0.00  0.00    +0.000 C 
ATOM     11  C   UNL     1       5.042   1.364   0.000  0.00  0.00    +0.000 C 
ENDBRANCH   1   2
BRANCH   1  14
ATOM     12  O   UNL     1      -2.374  -2.477   0.000  0.00  0.00    +0.000 OA
ATOM     13  C   UNL     1      -2.074  -1.007   0.000  0.00  0.00    +0.000 C 
ATOM     14  N   UNL     1      -0.651  -0.533   0.000  0.00  0.00    +0.000 NA
BRANCH  13  15
ATOM     15  C   UNL     1      -3.196  -0.012   0.000  0.00  0.00    +0.000 A 
ATOM     16  C   UNL     1      -2.895   1.458   0.000  0.00  0.00    +0.000 A 
ATOM     17  C   UNL     1      -4.017   2.453   0.000  0.00  0.00    +0.000 A 
ATOM     18  C   UNL     1      -5.440   1.979   0.000  0.00  0.00    +0.000 A 
ATOM     19  C   UNL     1      -5.741   0.509   0.000  0.00  0.00    +0.000 A 
ATOM     20  C   UNL     1      -4.619  -0.486   0.000  0.00  0.00    +0.000 A 
ATOM     21  O   UNL     1      -4.920  -1.956   0.000  0.00  0.00    +0.000 OA
ENDBRANCH  13  15
ENDBRANCH   1  14
TORSDOF 3
