REMARK  Name = 
REMARK  4 active torsions:
REMARK  status: ('A' for Active; 'I' for Inactive)
REMARK    1  A    between atoms: C_5  and  C_6
REMARK    2  A    between atoms: C_13  and  N_14
REMARK    3  A    between atoms: N_14  and  C_15
REMARK    4  A    between atoms: C_15  and  C_16
REMARK                            x       y       z     vdW  Elec       q    Type
REMARK                         _______ _______ _______ _____ _____    ______ ____
ROOT
ATOM      1  C   UNL     1      -0.285   0.857  -1.268  0.00  0.00    +0.000 A 
ATOM      2  C   UNL     1      -0.409   1.604  -2.431  0.00  0.00    +0.000 A 
ATOM      3  S   UNL     1       0.759   2.808  -2.258  0.00  0.00    +0.000 S 
ATOM      4  C   UNL     1       1.393   2.370  -0.738  0.00  0.00    +0.000 A 
ATOM      5  N   UNL     1       2.386   2.889   0.052  0.00  0.00    +0.000 NA
ATOM      6  C   UNL     1       2.706   2.337   1.230  0.00  0.00    +0.000 A 
ATOM      7  N   UNL     1       2.001   1.262   1.577  0.00  0.00    +0.000 NA
ATOM      8  C   UNL     1       1.018   0.698   0.861  0.00  0.00    +0.000 A 
ATOM      9  C   UNL     1       0.662   1.268  -0.391  0.00  0.00    +0.000 A 
ENDROOT
BRANCH   1  14
ATOM     10  C   UNL     1      -3.869  -3.621  -0.412  0.00  0.00    +0.000 C 
ATOM     11  C   UNL     1      -2.942  -2.458  -0.629  0.00  0.00    +0.000 A 
ATOM     12  C   UNL     1      -2.856  -1.431   0.284  0.00  0.00    +0.000 A 
ATOM     13  C   UNL     1      -2.001  -0.374   0.070  0.00  0.00    +0.000 A 
ATOM     14  C   UNL     1      -1.212  -0.304  -1.049  0.00  0.00    +0.000 A 
ATOM     15  C   UNL     1      -1.290  -1.317  -1.961  0.00  0.00    +0.000 A 
ATOM     16  C   UNL     1      -2.144  -2.377  -1.750  0.00  0.00    +0.000 A 
ENDBRANCH   1  14
BRANCH   8  17
ATOM     17  N   UNL     1       0.336  -0.445   1.332  0.00  0.00    +0.000 NA
BRANCH  17  18
ATOM     18  C   UNL     1       0.690  -1.048   2.570  0.00  0.00    +0.000 C 
BRANCH  18  19
ATOM     19  C   UNL     1       1.986  -1.759   2.599  0.00  0.00    +0.000 C 
ATOM     20  O   UNL     1       3.070  -0.959   2.313  0.00  0.00    +0.000 OA
ENDBRANCH  18  19
ENDBRANCH  17  18
ENDBRANCH   8  17
TORSDOF 4
