REMARK  Name = 
REMARK  0 active torsions:
REMARK  status: ('A' for Active; 'I' for Inactive)
REMARK                            x       y       z     vdW  Elec       q    Type
REMARK                         _______ _______ _______ _____ _____    ______ ____
ROOT
ATOM      1  C   UNL     1      -2.314  -3.796  -1.073  0.00  0.00    +0.000 C 
ATOM      2  C   UNL     1      -2.208  -2.534  -0.285  0.00  0.00    +0.000 A 
ATOM      3  C   UNL     1      -2.579  -2.305   1.026  0.00  0.00    +0.000 A 
ATOM      4  C   UNL     1      -2.278  -0.983   1.282  0.00  0.00    +0.000 A 
ATOM      5  N   UNL     1      -2.507  -0.341   2.528  0.00  0.00    +0.000 NA
ATOM      6  N   UNL     1      -1.746  -0.424   0.181  0.00  0.00    +0.000 N 
ATOM      7  C   UNL     1      -1.292   0.920   0.000  0.00  0.00    +0.000 A 
ATOM      8  N   UNL     1      -2.213   1.891  -0.054  0.00  0.00    +0.000 NA
ATOM      9  C   UNL     1      -1.934   3.193  -0.220  0.00  0.00    +0.000 A 
ATOM     10  N   UNL     1      -0.629   3.532  -0.338  0.00  0.00    +0.000 NA
ATOM     11  C   UNL     1       0.345   2.564  -0.287  0.00  0.00    +0.000 A 
ATOM     12  S   UNL     1       2.046   2.627  -0.398  0.00  0.00    +0.000 S 
ATOM     13  C   UNL     1       2.388   0.968  -0.229  0.00  0.00    +0.000 A 
ATOM     14  C   UNL     1       1.161   0.408  -0.091  0.00  0.00    +0.000 A 
ATOM     15  C   UNL     1       0.080   1.236  -0.120  0.00  0.00    +0.000 A 
ATOM     16  C   UNL     1       1.124  -1.110   0.086  0.00  0.00    +0.000 C 
ATOM     17  C   UNL     1       2.458  -1.657   0.317  0.00  0.00    +0.000 C 
ATOM     18  C   UNL     1       3.384  -1.163  -0.978  0.00  0.00    +0.000 C 
ATOM     19  C   UNL     1       4.734  -1.897  -0.389  0.00  0.00    +0.000 C 
ATOM     20  C   UNL     1       3.703   0.261  -0.225  0.00  0.00    +0.000 C 
ATOM     21  N   UNL     1      -1.724  -1.391  -0.733  0.00  0.00    +0.000 NA
ENDROOT
TORSDOF 0
