REMARK  Name = 
REMARK  2 active torsions:
REMARK  status: ('A' for Active; 'I' for Inactive)
REMARK    1  A    between atoms: C_6  and  C_7
REMARK    2  A    between atoms: C_7  and  C_8
REMARK                            x       y       z     vdW  Elec       q    Type
REMARK                         _______ _______ _______ _____ _____    ______ ____
ROOT
ATOM      1  O   UNL     1      -2.445  -2.944  -2.073  0.00  0.00    +0.000 OA
ATOM      2  C   UNL     1      -2.008  -2.038  -1.302  0.00  0.00    +0.000 A 
ATOM      3  N   UNL     1      -2.756  -0.963  -0.995  0.00  0.00    +0.000 NA
ATOM      4  C   UNL     1      -2.337   0.023  -0.169  0.00  0.00    +0.000 A 
ATOM      5  C   UNL     1      -1.062  -0.063   0.405  0.00  0.00    +0.000 A 
ATOM      6  C   UNL     1      -0.297  -1.142   0.104  0.00  0.00    +0.000 A 
ATOM      7  N   UNL     1      -0.795  -2.118  -0.755  0.00  0.00    +0.000 NA
ATOM      8  C   UNL     1      -0.389   0.868   1.315  0.00  0.00    +0.000 C 
ATOM      9  C   UNL     1      -0.968   2.234   1.408  0.00  0.00    +0.000 C 
ATOM     10  C   UNL     1      -2.389   2.259   1.940  0.00  0.00    +0.000 C 
ATOM     11  C   UNL     1      -3.278   2.312   0.690  0.00  0.00    +0.000 C 
ATOM     12  N   UNL     1      -3.266   1.049   0.001  0.00  0.00    +0.000 NA
ENDROOT
BRANCH   6  13
ATOM     13  C   UNL     1       1.049  -1.453   0.607  0.00  0.00    +0.000 C 
BRANCH  13  14
ATOM     14  C   UNL     1       2.149  -0.612   0.021  0.00  0.00    +0.000 A 
ATOM     15  C   UNL     1       2.435  -0.728  -1.321  0.00  0.00    +0.000 A 
ATOM     16  C   UNL     1       3.319   0.093  -1.958  0.00  0.00    +0.000 A 
ATOM     17  C   UNL     1       3.971   1.102  -1.241  0.00  0.00    +0.000 A 
ATOM     18  C   UNL     1       3.689   1.234   0.121  0.00  0.00    +0.000 A 
ATOM     19  C   UNL     1       2.789   0.377   0.727  0.00  0.00    +0.000 A 
ATOM     20 CL   UNL     1       2.589   0.512   2.474  0.00  0.00    +0.000 Cl
ENDBRANCH  13  14
ENDBRANCH   6  13
TORSDOF 2
