REMARK  Name = 
REMARK  2 active torsions:
REMARK  status: ('A' for Active; 'I' for Inactive)
REMARK    1  A    between atoms: C_7  and  N_8
REMARK    2  A    between atoms: C_9  and  C_11
REMARK                            x       y       z     vdW  Elec       q    Type
REMARK                         _______ _______ _______ _____ _____    ______ ____
ROOT
ATOM      1  C   UNL     1      -0.722  -1.382   0.382  0.00  0.00    +0.000 A 
ATOM      2  C   UNL     1      -1.094  -2.644   0.782  0.00  0.00    +0.000 A 
ATOM      3  N   UNL     1      -0.284  -3.725   1.267  0.00  0.00    +0.000 NA
ATOM      4  S   UNL     1      -2.777  -2.663   0.576  0.00  0.00    +0.000 S 
ATOM      5  C   UNL     1      -2.990  -1.076  -0.013  0.00  0.00    +0.000 A 
ATOM      6  C   UNL     1      -1.744  -0.582  -0.031  0.00  0.00    +0.000 A 
ATOM      7  C   UNL     1      -1.605   0.852  -0.523  0.00  0.00    +0.000 C 
ATOM      8  C   UNL     1      -2.828   1.274  -1.236  0.00  0.00    +0.000 C 
ATOM      9  C   UNL     1      -3.933   1.137  -0.003  0.00  0.00    +0.000 C 
ATOM     10  C   UNL     1      -5.150   1.751  -0.911  0.00  0.00    +0.000 C 
ATOM     11  C   UNL     1      -4.259  -0.408  -0.415  0.00  0.00    +0.000 C 
ENDROOT
BRANCH   1  13
ATOM     12  N   UNL     1       1.083   0.278   0.022  0.00  0.00    +0.000 NA
ATOM     13  C   UNL     1       0.687  -1.006   0.427  0.00  0.00    +0.000 C 
ATOM     14  O   UNL     1       1.546  -1.804   0.819  0.00  0.00    +0.000 OA
BRANCH  12  21
ATOM     15  C   UNL     1       1.664   2.970  -0.858  0.00  0.00    +0.000 C 
ATOM     16  C   UNL     1       2.724   2.018  -0.387  0.00  0.00    +0.000 A 
ATOM     17  C   UNL     1       4.037   2.442  -0.371  0.00  0.00    +0.000 A 
ATOM     18  C   UNL     1       5.048   1.609   0.052  0.00  0.00    +0.000 A 
ATOM     19  C   UNL     1       4.749   0.313   0.474  0.00  0.00    +0.000 A 
ATOM     20  C   UNL     1       3.422  -0.094   0.450  0.00  0.00    +0.000 A 
ATOM     21  C   UNL     1       2.426   0.741   0.028  0.00  0.00    +0.000 A 
ENDBRANCH  12  21
ENDBRANCH   1  13
TORSDOF 2
