REMARK  Name = 
REMARK  3 active torsions:
REMARK  status: ('A' for Active; 'I' for Inactive)
REMARK    1  A    between atoms: C_2  and  N_3
REMARK    2  A    between atoms: C_6  and  C_7
REMARK    3  A    between atoms: C_12  and  O_13
REMARK                            x       y       z     vdW  Elec       q    Type
REMARK                         _______ _______ _______ _____ _____    ______ ____
ROOT
ATOM      1  C   UNL     1      -0.036  -0.333   0.798  0.00  0.00    +0.000 A 
ATOM      2  C   UNL     1      -0.329  -0.923   2.010  0.00  0.00    +0.000 A 
ATOM      3  N   UNL     1      -1.636  -0.859   2.209  0.00  0.00    +0.000 NA
ATOM      4  C   UNL     1      -2.264  -0.241   1.170  0.00  0.00    +0.000 A 
ATOM      5  C   UNL     1      -3.586   0.060   0.916  0.00  0.00    +0.000 A 
ATOM      6  C   UNL     1      -3.947   0.708  -0.247  0.00  0.00    +0.000 A 
ATOM      7  C   UNL     1      -2.929   1.030  -1.120  0.00  0.00    +0.000 A 
ATOM      8  C   UNL     1      -1.602   0.736  -0.880  0.00  0.00    +0.000 A 
ATOM      9  C   UNL     1      -1.247   0.081   0.297  0.00  0.00    +0.000 A 
ENDROOT
BRANCH   1  13
ATOM     10  N   UNL     1       4.872  -0.828   0.543  0.00  0.00    +0.000 NA
ATOM     11  C   UNL     1       3.553  -0.424   0.089  0.00  0.00    +0.000 A 
ATOM     12  N   UNL     1       2.401  -0.598   0.708  0.00  0.00    +0.000 NA
ATOM     13  C   UNL     1       1.305  -0.174   0.160  0.00  0.00    +0.000 A 
ATOM     14  C   UNL     1       1.421   0.445  -1.065  0.00  0.00    +0.000 A 
ATOM     15  S   UNL     1       3.102   0.377  -1.347  0.00  0.00    +0.000 S 
BRANCH  10  17
ATOM     16  C   UNL     1       5.757  -1.245  -1.648  0.00  0.00    +0.000 C 
ATOM     17  C   UNL     1       6.002  -0.528  -0.315  0.00  0.00    +0.000 C 
ENDBRANCH  10  17
ENDBRANCH   1  13
BRANCH   6  18
ATOM     18  O   UNL     1      -5.281   1.025  -0.530  0.00  0.00    +0.000 OA
ATOM     19  C   UNL     1      -5.556   1.691  -1.749  0.00  0.00    +0.000 C 
ENDBRANCH   6  18
TORSDOF 3
