REMARK  Name = 
REMARK  3 active torsions:
REMARK  status: ('A' for Active; 'I' for Inactive)
REMARK    1  A    between atoms: C_2  and  C_4
REMARK    2  A    between atoms: C_6  and  C_7
REMARK    3  A    between atoms: C_14  and  C_15
REMARK                            x       y       z     vdW  Elec       q    Type
REMARK                         _______ _______ _______ _____ _____    ______ ____
ROOT
ATOM      1  C   UNL     1      -1.598   0.905  -0.187  0.00  0.00    +0.000 A 
ATOM      2  C   UNL     1      -0.264   1.036  -0.282  0.00  0.00    +0.000 A 
ATOM      3  C   UNL     1       0.562  -0.067  -0.113  0.00  0.00    +0.000 A 
ATOM      4  C   UNL     1      -0.020  -1.295   0.129  0.00  0.00    +0.000 A 
ATOM      5  C   UNL     1      -1.405  -1.420   0.210  0.00  0.00    +0.000 A 
ATOM      6  C   UNL     1      -2.152  -0.336   0.062  0.00  0.00    +0.000 A 
ATOM      7  O   UNL     1      -3.564  -0.467   0.170  0.00  0.00    +0.000 OA
ENDROOT
BRANCH   3   8
ATOM      8  C   UNL     1       2.076   0.060  -0.121  0.00  0.00    +0.000 A 
ATOM      9  C   UNL     1       2.849  -1.077   0.206  0.00  0.00    +0.000 A 
ATOM     10  S   UNL     1       4.418  -0.425   0.259  0.00  0.00    +0.000 S 
ATOM     11  C   UNL     1       4.025   1.194  -0.117  0.00  0.00    +0.000 A 
ATOM     12  O   UNL     1       4.812   2.237  -0.245  0.00  0.00    +0.000 OA
ATOM     13  N   UNL     1       2.686   1.171  -0.271  0.00  0.00    +0.000 NA
ENDBRANCH   3   8
BRANCH   1  15
ATOM     14  C   UNL     1      -2.558   2.893  -1.452  0.00  0.00    +0.000 C 
ATOM     15  C   UNL     1      -2.535   2.077  -0.122  0.00  0.00    +0.000 C 
ATOM     16  C   UNL     1      -1.717   3.108   0.857  0.00  0.00    +0.000 C 
ENDBRANCH   1  15
BRANCH   5  17
ATOM     17  C   UNL     1      -1.992  -2.783   0.417  0.00  0.00    +0.000 C 
ATOM     18  C   UNL     1      -0.973  -3.890   0.176  0.00  0.00    +0.000 C 
ATOM     19  C   UNL     1      -2.651  -2.921   1.753  0.00  0.00    +0.000 C 
ENDBRANCH   5  17
TORSDOF 3
