REMARK  Name = 
REMARK  3 active torsions:
REMARK  status: ('A' for Active; 'I' for Inactive)
REMARK    1  A    between atoms: C_5  and  N_6
REMARK    2  A    between atoms: C_7  and  C_9
REMARK    3  A    between atoms: C_12  and  N_13
REMARK                            x       y       z     vdW  Elec       q    Type
REMARK                         _______ _______ _______ _____ _____    ______ ____
ROOT
ATOM      1  N   UNL     1       1.249  -0.534   0.254  0.00  0.00    +0.000 NA
ATOM      2  C   UNL     1       0.331   0.466  -0.157  0.00  0.00    +0.000 C 
ATOM      3  O   UNL     1       0.799   1.570  -0.529  0.00  0.00    +0.000 OA
ENDROOT
BRANCH   1   8
ATOM      4  C   UNL     1       6.826   0.525   0.181  0.00  0.00    +0.000 C 
ATOM      5  C   UNL     1       5.371   0.210   0.214  0.00  0.00    +0.000 A 
ATOM      6  C   UNL     1       4.491   1.198  -0.190  0.00  0.00    +0.000 A 
ATOM      7  C   UNL     1       3.133   0.931  -0.169  0.00  0.00    +0.000 A 
ATOM      8  C   UNL     1       2.636  -0.282   0.240  0.00  0.00    +0.000 A 
ATOM      9  C   UNL     1       3.502  -1.270   0.644  0.00  0.00    +0.000 A 
ATOM     10  C   UNL     1       3.043  -2.603   1.098  0.00  0.00    +0.000 C 
ATOM     11  C   UNL     1       4.871  -0.992   0.619  0.00  0.00    +0.000 A 
ENDBRANCH   1   8
BRANCH   2  12
ATOM     12  C   UNL     1      -1.108   0.277  -0.170  0.00  0.00    +0.000 A 
ATOM     13  C   UNL     1      -1.623  -0.931   0.239  0.00  0.00    +0.000 A 
ATOM     14  C   UNL     1      -2.989  -1.184   0.253  0.00  0.00    +0.000 A 
ATOM     15  C   UNL     1      -3.855  -0.191  -0.156  0.00  0.00    +0.000 A 
ATOM     16  C   UNL     1      -3.368   1.025  -0.569  0.00  0.00    +0.000 A 
ATOM     17  C   UNL     1      -4.294   2.088  -1.008  0.00  0.00    +0.000 C 
ATOM     18  C   UNL     1      -2.009   1.239  -0.570  0.00  0.00    +0.000 A 
BRANCH  15  19
ATOM     19  N   UNL     1      -5.245  -0.420  -0.152  0.00  0.00    +0.000 N 
ATOM     20  O   UNL     1      -5.971   0.126  -0.985  0.00  0.00    +0.000 OA
ATOM     21  O   UNL     1      -5.790  -1.249   0.776  0.00  0.00    +0.000 OA
ENDBRANCH  15  19
ENDBRANCH   2  12
TORSDOF 3
