REMARK  Name = 
REMARK  3 active torsions:
REMARK  status: ('A' for Active; 'I' for Inactive)
REMARK    1  A    between atoms: O_2  and  C_3
REMARK    2  A    between atoms: C_9  and  N_10
REMARK    3  A    between atoms: C_18  and  C_19
REMARK                            x       y       z     vdW  Elec       q    Type
REMARK                         _______ _______ _______ _____ _____    ______ ____
ROOT
ATOM      1  N   UNL     1       0.110   0.049   0.882  0.00  0.00    +0.000 NA
ATOM      2  C   UNL     1      -0.908   0.204  -0.094  0.00  0.00    +0.000 A 
ATOM      3  N   UNL     1      -0.622   0.016  -1.392  0.00  0.00    +0.000 NA
ATOM      4  C   UNL     1      -1.525   0.143  -2.381  0.00  0.00    +0.000 A 
ATOM      5  C   UNL     1      -1.170  -0.073  -3.804  0.00  0.00    +0.000 C 
ATOM      6  C   UNL     1      -2.831   0.483  -2.092  0.00  0.00    +0.000 A 
ATOM      7  C   UNL     1      -3.176   0.685  -0.782  0.00  0.00    +0.000 A 
ATOM      8  C   UNL     1      -4.574   1.054  -0.419  0.00  0.00    +0.000 C 
ATOM      9  C   UNL     1      -2.205   0.544   0.216  0.00  0.00    +0.000 A 
ENDROOT
BRANCH   1  16
ATOM     10  C   UNL     1       2.401  -0.443   1.522  0.00  0.00    +0.000 A 
ATOM     11  C   UNL     1       3.693  -0.784   1.184  0.00  0.00    +0.000 A 
ATOM     12  C   UNL     1       4.054  -0.992  -0.137  0.00  0.00    +0.000 A 
ATOM     13  C   UNL     1       3.115  -0.858  -1.138  0.00  0.00    +0.000 A 
ATOM     14 CL   UNL     1       3.573  -1.122  -2.822  0.00  0.00    +0.000 Cl
ATOM     15  C   UNL     1       1.833  -0.517  -0.779  0.00  0.00    +0.000 A 
ATOM     16  C   UNL     1       1.444  -0.303   0.539  0.00  0.00    +0.000 A 
BRANCH  10  18
ATOM     17  C   UNL     1       2.968  -0.362   3.901  0.00  0.00    +0.000 C 
ATOM     18  O   UNL     1       2.062  -0.241   2.847  0.00  0.00    +0.000 OA
ENDBRANCH  10  18
ENDBRANCH   1  16
BRANCH   9  19
ATOM     19  C   UNL     1      -2.581   0.760   1.597  0.00  0.00    +0.000 C 
ATOM     20  N   UNL     1      -3.913   1.113   1.957  0.00  0.00    +0.000 NA
ATOM     21  O   UNL     1      -1.750   0.645   2.517  0.00  0.00    +0.000 OA
ENDBRANCH   9  19
TORSDOF 3
