REMARK  Name = 
REMARK  3 active torsions:
REMARK  status: ('A' for Active; 'I' for Inactive)
REMARK    1  A    between atoms: C_4  and  N_5
REMARK    2  A    between atoms: N_5  and  N_6
REMARK    3  A    between atoms: C_7  and  C_9
REMARK                            x       y       z     vdW  Elec       q    Type
REMARK                         _______ _______ _______ _____ _____    ______ ____
ROOT
ATOM      1  N   UNL     1       0.045  -1.192  -0.125  0.00  0.00    +0.000 NA
ATOM      2  C   UNL     1      -0.656  -0.085  -0.638  0.00  0.00    +0.000 C 
ATOM      3  O   UNL     1      -0.035   0.734  -1.352  0.00  0.00    +0.000 OA
ENDROOT
BRANCH   2   4
ATOM      4  C   UNL     1      -2.092   0.126  -0.360  0.00  0.00    +0.000 A 
ATOM      5  C   UNL     1      -2.930   0.711  -1.303  0.00  0.00    +0.000 A 
ATOM      6  C   UNL     1      -4.279   0.905  -1.050  0.00  0.00    +0.000 A 
ATOM      7  C   UNL     1      -4.846   0.521   0.159  0.00  0.00    +0.000 A 
ATOM      8 CL   UNL     1      -6.566   0.755   0.492  0.00  0.00    +0.000 Cl
ATOM      9  C   UNL     1      -4.010  -0.057   1.086  0.00  0.00    +0.000 A 
ATOM     10  C   UNL     1      -2.657  -0.254   0.837  0.00  0.00    +0.000 A 
ENDBRANCH   2   4
BRANCH   1  11
ATOM     11  N   UNL     1       1.308  -1.544  -0.284  0.00  0.00    +0.000 NA
BRANCH  11  15
ATOM     12  C   UNL     1       3.946   2.178  -0.409  0.00  0.00    +0.000 C 
ATOM     13  C   UNL     1       4.017   1.016   0.795  0.00  0.00    +0.000 C 
ATOM     14  C   UNL     1       2.670   0.314   0.363  0.00  0.00    +0.000 C 
ATOM     15  C   UNL     1       2.549  -0.934   0.108  0.00  0.00    +0.000 C 
ATOM     16  C   UNL     1       3.646  -1.937   0.163  0.00  0.00    +0.000 C 
ATOM     17  C   UNL     1       4.893  -1.301   0.623  0.00  0.00    +0.000 C 
ATOM     18  C   UNL     1       4.997   0.043  -0.116  0.00  0.00    +0.000 C 
ENDBRANCH  11  15
ENDBRANCH   1  11
TORSDOF 3
