REMARK  Name = 
REMARK  3 active torsions:
REMARK  status: ('A' for Active; 'I' for Inactive)
REMARK    1  A    between atoms: C_4  and  N_5
REMARK    2  A    between atoms: N_5  and  N_6
REMARK    3  A    between atoms: C_7  and  C_9
REMARK                            x       y       z     vdW  Elec       q    Type
REMARK                         _______ _______ _______ _____ _____    ______ ____
ROOT
ATOM      1  N   UNL     1       1.015   1.635   0.143  0.00  0.00    +0.000 NA
ENDROOT
BRANCH   1   5
ATOM      2  C   UNL     1       5.436   0.101  -1.158  0.00  0.00    +0.000 C 
ATOM      3  C   UNL     1       3.805  -0.109  -1.238  0.00  0.00    +0.000 C 
ATOM      4  C   UNL     1       3.493   1.106  -0.175  0.00  0.00    +0.000 C 
ATOM      5  C   UNL     1       2.156   0.826   0.373  0.00  0.00    +0.000 C 
ATOM      6  C   UNL     1       2.135  -0.275   1.113  0.00  0.00    +0.000 C 
ATOM      7  C   UNL     1       3.486  -0.915   1.172  0.00  0.00    +0.000 C 
ATOM      8  C   UNL     1       3.321  -2.161   2.003  0.00  0.00    +0.000 C 
ATOM      9  C   UNL     1       4.497  -0.043   1.848  0.00  0.00    +0.000 C 
ATOM     10  C   UNL     1       3.794  -1.351  -0.183  0.00  0.00    +0.000 C 
ENDBRANCH   1   5
BRANCH   1  11
ATOM     11  N   UNL     1      -0.294   1.192   0.346  0.00  0.00    +0.000 NA
ATOM     12  C   UNL     1      -1.279   1.184  -0.657  0.00  0.00    +0.000 C 
ATOM     13  O   UNL     1      -0.958   1.601  -1.807  0.00  0.00    +0.000 OA
BRANCH  12  14
ATOM     14  C   UNL     1      -2.649   0.729  -0.467  0.00  0.00    +0.000 A 
ATOM     15  C   UNL     1      -3.644   1.011  -1.409  0.00  0.00    +0.000 A 
ATOM     16  C   UNL     1      -4.944   0.587  -1.237  0.00  0.00    +0.000 A 
ATOM     17  C   UNL     1      -5.329  -0.138  -0.129  0.00  0.00    +0.000 A 
ATOM     18  F   UNL     1      -6.626  -0.548   0.023  0.00  0.00    +0.000 F 
ATOM     19  C   UNL     1      -4.358  -0.424   0.806  0.00  0.00    +0.000 A 
ATOM     20  C   UNL     1      -3.056   0.003   0.632  0.00  0.00    +0.000 A 
ENDBRANCH  12  14
ENDBRANCH   1  11
TORSDOF 3
