REMARK  Name = 
REMARK  3 active torsions:
REMARK  status: ('A' for Active; 'I' for Inactive)
REMARK    1  A    between atoms: C_3  and  C_4
REMARK    2  A    between atoms: N_6  and  C_7
REMARK    3  A    between atoms: C_17  and  N_18
REMARK                            x       y       z     vdW  Elec       q    Type
REMARK                         _______ _______ _______ _____ _____    ______ ____
ROOT
ATOM      1  C   UNL     1      -1.446   1.295  -0.633  0.00  0.00    +0.000 C 
ATOM      2  C   UNL     1      -1.792  -0.125  -0.386  0.00  0.00    +0.000 A 
ATOM      3  C   UNL     1      -0.820  -1.097  -0.424  0.00  0.00    +0.000 A 
ATOM      4  C   UNL     1      -1.209  -2.398  -0.187  0.00  0.00    +0.000 A 
ATOM      5  C   UNL     1      -2.503  -2.737   0.077  0.00  0.00    +0.000 A 
ATOM      6  C   UNL     1      -3.486  -1.763   0.116  0.00  0.00    +0.000 A 
ATOM      7  C   UNL     1      -3.110  -0.454  -0.119  0.00  0.00    +0.000 A 
ENDROOT
BRANCH   3   8
ATOM      8  C   UNL     1       0.571  -0.789  -0.694  0.00  0.00    +0.000 C 
ATOM      9  O   UNL     1       1.427  -1.710  -0.753  0.00  0.00    +0.000 OA
ATOM     10  N   UNL     1       1.049   0.533  -0.905  0.00  0.00    +0.000 NA
BRANCH  10  11
ATOM     11  C   UNL     1       2.476   0.786  -1.175  0.00  0.00    +0.000 C 
ATOM     12  C   UNL     1       2.784   2.149  -0.754  0.00  0.00    +0.000 C 
ATOM     13  C   UNL     1       3.918   2.437   0.106  0.00  0.00    +0.000 C 
ATOM     14  C   UNL     1       4.849   1.348   0.467  0.00  0.00    +0.000 C 
ATOM     15  C   UNL     1       4.281   0.445   1.569  0.00  0.00    +0.000 C 
ATOM     16  C   UNL     1       3.012  -0.174   1.021  0.00  0.00    +0.000 C 
ATOM     17  C   UNL     1       3.221  -0.316  -0.486  0.00  0.00    +0.000 C 
ENDBRANCH  10  11
ENDBRANCH   3   8
BRANCH   7  18
ATOM     18  N   UNL     1      -4.133   0.538  -0.078  0.00  0.00    +0.000 N 
ATOM     19  O   UNL     1      -5.136   0.361   0.617  0.00  0.00    +0.000 OA
ATOM     20  O   UNL     1      -3.953   1.671  -0.830  0.00  0.00    +0.000 OA
ENDBRANCH   7  18
TORSDOF 3
