REMARK  Name = 
REMARK  2 active torsions:
REMARK  status: ('A' for Active; 'I' for Inactive)
REMARK    1  A    between atoms: C_7  and  N_8
REMARK    2  A    between atoms: C_9  and  C_11
REMARK                            x       y       z     vdW  Elec       q    Type
REMARK                         _______ _______ _______ _____ _____    ______ ____
ROOT
ATOM      1  C   UNL     1       0.954  -0.286   1.210  0.00  0.00    +0.000 A 
ATOM      2  C   UNL     1       1.464  -0.303   2.485  0.00  0.00    +0.000 A 
ATOM      3  N   UNL     1       0.795  -0.128   3.745  0.00  0.00    +0.000 NA
ATOM      4  S   UNL     1       3.125  -0.589   2.249  0.00  0.00    +0.000 S 
ATOM      5  C   UNL     1       3.146  -0.681   0.551  0.00  0.00    +0.000 A 
ATOM      6  C   UNL     1       1.848  -0.485   0.208  0.00  0.00    +0.000 A 
ATOM      7  C   UNL     1       1.390  -0.486  -1.238  0.00  0.00    +0.000 C 
ATOM      8  C   UNL     1       2.341   0.324  -2.086  0.00  0.00    +0.000 C 
ATOM      9  C   UNL     1       3.374   1.052  -1.258  0.00  0.00    +0.000 C 
ATOM     10  C   UNL     1       4.619   0.194  -1.221  0.00  0.00    +0.000 C 
ATOM     11  C   UNL     1       4.388  -0.926  -0.249  0.00  0.00    +0.000 C 
ENDROOT
BRANCH   1  13
ATOM     12  N   UNL     1      -1.072  -0.032  -0.295  0.00  0.00    +0.000 NA
ATOM     13  C   UNL     1      -0.504  -0.058   1.005  0.00  0.00    +0.000 C 
ATOM     14  O   UNL     1      -1.259   0.117   1.980  0.00  0.00    +0.000 OA
BRANCH  12  21
ATOM     15  C   UNL     1      -1.961  -0.026  -2.962  0.00  0.00    +0.000 C 
ATOM     16  C   UNL     1      -2.896   0.187  -1.835  0.00  0.00    +0.000 A 
ATOM     17  C   UNL     1      -4.238   0.394  -2.096  0.00  0.00    +0.000 A 
ATOM     18  C   UNL     1      -5.107   0.591  -1.053  0.00  0.00    +0.000 A 
ATOM     19  C   UNL     1      -4.643   0.582   0.245  0.00  0.00    +0.000 A 
ATOM     20  C   UNL     1      -3.309   0.378   0.519  0.00  0.00    +0.000 A 
ATOM     21  C   UNL     1      -2.455   0.182  -0.532  0.00  0.00    +0.000 A 
ENDBRANCH  12  21
ENDBRANCH   1  13
TORSDOF 2
