REMARK  Name = 
REMARK  2 active torsions:
REMARK  status: ('A' for Active; 'I' for Inactive)
REMARK    1  A    between atoms: C_5  and  C_6
REMARK    2  A    between atoms: N_10  and  C_11
REMARK                            x       y       z     vdW  Elec       q    Type
REMARK                         _______ _______ _______ _____ _____    ______ ____
ROOT
ATOM      1  C   UNL     1      -0.216   0.609   0.064  0.00  0.00    +0.000 A 
ATOM      2  C   UNL     1      -0.332   1.961  -0.171  0.00  0.00    +0.000 A 
ATOM      3  S   UNL     1       1.297   2.466  -0.175  0.00  0.00    +0.000 S 
ATOM      4  C   UNL     1       2.022   0.951   0.117  0.00  0.00    +0.000 A 
ATOM      5  N   UNL     1       3.432   0.631   0.241  0.00  0.00    +0.000 NA
ATOM      6  N   UNL     1       0.987   0.138   0.203  0.00  0.00    +0.000 NA
ENDROOT
BRANCH   1  11
ATOM      7  C   UNL     1      -5.529   0.456  -0.174  0.00  0.00    +0.000 A 
ATOM      8  C   UNL     1      -4.727   1.565  -0.322  0.00  0.00    +0.000 A 
ATOM      9  C   UNL     1      -3.349   1.413  -0.228  0.00  0.00    +0.000 A 
ATOM     10  C   UNL     1      -2.755   0.204   0.006  0.00  0.00    +0.000 A 
ATOM     11  C   UNL     1      -1.451  -0.218   0.142  0.00  0.00    +0.000 A 
ATOM     12  C   UNL     1      -1.508  -1.564   0.367  0.00  0.00    +0.000 A 
ATOM     13  N   UNL     1      -2.817  -1.965   0.370  0.00  0.00    +0.000 NA
ATOM     14  C   UNL     1      -3.584  -0.888   0.150  0.00  0.00    +0.000 A 
ATOM     15  C   UNL     1      -4.950  -0.796   0.066  0.00  0.00    +0.000 A 
ENDBRANCH   1  11
BRANCH   5  16
ATOM     16  C   UNL     1       3.893  -0.693   0.488  0.00  0.00    +0.000 C 
ATOM     17  C   UNL     1       5.403  -0.659   0.558  0.00  0.00    +0.000 C 
ATOM     18  C   UNL     1       5.800  -0.598  -0.912  0.00  0.00    +0.000 C 
ATOM     19  C   UNL     1       4.752  -1.367  -1.665  0.00  0.00    +0.000 C 
ATOM     20  C   UNL     1       3.632  -1.646  -0.669  0.00  0.00    +0.000 C 
ENDBRANCH   5  16
TORSDOF 2
