REMARK  Name = 
REMARK  5 active torsions:
REMARK  status: ('A' for Active; 'I' for Inactive)
REMARK    1  A    between atoms: C_2  and  C_3
REMARK    2  A    between atoms: C_3  and  N_4
REMARK    3  A    between atoms: C_10  and  C_11
REMARK    4  A    between atoms: C_11  and  N_13
REMARK    5  A    between atoms: N_13  and  C_14
REMARK                            x       y       z     vdW  Elec       q    Type
REMARK                         _______ _______ _______ _____ _____    ______ ____
ROOT
ATOM      1  N   UNL     1      -2.911   0.673   0.743  0.00  0.00    +0.000 N 
ATOM      2  C   UNL     1      -3.289   1.919   0.196  0.00  0.00    +0.000 C 
ATOM      3  O   UNL     1      -4.478   2.294   0.037  0.00  0.00    +0.000 OA
ATOM      4  N   UNL     1      -2.256   2.797  -0.197  0.00  0.00    +0.000 NA
ATOM      5  C   UNL     1      -0.938   2.413  -0.031  0.00  0.00    +0.000 C 
ATOM      6  O   UNL     1       0.001   2.955  -0.680  0.00  0.00    +0.000 OA
ATOM      7  C   UNL     1      -0.462   1.314   0.939  0.00  0.00    +0.000 C 
ATOM      8  C   UNL     1      -1.600   0.286   0.903  0.00  0.00    +0.000 C 
ATOM      9  O   UNL     1      -1.311  -0.922   1.025  0.00  0.00    +0.000 OA
ENDROOT
BRANCH   7  10
ATOM     10  C   UNL     1       0.505   0.555  -0.033  0.00  0.00    +0.000 C 
ATOM     11  C   UNL     1       0.925   1.058  -1.149  0.00  0.00    +0.000 C 
BRANCH  10  12
ATOM     12  N   UNL     1       0.917  -0.741   0.365  0.00  0.00    +0.000 NA
BRANCH  12  13
ATOM     13  C   UNL     1       2.272  -1.147   0.286  0.00  0.00    +0.000 A 
ATOM     14  C   UNL     1       2.717  -2.390   0.659  0.00  0.00    +0.000 A 
ATOM     15  C   UNL     1       4.045  -2.749   0.568  0.00  0.00    +0.000 A 
ATOM     16  C   UNL     1       4.946  -1.813   0.081  0.00  0.00    +0.000 A 
ATOM     17  F   UNL     1       6.254  -2.162  -0.011  0.00  0.00    +0.000 F 
ATOM     18  C   UNL     1       4.538  -0.557  -0.304  0.00  0.00    +0.000 A 
ATOM     19  C   UNL     1       3.196  -0.251  -0.191  0.00  0.00    +0.000 A 
ENDBRANCH  12  13
ENDBRANCH  10  12
ENDBRANCH   7  10
BRANCH   1  20
ATOM     20  C   UNL     1      -4.066  -0.173   1.124  0.00  0.00    +0.000 C 
BRANCH  20  22
ATOM     21  C   UNL     1      -4.503  -2.328   0.127  0.00  0.00    +0.000 C 
ATOM     22  C   UNL     1      -4.501  -1.032   0.023  0.00  0.00    +0.000 C 
ENDBRANCH  20  22
ENDBRANCH   1  20
TORSDOF 5
