REMARK  Name = 
REMARK  1 active torsions:
REMARK  status: ('A' for Active; 'I' for Inactive)
REMARK    1  A    between atoms: C_4  and  C_5
REMARK                            x       y       z     vdW  Elec       q    Type
REMARK                         _______ _______ _______ _____ _____    ______ ____
ROOT
ATOM      1  O   UNL     1       1.696   2.154   1.413  0.00  0.00    +0.000 OA
ATOM      2  C   UNL     1       1.240   1.138   0.838  0.00  0.00    +0.000 C 
ATOM      3  N   UNL     1      -0.130   0.901   0.877  0.00  0.00    +0.000 NA
ATOM      4  C   UNL     1      -0.568  -0.630   1.009  0.00  0.00    +0.000 C 
ATOM      5  N   UNL     1       0.094  -1.012  -0.360  0.00  0.00    +0.000 NA
ATOM      6  C   UNL     1       1.515  -0.856  -0.454  0.00  0.00    +0.000 A 
ATOM      7  S   UNL     1       2.827  -1.717  -1.180  0.00  0.00    +0.000 S 
ATOM      8  C   UNL     1       4.112  -0.703  -0.721  0.00  0.00    +0.000 A 
ATOM      9  C   UNL     1       3.491   0.287  -0.009  0.00  0.00    +0.000 A 
ATOM     10  C   UNL     1       2.142   0.196   0.122  0.00  0.00    +0.000 A 
ATOM     11  C   UNL     1       4.497   1.324   0.504  0.00  0.00    +0.000 C 
ATOM     12  C   UNL     1       5.174   1.817  -0.761  0.00  0.00    +0.000 C 
ATOM     13  C   UNL     1       6.002   0.733  -1.381  0.00  0.00    +0.000 C 
ATOM     14  C   UNL     1       5.604  -0.651  -0.896  0.00  0.00    +0.000 C 
ENDROOT
BRANCH   4  15
ATOM     15  C   UNL     1      -2.027  -0.398   0.391  0.00  0.00    +0.000 A 
ATOM     16  C   UNL     1      -2.190   0.338  -0.712  0.00  0.00    +0.000 A 
ATOM     17  C   UNL     1      -3.442   0.533  -1.238  0.00  0.00    +0.000 A 
ATOM     18  C   UNL     1      -4.538  -0.042  -0.612  0.00  0.00    +0.000 A 
ATOM     19  C   UNL     1      -4.348  -0.790   0.514  0.00  0.00    +0.000 A 
ATOM     20  C   UNL     1      -3.069  -0.987   1.048  0.00  0.00    +0.000 A 
ATOM     21  O   UNL     1      -5.608  -1.242   0.928  0.00  0.00    +0.000 OA
ATOM     22  C   UNL     1      -6.563  -0.389   0.279  0.00  0.00    +0.000 C 
ATOM     23  O   UNL     1      -5.910  -0.005  -0.930  0.00  0.00    +0.000 OA
ENDBRANCH   4  15
TORSDOF 1
