REMARK  Name = 
REMARK  1 active torsions:
REMARK  status: ('A' for Active; 'I' for Inactive)
REMARK    1  A    between atoms: C_11  and  C_13
REMARK                            x       y       z     vdW  Elec       q    Type
REMARK                         _______ _______ _______ _____ _____    ______ ____
ROOT
ATOM      1  C   UNL     1      -3.829  -0.264  -2.207  0.00  0.00    +0.000 C 
ATOM      2  C   UNL     1      -3.233  -0.446  -0.806  0.00  0.00    +0.000 C 
ATOM      3  C   UNL     1      -4.082  -1.607  -0.210  0.00  0.00    +0.000 C 
ATOM      4  C   UNL     1      -1.914  -0.946  -0.812  0.00  0.00    +0.000 C 
ATOM      5  C   UNL     1      -0.704   0.116  -0.678  0.00  0.00    +0.000 C 
ATOM      6  C   UNL     1      -1.625   1.460  -0.539  0.00  0.00    +0.000 C 
ATOM      7  C   UNL     1      -2.403   1.209   0.696  0.00  0.00    +0.000 C 
ATOM      8  C   UNL     1      -2.693   2.452   1.490  0.00  0.00    +0.000 C 
ATOM      9  C   UNL     1      -1.801   0.098   1.484  0.00  0.00    +0.000 C 
ATOM     10  N   UNL     1      -0.534   0.013   0.840  0.00  0.00    +0.000 N 
ATOM     11  C   UNL     1       0.671  -0.143   1.538  0.00  0.00    +0.000 C 
ATOM     12  O   UNL     1       0.703  -0.220   2.829  0.00  0.00    +0.000 OA
ATOM     13  C   UNL     1      -3.679   0.663   0.088  0.00  0.00    +0.000 C 
ENDROOT
BRANCH  11  14
ATOM     14  C   UNL     1       1.977  -0.234   0.922  0.00  0.00    +0.000 A 
ATOM     15  C   UNL     1       3.155  -0.387   1.611  0.00  0.00    +0.000 A 
ATOM     16  C   UNL     1       4.380  -0.468   0.976  0.00  0.00    +0.000 A 
ATOM     17  C   UNL     1       4.482  -0.400  -0.393  0.00  0.00    +0.000 A 
ATOM     18  N   UNL     1       5.752  -0.485  -1.063  0.00  0.00    +0.000 NA
ATOM     19  C   UNL     1       3.304  -0.247  -1.084  0.00  0.00    +0.000 A 
ATOM     20  C   UNL     1       2.075  -0.165  -0.450  0.00  0.00    +0.000 A 
ENDBRANCH  11  14
TORSDOF 1
