REMARK  Name = 
REMARK  4 active torsions:
REMARK  status: ('A' for Active; 'I' for Inactive)
REMARK    1  A    between atoms: C_6  and  N_7
REMARK    2  A    between atoms: C_8  and  C_10
REMARK    3  A    between atoms: C_10  and  C_11
REMARK    4  A    between atoms: C_16  and  N_17
REMARK                            x       y       z     vdW  Elec       q    Type
REMARK                         _______ _______ _______ _____ _____    ______ ____
ROOT
ATOM      1  N   UNL     1       0.995  -0.248   1.289  0.00  0.00    +0.000 NA
ATOM      2  C   UNL     1      -0.200  -0.500   0.570  0.00  0.00    +0.000 C 
ATOM      3  O   UNL     1      -0.115  -0.741  -0.655  0.00  0.00    +0.000 OA
ENDROOT
BRANCH   1   9
ATOM      4  C   UNL     1       6.055  -0.368  -1.209  0.00  0.00    +0.000 C 
ATOM      5  C   UNL     1       4.700  -0.243  -0.565  0.00  0.00    +0.000 A 
ATOM      6  C   UNL     1       4.004   0.921  -0.504  0.00  0.00    +0.000 A 
ATOM      7  C   UNL     1       2.755   0.898   0.127  0.00  0.00    +0.000 A 
ATOM      8  C   UNL     1       1.962   2.156   0.214  0.00  0.00    +0.000 C 
ATOM      9  C   UNL     1       2.253  -0.264   0.664  0.00  0.00    +0.000 A 
ATOM     10  C   UNL     1       2.955  -1.443   0.604  0.00  0.00    +0.000 A 
ATOM     11  C   UNL     1       2.406  -2.705   1.190  0.00  0.00    +0.000 C 
ATOM     12  C   UNL     1       4.189  -1.418  -0.019  0.00  0.00    +0.000 A 
ENDBRANCH   1   9
BRANCH   2  13
ATOM     13  C   UNL     1      -1.480  -0.468   1.276  0.00  0.00    +0.000 C 
BRANCH  13  14
ATOM     14  C   UNL     1      -2.667  -0.680   0.429  0.00  0.00    +0.000 A 
ATOM     15  C   UNL     1      -3.205  -1.970   0.360  0.00  0.00    +0.000 A 
ATOM     16  C   UNL     1      -4.288  -2.220  -0.451  0.00  0.00    +0.000 A 
ATOM     17  C   UNL     1      -4.880  -1.236  -1.212  0.00  0.00    +0.000 A 
ATOM     18  C   UNL     1      -4.354   0.032  -1.145  0.00  0.00    +0.000 A 
ATOM     19  C   UNL     1      -3.245   0.308  -0.322  0.00  0.00    +0.000 A 
BRANCH  19  20
ATOM     20  N   UNL     1      -2.735   1.625  -0.236  0.00  0.00    +0.000 N 
ATOM     21  O   UNL     1      -1.541   1.831  -0.033  0.00  0.00    +0.000 OA
ATOM     22  O   UNL     1      -3.565   2.711  -0.372  0.00  0.00    +0.000 OA
ENDBRANCH  19  20
ENDBRANCH  13  14
ENDBRANCH   2  13
TORSDOF 4
