REMARK  Name = 
REMARK  1 active torsions:
REMARK  status: ('A' for Active; 'I' for Inactive)
REMARK    1  A    between atoms: C_2  and  N_3
REMARK                            x       y       z     vdW  Elec       q    Type
REMARK                         _______ _______ _______ _____ _____    ______ ____
ROOT
ATOM      1  N   UNL     1      -3.359   0.270  -0.033  0.00  0.00    +0.000 N 
ATOM      2  C   UNL     1      -2.486   0.230   1.053  0.00  0.00    +0.000 C 
ATOM      3  O   UNL     1      -2.640   0.013   2.231  0.00  0.00    +0.000 OA
ATOM      4  C   UNL     1      -1.096   0.557   0.403  0.00  0.00    +0.000 C 
ATOM      5  C   UNL     1      -0.207  -0.511   1.301  0.00  0.00    +0.000 C 
ATOM      6  C   UNL     1       1.104  -0.473   0.596  0.00  0.00    +0.000 A 
ATOM      7  C   UNL     1       1.081  -0.865  -0.729  0.00  0.00    +0.000 A 
ATOM      8  N   UNL     1       2.327  -0.763  -1.168  0.00  0.00    +0.000 NA
ATOM      9  C   UNL     1       3.144  -0.325  -0.187  0.00  0.00    +0.000 A 
ATOM     10  C   UNL     1       4.494  -0.053  -0.109  0.00  0.00    +0.000 A 
ATOM     11  C   UNL     1       5.087   0.401   1.067  0.00  0.00    +0.000 A 
ATOM     12  C   UNL     1       4.301   0.583   2.188  0.00  0.00    +0.000 A 
ATOM     13  C   UNL     1       2.939   0.319   2.147  0.00  0.00    +0.000 A 
ATOM     14  C   UNL     1       2.399  -0.128   0.958  0.00  0.00    +0.000 A 
ATOM     15  C   UNL     1      -0.257  -1.261  -1.242  0.00  0.00    +0.000 C 
ATOM     16  N   UNL     1      -1.301  -0.413  -0.815  0.00  0.00    +0.000 N 
ATOM     17  C   UNL     1      -2.617  -0.128  -1.181  0.00  0.00    +0.000 C 
ATOM     18  S   UNL     1      -3.184  -0.247  -2.718  0.00  0.00    +0.000 S 
ENDROOT
BRANCH   1  20
ATOM     19  C   UNL     1      -4.952   2.139  -0.176  0.00  0.00    +0.000 C 
ATOM     20  C   UNL     1      -4.777   0.655   0.033  0.00  0.00    +0.000 C 
ENDBRANCH   1  20
TORSDOF 1
