REMARK  Name = 
REMARK  3 active torsions:
REMARK  status: ('A' for Active; 'I' for Inactive)
REMARK    1  A    between atoms: C_2  and  C_13
REMARK    2  A    between atoms: N_3  and  N_4
REMARK    3  A    between atoms: C_5  and  C_7
REMARK                            x       y       z     vdW  Elec       q    Type
REMARK                         _______ _______ _______ _____ _____    ______ ____
ROOT
ATOM      1  C   UNL     1      -0.547  -0.008  -1.845  0.00  0.00    +0.000 C 
ATOM      2  C   UNL     1      -1.141   0.162  -0.513  0.00  0.00    +0.000 C 
ATOM      3  N   UNL     1      -0.406   0.538   0.458  0.00  0.00    +0.000 NA
ENDROOT
BRANCH   2   4
ATOM      4  C   UNL     1      -2.572  -0.093  -0.265  0.00  0.00    +0.000 A 
ATOM      5  C   UNL     1      -3.114   0.070   0.993  0.00  0.00    +0.000 A 
ATOM      6  C   UNL     1      -4.458  -0.167   1.236  0.00  0.00    +0.000 A 
ATOM      7  C   UNL     1      -5.301  -0.576   0.224  0.00  0.00    +0.000 A 
ATOM      8  O   UNL     1      -6.658  -0.815   0.470  0.00  0.00    +0.000 OA
ATOM      9  C   UNL     1      -4.753  -0.738  -1.032  0.00  0.00    +0.000 A 
ATOM     10  C   UNL     1      -3.415  -0.503  -1.278  0.00  0.00    +0.000 A 
ENDBRANCH   2   4
BRANCH   3  11
ATOM     11  N   UNL     1       0.975   0.799   0.285  0.00  0.00    +0.000 NA
ATOM     12  C   UNL     1       1.865  -0.246  -0.115  0.00  0.00    +0.000 C 
ATOM     13  O   UNL     1       1.365  -1.384  -0.301  0.00  0.00    +0.000 OA
BRANCH  12  14
ATOM     14  C   UNL     1       3.288  -0.004  -0.299  0.00  0.00    +0.000 A 
ATOM     15  C   UNL     1       4.192  -0.960  -0.681  0.00  0.00    +0.000 A 
ATOM     16  C   UNL     1       5.433  -0.319  -0.739  0.00  0.00    +0.000 A 
ATOM     17  C   UNL     1       5.190   1.003  -0.383  0.00  0.00    +0.000 A 
ATOM     18  C   UNL     1       6.167   2.118  -0.283  0.00  0.00    +0.000 C 
ATOM     19  O   UNL     1       3.891   1.124  -0.133  0.00  0.00    +0.000 OA
ENDBRANCH  12  14
ENDBRANCH   3  11
TORSDOF 3
