REMARK  Name = 
REMARK  6 active torsions:
REMARK  status: ('A' for Active; 'I' for Inactive)
REMARK    1  A    between atoms: O_2  and  C_3
REMARK    2  A    between atoms: C_5  and  C_6
REMARK    3  A    between atoms: C_6  and  N_7
REMARK    4  A    between atoms: N_7  and  C_8
REMARK    5  A    between atoms: C_14  and  N_15
REMARK    6  A    between atoms: C_19  and  O_20
REMARK                            x       y       z     vdW  Elec       q    Type
REMARK                         _______ _______ _______ _____ _____    ______ ____
ROOT
ATOM      1  C   UNL     1      -2.118   1.046   0.759  0.00  0.00    +0.000 A 
ATOM      2  C   UNL     1      -1.100   1.264  -0.111  0.00  0.00    +0.000 A 
ATOM      3  C   UNL     1      -0.762   0.217  -0.931  0.00  0.00    +0.000 A 
ATOM      4  C   UNL     1      -1.349  -1.001  -0.978  0.00  0.00    +0.000 A 
ATOM      5  C   UNL     1      -2.399  -1.233  -0.073  0.00  0.00    +0.000 A 
ATOM      6  C   UNL     1      -2.725  -0.207   0.756  0.00  0.00    +0.000 A 
ENDROOT
BRANCH   4   7
ATOM      7  N   UNL     1      -1.031  -1.889  -2.055  0.00  0.00    +0.000 N 
ATOM      8  O   UNL     1      -0.483  -1.372  -3.071  0.00  0.00    +0.000 OA
ATOM      9  O   UNL     1      -1.276  -3.214  -2.095  0.00  0.00    +0.000 OA
ENDBRANCH   4   7
BRANCH   1  11
ATOM     10  C   UNL     1      -2.001   3.396   1.452  0.00  0.00    +0.000 C 
ATOM     11  O   UNL     1      -2.595   2.095   1.612  0.00  0.00    +0.000 OA
ENDBRANCH   1  11
BRANCH   6  12
ATOM     12  O   UNL     1      -3.709  -0.343   1.761  0.00  0.00    +0.000 OA
ATOM     13  C   UNL     1      -4.321  -1.651   1.874  0.00  0.00    +0.000 C 
ENDBRANCH   6  12
BRANCH   3  14
ATOM     14  C   UNL     1       0.648   0.189  -1.678  0.00  0.00    +0.000 C 
BRANCH  14  15
ATOM     15  N   UNL     1       1.435   0.567  -0.582  0.00  0.00    +0.000 NA
BRANCH  15  16
ATOM     16  C   UNL     1       2.713   0.489  -0.086  0.00  0.00    +0.000 A 
ATOM     17  C   UNL     1       3.881   0.776  -0.761  0.00  0.00    +0.000 A 
ATOM     18  C   UNL     1       5.085   0.639  -0.108  0.00  0.00    +0.000 A 
ATOM     19  C   UNL     1       5.231   0.233   1.181  0.00  0.00    +0.000 A 
ATOM     20  C   UNL     1       4.042  -0.056   1.853  0.00  0.00    +0.000 A 
ATOM     21  C   UNL     1       2.835   0.058   1.281  0.00  0.00    +0.000 A 
ENDBRANCH  15  16
ENDBRANCH  14  15
ENDBRANCH   3  14
TORSDOF 6
