REMARK  Name = 
REMARK  5 active torsions:
REMARK  status: ('A' for Active; 'I' for Inactive)
REMARK    1  A    between atoms: O_2  and  C_3
REMARK    2  A    between atoms: C_5  and  C_6
REMARK    3  A    between atoms: C_6  and  C_7
REMARK    4  A    between atoms: C_16  and  N_17
REMARK    5  A    between atoms: C_21  and  O_22
REMARK                            x       y       z     vdW  Elec       q    Type
REMARK                         _______ _______ _______ _____ _____    ______ ____
ROOT
ATOM      1  C   UNL     1      -2.710   1.311  -0.040  0.00  0.00    +0.000 A 
ATOM      2  C   UNL     1      -1.791   0.821   0.845  0.00  0.00    +0.000 A 
ATOM      3  C   UNL     1      -1.204  -0.454   0.733  0.00  0.00    +0.000 A 
ATOM      4  C   UNL     1      -1.551  -1.271  -0.305  0.00  0.00    +0.000 A 
ATOM      5  C   UNL     1      -2.499  -0.755  -1.214  0.00  0.00    +0.000 A 
ATOM      6  C   UNL     1      -3.055   0.484  -1.088  0.00  0.00    +0.000 A 
ENDROOT
BRANCH   4   7
ATOM      7  N   UNL     1      -1.090  -2.601  -0.507  0.00  0.00    +0.000 N 
ATOM      8  O   UNL     1      -1.896  -3.381  -1.107  0.00  0.00    +0.000 OA
ATOM      9  O   UNL     1       0.078  -3.098  -0.133  0.00  0.00    +0.000 OA
ENDBRANCH   4   7
BRANCH   1  11
ATOM     10  C   UNL     1      -2.936   3.440   1.159  0.00  0.00    +0.000 C 
ATOM     11  O   UNL     1      -3.279   2.584   0.096  0.00  0.00    +0.000 OA
ENDBRANCH   1  11
BRANCH   6  12
ATOM     12  O   UNL     1      -3.999   0.985  -2.002  0.00  0.00    +0.000 OA
ATOM     13  C   UNL     1      -4.341   0.124  -3.069  0.00  0.00    +0.000 C 
ENDBRANCH   6  12
BRANCH   3  14
ATOM     14  C   UNL     1      -0.160  -0.850   1.704  0.00  0.00    +0.000 C 
BRANCH  14  15
ATOM     15  C   UNL     1       1.203  -0.466   1.267  0.00  0.00    +0.000 A 
ATOM     16  N   UNL     1       2.153  -1.157   0.662  0.00  0.00    +0.000 NA
ATOM     17  C   UNL     1       3.261  -0.445   0.432  0.00  0.00    +0.000 A 
ATOM     18  C   UNL     1       4.492  -0.656  -0.137  0.00  0.00    +0.000 A 
ATOM     19  C   UNL     1       5.441   0.362  -0.207  0.00  0.00    +0.000 A 
ATOM     20  C   UNL     1       5.177   1.600   0.290  0.00  0.00    +0.000 A 
ATOM     21  C   UNL     1       3.950   1.836   0.866  0.00  0.00    +0.000 A 
ATOM     22  C   UNL     1       3.001   0.810   0.932  0.00  0.00    +0.000 A 
ATOM     23  N   UNL     1       1.756   0.773   1.430  0.00  0.00    +0.000 NA
ENDBRANCH  14  15
ENDBRANCH   3  14
TORSDOF 5
