REMARK  Name = 
REMARK  3 active torsions:
REMARK  status: ('A' for Active; 'I' for Inactive)
REMARK    1  A    between atoms: C_2  and  C_4
REMARK    2  A    between atoms: C_9  and  N_10
REMARK    3  A    between atoms: C_11  and  C_13
REMARK                            x       y       z     vdW  Elec       q    Type
REMARK                         _______ _______ _______ _____ _____    ______ ____
ROOT
ATOM      1  N   UNL     1      -0.594  -0.180  -0.010  0.00  0.00    +0.000 NA
ATOM      2  C   UNL     1       0.170  -1.349  -0.199  0.00  0.00    +0.000 C 
ATOM      3  O   UNL     1      -0.467  -2.409  -0.422  0.00  0.00    +0.000 OA
ENDROOT
BRANCH   2   4
ATOM      4  C   UNL     1       1.666  -1.376  -0.147  0.00  0.00    +0.000 A 
ATOM      5  C   UNL     1       2.356  -2.548  -0.341  0.00  0.00    +0.000 A 
ATOM      6  S   UNL     1       3.982  -2.105  -0.196  0.00  0.00    +0.000 S 
ATOM      7  C   UNL     1       3.778  -0.447   0.107  0.00  0.00    +0.000 A 
ATOM      8  C   UNL     1       2.422  -0.268   0.089  0.00  0.00    +0.000 A 
ATOM      9  C   UNL     1       1.972   1.172   0.342  0.00  0.00    +0.000 C 
ATOM     10  C   UNL     1       2.724   1.587   1.589  0.00  0.00    +0.000 C 
ATOM     11  C   UNL     1       4.199   1.660   1.380  0.00  0.00    +0.000 C 
ATOM     12  C   UNL     1       4.723   0.710   0.359  0.00  0.00    +0.000 C 
ENDBRANCH   2   4
BRANCH   1  18
ATOM     13  C   UNL     1      -2.841   0.856   0.098  0.00  0.00    +0.000 A 
ATOM     14  C   UNL     1      -4.232   0.718   0.019  0.00  0.00    +0.000 A 
ATOM     15  C   UNL     1      -4.820  -0.501  -0.230  0.00  0.00    +0.000 A 
ATOM     16  C   UNL     1      -4.011  -1.604  -0.406  0.00  0.00    +0.000 A 
ATOM     17  C   UNL     1      -2.640  -1.458  -0.326  0.00  0.00    +0.000 A 
ATOM     18  C   UNL     1      -2.038  -0.228  -0.074  0.00  0.00    +0.000 A 
BRANCH  13  20
ATOM     19  N   UNL     1      -3.096   3.284   0.541  0.00  0.00    +0.000 NA
ATOM     20  C   UNL     1      -2.238   2.151   0.362  0.00  0.00    +0.000 C 
ATOM     21  O   UNL     1      -1.014   2.335   0.443  0.00  0.00    +0.000 OA
ENDBRANCH  13  20
ENDBRANCH   1  18
TORSDOF 3
