REMARK  Name = 
REMARK  2 active torsions:
REMARK  status: ('A' for Active; 'I' for Inactive)
REMARK    1  A    between atoms: C_11  and  C_12
REMARK    2  A    between atoms: C_16  and  N_17
REMARK                            x       y       z     vdW  Elec       q    Type
REMARK                         _______ _______ _______ _____ _____    ______ ____
ROOT
ATOM      1  C   UNL     1       1.805  -2.185  -0.976  0.00  0.00    +0.000 C 
ATOM      2  C   UNL     1       2.683  -1.461   0.206  0.00  0.00    +0.000 C 
ATOM      3  O   UNL     1       3.728  -0.958  -0.761  0.00  0.00    +0.000 OA
ATOM      4  C   UNL     1       4.534  -0.132   0.055  0.00  0.00    +0.000 C 
ATOM      5  C   UNL     1       5.819   0.084  -0.671  0.00  0.00    +0.000 C 
ATOM      6  C   UNL     1       4.683  -0.789   1.400  0.00  0.00    +0.000 C 
ATOM      7  N   UNL     1       3.876   1.181   0.166  0.00  0.00    +0.000 NA
ATOM      8  C   UNL     1       2.431   1.078   0.194  0.00  0.00    +0.000 A 
ATOM      9  C   UNL     1       1.644   2.216   0.207  0.00  0.00    +0.000 A 
ATOM     10  C   UNL     1       0.270   2.124   0.235  0.00  0.00    +0.000 A 
ATOM     11  C   UNL     1      -0.358   0.895   0.250  0.00  0.00    +0.000 A 
ATOM     12  C   UNL     1       0.462  -0.220   0.236  0.00  0.00    +0.000 A 
ATOM     13  C   UNL     1       1.818  -0.138   0.209  0.00  0.00    +0.000 A 
ENDROOT
BRANCH  11  14
ATOM     14  C   UNL     1      -1.824   0.780   0.279  0.00  0.00    +0.000 A 
ATOM     15  C   UNL     1      -2.637   1.700   0.904  0.00  0.00    +0.000 A 
ATOM     16  C   UNL     1      -4.017   1.583   0.925  0.00  0.00    +0.000 A 
ATOM     17  C   UNL     1      -4.641   0.524   0.311  0.00  0.00    +0.000 A 
ATOM     18  C   UNL     1      -3.861  -0.423  -0.329  0.00  0.00    +0.000 A 
ATOM     19  C   UNL     1      -2.480  -0.268  -0.327  0.00  0.00    +0.000 A 
BRANCH  18  20
ATOM     20  N   UNL     1      -4.499  -1.512  -0.961  0.00  0.00    +0.000 N 
ATOM     21  O   UNL     1      -5.720  -1.648  -0.964  0.00  0.00    +0.000 OA
ATOM     22  O   UNL     1      -3.714  -2.429  -1.583  0.00  0.00    +0.000 OA
ENDBRANCH  18  20
ENDBRANCH  11  14
TORSDOF 2
