REMARK  Name = 
REMARK  2 active torsions:
REMARK  status: ('A' for Active; 'I' for Inactive)
REMARK    1  A    between atoms: C_7  and  N_8
REMARK    2  A    between atoms: C_9  and  C_11
REMARK                            x       y       z     vdW  Elec       q    Type
REMARK                         _______ _______ _______ _____ _____    ______ ____
ROOT
ATOM      1  N   UNL     1      -5.245   0.579   0.383  0.00  0.00    +0.000 NA
ATOM      2  C   UNL     1      -4.040   0.886  -0.287  0.00  0.00    +0.000 A 
ATOM      3  C   UNL     1      -3.954   1.917  -1.199  0.00  0.00    +0.000 A 
ATOM      4  C   UNL     1      -2.782   2.208  -1.844  0.00  0.00    +0.000 A 
ATOM      5  C   UNL     1      -1.665   1.434  -1.559  0.00  0.00    +0.000 A 
ATOM      6  C   UNL     1      -1.720   0.412  -0.665  0.00  0.00    +0.000 A 
ATOM      7  C   UNL     1      -0.644  -0.384  -0.347  0.00  0.00    +0.000 A 
ATOM      8  C   UNL     1      -0.744  -1.405   0.561  0.00  0.00    +0.000 A 
ATOM      9  C   UNL     1      -1.940  -1.680   1.200  0.00  0.00    +0.000 A 
ATOM     10  C   UNL     1      -3.014  -0.898   0.894  0.00  0.00    +0.000 A 
ATOM     11  C   UNL     1      -2.923   0.122  -0.011  0.00  0.00    +0.000 A 
ENDROOT
BRANCH   7  12
ATOM     12  N   UNL     1       0.601  -0.139  -0.978  0.00  0.00    +0.000 NA
ATOM     13  C   UNL     1       1.704  -0.942  -0.663  0.00  0.00    +0.000 C 
ATOM     14  O   UNL     1       1.748  -1.883   0.132  0.00  0.00    +0.000 OA
BRANCH  13  15
ATOM     15  C   UNL     1       3.080  -0.595  -1.432  0.00  0.00    +0.000 C 
ATOM     16  C   UNL     1       3.246   0.950  -0.870  0.00  0.00    +0.000 C 
ATOM     17  C   UNL     1       4.003  -0.331  -0.146  0.00  0.00    +0.000 C 
ATOM     18  C   UNL     1       5.387  -0.053  -0.192  0.00  0.00    +0.000 C 
ATOM     19  C   UNL     1       5.183   0.139   1.332  0.00  0.00    +0.000 C 
ATOM     20  C   UNL     1       3.721  -0.336   1.168  0.00  0.00    +0.000 C 
ENDBRANCH  13  15
ENDBRANCH   7  12
TORSDOF 2
