REMARK  Name = 
REMARK  3 active torsions:
REMARK  status: ('A' for Active; 'I' for Inactive)
REMARK    1  A    between atoms: C_8  and  C_9
REMARK    2  A    between atoms: C_10  and  C_11
REMARK    3  A    between atoms: C_14  and  N_15
REMARK                            x       y       z     vdW  Elec       q    Type
REMARK                         _______ _______ _______ _____ _____    ______ ____
ROOT
ATOM      1  C   UNL     1       0.555  -0.005   0.012  0.00  0.00    +0.000 A 
ATOM      2  C   UNL     1       1.117   0.293  -1.206  0.00  0.00    +0.000 A 
ATOM      3  C   UNL     1       2.491   0.535  -1.312  0.00  0.00    +0.000 A 
ATOM      4  C   UNL     1       3.304   0.475  -0.190  0.00  0.00    +0.000 A 
ATOM      5  C   UNL     1       2.742   0.175   1.035  0.00  0.00    +0.000 A 
ATOM      6  C   UNL     1       1.383  -0.057   1.106  0.00  0.00    +0.000 A 
ENDROOT
BRANCH   4   7
ATOM      7  N   UNL     1       4.701   0.722  -0.307  0.00  0.00    +0.000 N 
ATOM      8  C   UNL     1       5.471   1.115   0.707  0.00  0.00    +0.000 A 
ATOM      9  C   UNL     1       6.768   1.256   0.230  0.00  0.00    +0.000 A 
ATOM     10  N   UNL     1       6.753   0.939  -1.087  0.00  0.00    +0.000 NA
ATOM     11  C   UNL     1       5.478   0.617  -1.389  0.00  0.00    +0.000 A 
ENDBRANCH   4   7
BRANCH   1  13
ATOM     12  C   UNL     1      -1.752  -0.250  -0.748  0.00  0.00    +0.000 C 
ATOM     13  C   UNL     1      -0.859  -0.265   0.189  0.00  0.00    +0.000 C 
BRANCH  12  21
ATOM     14  C   UNL     1      -4.379   0.578   1.256  0.00  0.00    +0.000 C 
ATOM     15  C   UNL     1      -3.544  -0.840   1.006  0.00  0.00    +0.000 C 
ATOM     16  C   UNL     1      -4.852  -1.770   0.724  0.00  0.00    +0.000 C 
ATOM     17  C   UNL     1      -5.826  -1.046  -0.036  0.00  0.00    +0.000 C 
ATOM     18  O   UNL     1      -6.931  -0.709   0.420  0.00  0.00    +0.000 OA
ATOM     19  N   UNL     1      -5.409  -0.738  -1.390  0.00  0.00    +0.000 NA
ATOM     20  N   UNL     1      -4.021  -0.502  -1.435  0.00  0.00    +0.000 NA
ATOM     21  C   UNL     1      -3.190  -0.522  -0.521  0.00  0.00    +0.000 C 
ENDBRANCH  12  21
ENDBRANCH   1  13
TORSDOF 3
