REMARK  Name = 
REMARK  0 active torsions:
REMARK  status: ('A' for Active; 'I' for Inactive)
REMARK                            x       y       z     vdW  Elec       q    Type
REMARK                         _______ _______ _______ _____ _____    ______ ____
ROOT
ATOM      1  C   UNL     1       5.046  -0.024   0.928  0.00  0.00    +0.000 C 
ATOM      2  C   UNL     1       3.658  -0.367   0.506  0.00  0.00    +0.000 A 
ATOM      3  C   UNL     1       3.373  -1.565  -0.119  0.00  0.00    +0.000 A 
ATOM      4  C   UNL     1       2.086  -1.875  -0.506  0.00  0.00    +0.000 A 
ATOM      5  C   UNL     1       1.024  -1.000  -0.287  0.00  0.00    +0.000 A 
ATOM      6  C   UNL     1       1.308   0.180   0.329  0.00  0.00    +0.000 A 
ATOM      7  C   UNL     1       2.597   0.489   0.717  0.00  0.00    +0.000 A 
ATOM      8  O   UNL     1       2.870   1.702   1.346  0.00  0.00    +0.000 OA
ATOM      9  C   UNL     1       0.216   1.114   0.571  0.00  0.00    +0.000 C 
ATOM     10  O   UNL     1       0.463   2.212   1.140  0.00  0.00    +0.000 OA
ATOM     11  C   UNL     1      -1.123   0.732   0.140  0.00  0.00    +0.000 A 
ATOM     12  C   UNL     1      -2.179   1.595   0.354  0.00  0.00    +0.000 A 
ATOM     13  C   UNL     1      -1.878   2.885   1.026  0.00  0.00    +0.000 C 
ATOM     14  C   UNL     1      -3.471   1.267  -0.043  0.00  0.00    +0.000 A 
ATOM     15  C   UNL     1      -3.741   0.065  -0.666  0.00  0.00    +0.000 A 
ATOM     16  O   UNL     1      -5.038  -0.273  -1.069  0.00  0.00    +0.000 OA
ATOM     17  C   UNL     1      -2.674  -0.783  -0.872  0.00  0.00    +0.000 A 
ATOM     18  C   UNL     1      -1.373  -0.472  -0.482  0.00  0.00    +0.000 A 
ATOM     19  C   UNL     1      -0.294  -1.436  -0.740  0.00  0.00    +0.000 C 
ATOM     20  C   UNL     1      -0.247  -1.827  -2.219  0.00  0.00    +0.000 C 
ATOM     21  O   UNL     1      -0.623  -2.620  -0.053  0.00  0.00    +0.000 OA
ENDROOT
TORSDOF 0
