REMARK  Name = 
REMARK  1 active torsions:
REMARK  status: ('A' for Active; 'I' for Inactive)
REMARK    1  A    between atoms: C_5  and  N_6
REMARK                            x       y       z     vdW  Elec       q    Type
REMARK                         _______ _______ _______ _____ _____    ______ ____
ROOT
ATOM      1  N   UNL     1       0.703  -1.216   0.631  0.00  0.00    +0.000 NA
ATOM      2  C   UNL     1      -0.470  -0.562   0.112  0.00  0.00    +0.000 A 
ATOM      3  N   UNL     1      -1.692  -1.045   0.292  0.00  0.00    +0.000 NA
ATOM      4  C   UNL     1      -2.843  -0.529  -0.140  0.00  0.00    +0.000 A 
ATOM      5  C   UNL     1      -3.976  -1.280   0.215  0.00  0.00    +0.000 A 
ATOM      6  C   UNL     1      -5.251  -0.910  -0.138  0.00  0.00    +0.000 A 
ATOM      7  C   UNL     1      -5.453   0.238  -0.868  0.00  0.00    +0.000 A 
ATOM      8  C   UNL     1      -4.347   0.968  -1.212  0.00  0.00    +0.000 A 
ATOM      9  C   UNL     1      -3.034   0.604  -0.859  0.00  0.00    +0.000 A 
ATOM     10  C   UNL     1      -1.981   1.419  -1.261  0.00  0.00    +0.000 A 
ATOM     11  O   UNL     1      -2.231   2.456  -1.927  0.00  0.00    +0.000 OA
ATOM     12  S   UNL     1      -0.443   0.887  -0.782  0.00  0.00    +0.000 S 
ENDROOT
BRANCH   1  17
ATOM     13  C   UNL     1       5.899   0.985  -0.226  0.00  0.00    +0.000 C 
ATOM     14  C   UNL     1       4.536   0.445  -0.024  0.00  0.00    +0.000 A 
ATOM     15  C   UNL     1       3.399   1.054  -0.512  0.00  0.00    +0.000 A 
ATOM     16  C   UNL     1       2.140   0.528  -0.309  0.00  0.00    +0.000 A 
ATOM     17  C   UNL     1       1.976  -0.653   0.406  0.00  0.00    +0.000 A 
ATOM     18  C   UNL     1       3.105  -1.253   0.887  0.00  0.00    +0.000 A 
ATOM     19  C   UNL     1       4.368  -0.731   0.688  0.00  0.00    +0.000 A 
ATOM     20  C   UNL     1       5.595  -1.405   1.224  0.00  0.00    +0.000 C 
ENDBRANCH   1  17
TORSDOF 1
