REMARK  Name = 
REMARK  2 active torsions:
REMARK  status: ('A' for Active; 'I' for Inactive)
REMARK    1  A    between atoms: C_7  and  N_8
REMARK    2  A    between atoms: C_9  and  C_11
REMARK                            x       y       z     vdW  Elec       q    Type
REMARK                         _______ _______ _______ _____ _____    ______ ____
ROOT
ATOM      1  N   UNL     1      -0.088   0.263   0.027  0.00  0.00    +0.000 NA
ATOM      2  C   UNL     1       0.767  -0.553   0.817  0.00  0.00    +0.000 C 
ATOM      3  O   UNL     1       0.228  -1.339   1.635  0.00  0.00    +0.000 OA
ENDROOT
BRANCH   1  10
ATOM      4  C   UNL     1      -4.626   1.692  -1.227  0.00  0.00    +0.000 C 
ATOM      5  C   UNL     1      -3.713   0.850  -0.413  0.00  0.00    +0.000 A 
ATOM      6  C   UNL     1      -4.259  -0.025   0.497  0.00  0.00    +0.000 A 
ATOM      7  O   UNL     1      -5.644  -0.114   0.647  0.00  0.00    +0.000 OA
ATOM      8  C   UNL     1      -3.399  -0.798   1.243  0.00  0.00    +0.000 A 
ATOM      9  C   UNL     1      -2.042  -0.688   1.073  0.00  0.00    +0.000 A 
ATOM     10  C   UNL     1      -1.481   0.176   0.174  0.00  0.00    +0.000 A 
ATOM     11  C   UNL     1      -2.338   0.949  -0.572  0.00  0.00    +0.000 A 
ATOM     12  C   UNL     1      -1.840   1.929  -1.586  0.00  0.00    +0.000 C 
ENDBRANCH   1  10
BRANCH   2  13
ATOM     13  C   UNL     1       2.210  -0.451   0.651  0.00  0.00    +0.000 A 
ATOM     14  C   UNL     1       3.060  -1.230   1.404  0.00  0.00    +0.000 A 
ATOM     15  C   UNL     1       4.432  -1.138   1.252  0.00  0.00    +0.000 A 
ATOM     16  C   UNL     1       5.014  -0.274   0.351  0.00  0.00    +0.000 A 
ATOM     17 CL   UNL     1       6.769  -0.174   0.176  0.00  0.00    +0.000 Cl
ATOM     18  C   UNL     1       4.167   0.507  -0.403  0.00  0.00    +0.000 A 
ATOM     19  C   UNL     1       2.781   0.416  -0.252  0.00  0.00    +0.000 A 
ENDBRANCH   2  13
TORSDOF 2
