REMARK  Name = 
REMARK  2 active torsions:
REMARK  status: ('A' for Active; 'I' for Inactive)
REMARK    1  A    between atoms: N_12  and  C_13
REMARK    2  A    between atoms: C_13  and  C_14
REMARK                            x       y       z     vdW  Elec       q    Type
REMARK                         _______ _______ _______ _____ _____    ______ ____
ROOT
ATOM      1  O   UNL     1       1.125   2.970  -1.254  0.00  0.00    +0.000 OA
ATOM      2  C   UNL     1       1.130   1.818  -0.695  0.00  0.00    +0.000 C 
ATOM      3  N   UNL     1       2.345   1.156  -0.309  0.00  0.00    +0.000 NA
ATOM      4  C   UNL     1       1.923  -0.231   0.006  0.00  0.00    +0.000 C 
ATOM      5  C   UNL     1       2.812  -0.677   1.158  0.00  0.00    +0.000 C 
ATOM      6  C   UNL     1       4.253  -0.584   0.663  0.00  0.00    +0.000 C 
ATOM      7  C   UNL     1       4.463  -1.355  -0.612  0.00  0.00    +0.000 C 
ATOM      8  C   UNL     1       3.478  -0.997  -1.694  0.00  0.00    +0.000 C 
ATOM      9  C   UNL     1       2.103  -1.208  -1.147  0.00  0.00    +0.000 C 
ATOM     10  C   UNL     1       0.524  -0.106   0.297  0.00  0.00    +0.000 C 
ATOM     11  O   UNL     1      -0.207  -0.827   1.032  0.00  0.00    +0.000 OA
ATOM     12  N   UNL     1       0.037   0.999  -0.351  0.00  0.00    +0.000 N 
ENDROOT
BRANCH  12  13
ATOM     13  C   UNL     1      -1.386   1.255  -0.929  0.00  0.00    +0.000 C 
BRANCH  13  14
ATOM     14  C   UNL     1      -2.318   0.255  -0.379  0.00  0.00    +0.000 A 
ATOM     15  C   UNL     1      -2.380  -1.141  -0.850  0.00  0.00    +0.000 A 
ATOM     16  C   UNL     1      -3.301  -1.931  -0.215  0.00  0.00    +0.000 A 
ATOM     17  C   UNL     1      -4.133  -1.611   0.766  0.00  0.00    +0.000 A 
ATOM     18  C   UNL     1      -3.998  -0.183   1.198  0.00  0.00    +0.000 A 
ATOM     19  C   UNL     1      -3.135   0.450   0.526  0.00  0.00    +0.000 A 
ATOM     20  F   UNL     1      -3.336   1.949   0.827  0.00  0.00    +0.000 F 
ENDBRANCH  13  14
ENDBRANCH  12  13
TORSDOF 2
