REMARK  Name = 
REMARK  4 active torsions:
REMARK  status: ('A' for Active; 'I' for Inactive)
REMARK    1  A    between atoms: C_2  and  C_3
REMARK    2  A    between atoms: C_3  and  N_4
REMARK    3  A    between atoms: C_15  and  O_16
REMARK    4  A    between atoms: O_16  and  C_17
REMARK                            x       y       z     vdW  Elec       q    Type
REMARK                         _______ _______ _______ _____ _____    ______ ____
ROOT
ATOM      1  N   UNL     1      -3.569  -0.059  -0.374  0.00  0.00    +0.000 NA
ATOM      2  C   UNL     1      -2.416   0.401   0.320  0.00  0.00    +0.000 A 
ATOM      3  N   UNL     1      -2.438   1.092   1.454  0.00  0.00    +0.000 NA
ATOM      4  C   UNL     1      -1.329   1.517   2.093  0.00  0.00    +0.000 A 
ATOM      5  N   UNL     1      -0.131   1.217   1.539  0.00  0.00    +0.000 NA
ATOM      6  C   UNL     1      -0.030   0.524   0.399  0.00  0.00    +0.000 A 
ATOM      7  C   UNL     1      -1.175   0.098  -0.240  0.00  0.00    +0.000 A 
ATOM      8  N   UNL     1      -0.802  -0.567  -1.348  0.00  0.00    +0.000 NA
ATOM      9  C   UNL     1       0.544  -0.593  -1.460  0.00  0.00    +0.000 A 
ATOM     10  C   UNL     1       1.407  -1.146  -2.409  0.00  0.00    +0.000 A 
ATOM     11  C   UNL     1       2.765  -0.996  -2.233  0.00  0.00    +0.000 A 
ATOM     12  C   UNL     1       3.299  -0.323  -1.158  0.00  0.00    +0.000 A 
ATOM     13  C   UNL     1       2.412   0.208  -0.243  0.00  0.00    +0.000 A 
ATOM     14  C   UNL     1       1.040   0.089  -0.368  0.00  0.00    +0.000 A 
ENDROOT
BRANCH   1  15
ATOM     15  C   UNL     1      -4.911   0.195   0.112  0.00  0.00    +0.000 C 
BRANCH  15  17
ATOM     16  C   UNL     1      -4.111  -1.073   2.063  0.00  0.00    +0.000 C 
ATOM     17  C   UNL     1      -5.067  -0.409   1.441  0.00  0.00    +0.000 C 
ENDBRANCH  15  17
ENDBRANCH   1  15
BRANCH  12  18
ATOM     18  O   UNL     1       4.673  -0.198  -1.024  0.00  0.00    +0.000 OA
BRANCH  18  19
ATOM     19  C   UNL     1       5.160   0.507   0.105  0.00  0.00    +0.000 C 
ATOM     20  C   UNL     1       4.678  -0.210   1.332  0.00  0.00    +0.000 C 
ENDBRANCH  18  19
ENDBRANCH  12  18
TORSDOF 4
