REMARK  Name = 
REMARK  3 active torsions:
REMARK  status: ('A' for Active; 'I' for Inactive)
REMARK    1  A    between atoms: O_2  and  C_3
REMARK    2  A    between atoms: C_6  and  C_7
REMARK    3  A    between atoms: N_11  and  C_12
REMARK                            x       y       z     vdW  Elec       q    Type
REMARK                         _______ _______ _______ _____ _____    ______ ____
ROOT
ATOM      1  C   UNL     1      -0.045  -0.294  -0.521  0.00  0.00    +0.000 C 
ATOM      2  C   UNL     1      -0.630  -1.150  -1.341  0.00  0.00    +0.000 C 
ATOM      3  S   UNL     1      -2.405  -1.113  -1.454  0.00  0.00    +0.000 S 
ATOM      4  C   UNL     1      -2.969   0.162  -0.350  0.00  0.00    +0.000 C 
ATOM      5  N   UNL     1      -4.322   0.489  -0.167  0.00  0.00    +0.000 NA
ATOM      6  N   UNL     1      -2.101   0.828   0.323  0.00  0.00    +0.000 NA
ATOM      7  N   UNL     1      -0.737   0.653   0.277  0.00  0.00    +0.000 NA
ENDROOT
BRANCH   1  11
ATOM      8  C   UNL     1       4.168  -0.462  -0.327  0.00  0.00    +0.000 A 
ATOM      9  C   UNL     1       3.463   0.440   0.429  0.00  0.00    +0.000 A 
ATOM     10  C   UNL     1       2.076   0.507   0.376  0.00  0.00    +0.000 A 
ATOM     11  C   UNL     1       1.401  -0.347  -0.450  0.00  0.00    +0.000 A 
ATOM     12  C   UNL     1       2.096  -1.250  -1.207  0.00  0.00    +0.000 A 
ATOM     13  C   UNL     1       3.475  -1.310  -1.148  0.00  0.00    +0.000 A 
BRANCH   8  15
ATOM     14  C   UNL     1       6.203   0.402   0.620  0.00  0.00    +0.000 C 
ATOM     15  O   UNL     1       5.539  -0.493  -0.241  0.00  0.00    +0.000 OA
ENDBRANCH   8  15
ENDBRANCH   1  11
BRANCH   5  16
ATOM     16  C   UNL     1      -4.741   1.001   1.123  0.00  0.00    +0.000 C 
ATOM     17  C   UNL     1      -4.549   0.163   2.346  0.00  0.00    +0.000 C 
ATOM     18  C   UNL     1      -5.920   0.169   1.712  0.00  0.00    +0.000 C 
ENDBRANCH   5  16
TORSDOF 3
