REMARK  Name = 
REMARK  4 active torsions:
REMARK  status: ('A' for Active; 'I' for Inactive)
REMARK    1  A    between atoms: C_2  and  C_4
REMARK    2  A    between atoms: C_4  and  C_5
REMARK    3  A    between atoms: C_5  and  C_6
REMARK    4  A    between atoms: N_11  and  C_12
REMARK                            x       y       z     vdW  Elec       q    Type
REMARK                         _______ _______ _______ _____ _____    ______ ____
ROOT
ATOM      1  C   UNL     1       1.078   0.104  -0.734  0.00  0.00    +0.000 C 
ATOM      2  C   UNL     1       0.300   0.730  -1.866  0.00  0.00    +0.000 C 
ATOM      3  N   UNL     1       1.087  -1.342  -0.937  0.00  0.00    +0.000 NA
ATOM      4  C   UNL     1      -0.272  -1.714  -0.608  0.00  0.00    +0.000 C 
ATOM      5  O   UNL     1      -0.883  -2.785  -0.809  0.00  0.00    +0.000 OA
ATOM      6  N   UNL     1      -0.850  -0.587   0.031  0.00  0.00    +0.000 N 
ATOM      7  N   UNL     1       0.238   0.191   0.469  0.00  0.00    +0.000 NA
ENDROOT
BRANCH   6   8
ATOM      8  C   UNL     1      -2.207  -0.214   0.239  0.00  0.00    +0.000 A 
ATOM      9  C   UNL     1      -2.587   1.128   0.187  0.00  0.00    +0.000 A 
ATOM     10  C   UNL     1      -3.881   1.554   0.380  0.00  0.00    +0.000 A 
ATOM     11  C   UNL     1      -4.872   0.615   0.641  0.00  0.00    +0.000 A 
ATOM     12  C   UNL     1      -4.495  -0.714   0.693  0.00  0.00    +0.000 A 
ATOM     13  C   UNL     1      -3.198  -1.130   0.498  0.00  0.00    +0.000 A 
ENDBRANCH   6   8
BRANCH   1  14
ATOM     14  C   UNL     1       2.406   0.723  -0.561  0.00  0.00    +0.000 C 
BRANCH  14  15
ATOM     15  C   UNL     1       3.237   0.158   0.536  0.00  0.00    +0.000 C 
BRANCH  15  17
ATOM     16  C   UNL     1       4.833   1.885  -0.258  0.00  0.00    +0.000 C 
ATOM     17  C   UNL     1       4.527   0.895   0.569  0.00  0.00    +0.000 C 
ATOM     18  C   UNL     1       5.537   0.503   1.587  0.00  0.00    +0.000 C 
ENDBRANCH  15  17
ENDBRANCH  14  15
ENDBRANCH   1  14
TORSDOF 4
