REMARK  Name = 
REMARK  1 active torsions:
REMARK  status: ('A' for Active; 'I' for Inactive)
REMARK    1  A    between atoms: C_2  and  C_11
REMARK                            x       y       z     vdW  Elec       q    Type
REMARK                         _______ _______ _______ _____ _____    ______ ____
ROOT
ATOM      1  O   UNL     1       0.615   1.724  -0.302  0.00  0.00    +0.000 OA
ATOM      2  C   UNL     1       0.168   0.579  -0.052  0.00  0.00    +0.000 C 
ATOM      3  N   UNL     1       1.106  -0.419   0.321  0.00  0.00    +0.000 NA
ATOM      4  C   UNL     1       2.501  -0.170   0.418  0.00  0.00    +0.000 A 
ATOM      5  N   UNL     1       2.964   1.066   0.147  0.00  0.00    +0.000 NA
ATOM      6  C   UNL     1       4.261   1.390   0.213  0.00  0.00    +0.000 A 
ATOM      7  C   UNL     1       5.147   0.380   0.583  0.00  0.00    +0.000 A 
ATOM      8  C   UNL     1       4.689  -0.901   0.867  0.00  0.00    +0.000 A 
ATOM      9  C   UNL     1       3.341  -1.179   0.783  0.00  0.00    +0.000 A 
ATOM     10  O   UNL     1       2.810  -2.440   1.053  0.00  0.00    +0.000 OA
ENDROOT
BRANCH   2  11
ATOM     11  C   UNL     1      -1.266   0.324  -0.153  0.00  0.00    +0.000 C 
ATOM     12  C   UNL     1      -1.478  -0.762  -1.194  0.00  0.00    +0.000 C 
ATOM     13  C   UNL     1      -2.946  -1.067  -1.388  0.00  0.00    +0.000 C 
ATOM     14  C   UNL     1      -3.557  -1.575  -0.079  0.00  0.00    +0.000 C 
ATOM     15  C   UNL     1      -3.303  -0.492   0.958  0.00  0.00    +0.000 C 
ATOM     16  C   UNL     1      -4.105   0.722   0.524  0.00  0.00    +0.000 C 
ATOM     17  C   UNL     1      -3.460   1.229  -0.755  0.00  0.00    +0.000 C 
ATOM     18  C   UNL     1      -3.623   0.201  -1.854  0.00  0.00    +0.000 C 
ATOM     19  C   UNL     1      -2.012   1.583  -0.513  0.00  0.00    +0.000 C 
ATOM     20  C   UNL     1      -1.853  -0.192   1.142  0.00  0.00    +0.000 C 
ENDBRANCH   2  11
TORSDOF 1
