REMARK  Name = 
REMARK  4 active torsions:
REMARK  status: ('A' for Active; 'I' for Inactive)
REMARK    1  A    between atoms: C_2  and  C_3
REMARK    2  A    between atoms: C_3  and  N_4
REMARK    3  A    between atoms: N_4  and  C_5
REMARK    4  A    between atoms: C_5  and  N_7
REMARK                            x       y       z     vdW  Elec       q    Type
REMARK                         _______ _______ _______ _____ _____    ______ ____
ROOT
ATOM      1  N   UNL     1       1.191   0.875  -0.194  0.00  0.00    +0.000 N 
ATOM      2  C   UNL     1       0.739   1.811  -1.167  0.00  0.00    +0.000 C 
ATOM      3  C   UNL     1      -0.520   2.491  -0.669  0.00  0.00    +0.000 C 
ATOM      4  C   UNL     1      -1.545   1.464  -0.459  0.00  0.00    +0.000 A 
ATOM      5  N   UNL     1      -2.822   1.336  -0.760  0.00  0.00    +0.000 NA
ATOM      6  C   UNL     1      -3.298   0.150  -0.319  0.00  0.00    +0.000 A 
ATOM      7  C   UNL     1      -4.543  -0.452  -0.384  0.00  0.00    +0.000 A 
ATOM      8  C   UNL     1      -4.752  -1.711   0.170  0.00  0.00    +0.000 A 
ATOM      9  C   UNL     1      -3.679  -2.336   0.783  0.00  0.00    +0.000 A 
ATOM     10  C   UNL     1      -2.457  -1.741   0.843  0.00  0.00    +0.000 A 
ATOM     11  C   UNL     1      -2.254  -0.493   0.292  0.00  0.00    +0.000 A 
ATOM     12  C   UNL     1      -1.135   0.305   0.224  0.00  0.00    +0.000 A 
ATOM     13  C   UNL     1       0.265   0.181   0.674  0.00  0.00    +0.000 C 
ENDROOT
BRANCH   1  14
ATOM     14  C   UNL     1       2.604   0.607  -0.079  0.00  0.00    +0.000 C 
ATOM     15  S   UNL     1       3.730   1.323  -1.005  0.00  0.00    +0.000 S 
BRANCH  14  16
ATOM     16  N   UNL     1       3.013  -0.326   0.898  0.00  0.00    +0.000 NA
BRANCH  16  17
ATOM     17  C   UNL     1       4.332  -0.757   1.197  0.00  0.00    +0.000 C 
BRANCH  17  19
ATOM     18  C   UNL     1       6.133  -1.145  -0.386  0.00  0.00    +0.000 C 
ATOM     19  C   UNL     1       4.995  -1.582   0.151  0.00  0.00    +0.000 C 
ENDBRANCH  17  19
ENDBRANCH  16  17
ENDBRANCH  14  16
ENDBRANCH   1  14
TORSDOF 4
