REMARK  Name = 
REMARK  4 active torsions:
REMARK  status: ('A' for Active; 'I' for Inactive)
REMARK    1  A    between atoms: C_2  and  C_3
REMARK    2  A    between atoms: C_3  and  C_4
REMARK    3  A    between atoms: C_4  and  C_5
REMARK    4  A    between atoms: N_11  and  C_12
REMARK                            x       y       z     vdW  Elec       q    Type
REMARK                         _______ _______ _______ _____ _____    ______ ____
ROOT
ATOM      1  O   UNL     1       0.053   0.396   0.763  0.00  0.00    +0.000 OA
ATOM      2  C   UNL     1      -0.133  -0.831   0.737  0.00  0.00    +0.000 C 
ATOM      3  N   UNL     1       0.917  -1.670   0.279  0.00  0.00    +0.000 NA
ENDROOT
BRANCH   3   4
ATOM      4  C   UNL     1       2.135  -1.065  -0.130  0.00  0.00    +0.000 A 
ATOM      5  C   UNL     1       2.311   0.294  -0.090  0.00  0.00    +0.000 A 
ATOM      6  C   UNL     1       3.537   0.794  -0.511  0.00  0.00    +0.000 A 
ATOM      7  C   UNL     1       4.558  -0.005  -0.955  0.00  0.00    +0.000 A 
ATOM      8  O   UNL     1       5.792   0.503  -1.378  0.00  0.00    +0.000 OA
ATOM      9  C   UNL     1       4.360  -1.371  -0.987  0.00  0.00    +0.000 A 
ATOM     10  C   UNL     1       3.150  -1.900  -0.575  0.00  0.00    +0.000 A 
ENDBRANCH   3   4
BRANCH   2  11
ATOM     11  C   UNL     1      -1.431  -1.399   1.179  0.00  0.00    +0.000 C 
BRANCH  11  12
ATOM     12  C   UNL     1      -2.340  -0.275   1.607  0.00  0.00    +0.000 C 
BRANCH  12  13
ATOM     13  C   UNL     1      -2.555   0.643   0.452  0.00  0.00    +0.000 C 
ATOM     14  C   UNL     1      -3.442   1.808   0.741  0.00  0.00    +0.000 C 
ATOM     15  C   UNL     1      -4.845   1.486   0.277  0.00  0.00    +0.000 C 
ATOM     16  C   UNL     1      -5.062  -0.014   0.236  0.00  0.00    +0.000 C 
ATOM     17  C   UNL     1      -4.188  -0.684  -0.796  0.00  0.00    +0.000 C 
ATOM     18  C   UNL     1      -2.816  -0.035  -0.849  0.00  0.00    +0.000 C 
ENDBRANCH  12  13
ENDBRANCH  11  12
ENDBRANCH   2  11
TORSDOF 4
