REMARK  Name = 
REMARK  1 active torsions:
REMARK  status: ('A' for Active; 'I' for Inactive)
REMARK    1  A    between atoms: C_4  and  C_5
REMARK                            x       y       z     vdW  Elec       q    Type
REMARK                         _______ _______ _______ _____ _____    ______ ____
ROOT
ATOM      1  C   UNL     1       0.218  -0.206   0.032  0.00  0.00    +0.000 A 
ATOM      2  C   UNL     1      -0.407  -1.432   0.161  0.00  0.00    +0.000 A 
ATOM      3  C   UNL     1      -1.752  -1.515   0.017  0.00  0.00    +0.000 A 
ATOM      4  C   UNL     1      -2.485  -2.817   0.146  0.00  0.00    +0.000 C 
ATOM      5  C   UNL     1      -2.495  -0.388  -0.257  0.00  0.00    +0.000 A 
ATOM      6  C   UNL     1      -3.860  -0.420  -0.413  0.00  0.00    +0.000 A 
ATOM      7  O   UNL     1      -4.494  -1.640  -0.285  0.00  0.00    +0.000 OA
ATOM      8  C   UNL     1      -4.590   0.722  -0.687  0.00  0.00    +0.000 A 
ATOM      9  C   UNL     1      -3.900   1.926  -0.805  0.00  0.00    +0.000 A 
ATOM     10  O   UNL     1      -4.673   3.045  -1.081  0.00  0.00    +0.000 OA
ATOM     11  C   UNL     1      -2.550   1.930  -0.647  0.00  0.00    +0.000 A 
ATOM     12  C   UNL     1      -1.790   0.812  -0.372  0.00  0.00    +0.000 A 
ATOM     13  O   UNL     1      -0.488   0.860  -0.227  0.00  0.00    +0.000 OA
ENDROOT
BRANCH   1  17
ATOM     14  C   UNL     1       4.497   2.350   0.114  0.00  0.00    +0.000 C 
ATOM     15  C   UNL     1       3.731   1.068   0.235  0.00  0.00    +0.000 A 
ATOM     16  C   UNL     1       2.360   1.024   0.081  0.00  0.00    +0.000 A 
ATOM     17  C   UNL     1       1.670  -0.168   0.197  0.00  0.00    +0.000 A 
ATOM     18  C   UNL     1       2.398  -1.305   0.471  0.00  0.00    +0.000 A 
ATOM     19  C   UNL     1       3.774  -1.263   0.626  0.00  0.00    +0.000 A 
ATOM     20  C   UNL     1       4.538  -2.503   0.921  0.00  0.00    +0.000 C 
ATOM     21  C   UNL     1       4.455  -0.086   0.511  0.00  0.00    +0.000 A 
ATOM     22  O   UNL     1       5.843   0.006   0.660  0.00  0.00    +0.000 OA
ENDBRANCH   1  17
TORSDOF 1
