REMARK  Name = 
REMARK  3 active torsions:
REMARK  status: ('A' for Active; 'I' for Inactive)
REMARK    1  A    between atoms: C_2  and  C_5
REMARK    2  A    between atoms: C_8  and  C_9
REMARK    3  A    between atoms: C_14  and  C_15
REMARK                            x       y       z     vdW  Elec       q    Type
REMARK                         _______ _______ _______ _____ _____    ______ ____
ROOT
ATOM      1  C   UNL     1       2.611   0.159   0.298  0.00  0.00    +0.000 A 
ATOM      2  C   UNL     1       1.857   0.560  -0.773  0.00  0.00    +0.000 A 
ATOM      3  C   UNL     1       0.504   0.645  -0.668  0.00  0.00    +0.000 A 
ATOM      4  C   UNL     1      -0.179   0.346   0.507  0.00  0.00    +0.000 A 
ATOM      5  C   UNL     1       0.586  -0.057   1.571  0.00  0.00    +0.000 A 
ATOM      6  C   UNL     1       1.992  -0.154   1.493  0.00  0.00    +0.000 A 
ENDROOT
BRANCH   4   7
ATOM      7  C   UNL     1      -1.663   0.476   0.588  0.00  0.00    +0.000 A 
ATOM      8  C   UNL     1      -2.214   1.301   1.541  0.00  0.00    +0.000 A 
ATOM      9  S   UNL     1      -3.877   1.230   1.238  0.00  0.00    +0.000 S 
ATOM     10  C   UNL     1      -3.881   0.164  -0.081  0.00  0.00    +0.000 A 
ATOM     11  N   UNL     1      -4.990  -0.355  -0.908  0.00  0.00    +0.000 NA
ATOM     12  C   UNL     1      -2.526  -0.132  -0.263  0.00  0.00    +0.000 A 
BRANCH  12  13
ATOM     13  C   UNL     1      -2.161  -1.087  -1.349  0.00  0.00    +0.000 C 
ATOM     14  N   UNL     1      -0.827  -1.446  -1.593  0.00  0.00    +0.000 NA
ATOM     15  O   UNL     1      -3.040  -1.605  -2.065  0.00  0.00    +0.000 OA
ENDBRANCH  12  13
ENDBRANCH   4   7
BRANCH   1  17
ATOM     16  C   UNL     1       4.726  -0.051   1.512  0.00  0.00    +0.000 C 
ATOM     17  C   UNL     1       4.094   0.047   0.177  0.00  0.00    +0.000 C 
ATOM     18  C   UNL     1       4.663   1.223  -0.619  0.00  0.00    +0.000 C 
ATOM     19  C   UNL     1       4.323  -1.265  -0.605  0.00  0.00    +0.000 C 
ENDBRANCH   1  17
TORSDOF 3
