REMARK  Name = 
REMARK  4 active torsions:
REMARK  status: ('A' for Active; 'I' for Inactive)
REMARK    1  A    between atoms: C_2  and  O_3
REMARK    2  A    between atoms: O_3  and  C_4
REMARK    3  A    between atoms: C_7  and  C_8
REMARK    4  A    between atoms: C_8  and  C_9
REMARK                            x       y       z     vdW  Elec       q    Type
REMARK                         _______ _______ _______ _____ _____    ______ ____
ROOT
ATOM      1  C   UNL     1      -1.245   0.577   0.276  0.00  0.00    +0.000 A 
ATOM      2  C   UNL     1      -2.486   1.010  -0.118  0.00  0.00    +0.000 A 
ATOM      3  N   UNL     1      -2.642   2.419  -0.386  0.00  0.00    +0.000 NA
ATOM      4  N   UNL     1      -3.546   0.157  -0.256  0.00  0.00    +0.000 N 
ATOM      5  C   UNL     1      -4.755   0.483  -0.618  0.00  0.00    +0.000 A 
ATOM      6  C   UNL     1      -5.699  -0.476  -0.708  0.00  0.00    +0.000 A 
ATOM      7  S   UNL     1      -4.826  -1.872  -0.258  0.00  0.00    +0.000 S 
ATOM      8  C   UNL     1      -3.301  -1.124   0.014  0.00  0.00    +0.000 A 
ATOM      9  N   UNL     1      -2.066  -1.575   0.408  0.00  0.00    +0.000 NA
ATOM     10  C   UNL     1      -1.005  -0.757   0.552  0.00  0.00    +0.000 A 
ATOM     11  O   UNL     1       0.128  -1.174   0.913  0.00  0.00    +0.000 OA
ENDROOT
BRANCH   1  12
ATOM     12  C   UNL     1      -0.118   1.567   0.423  0.00  0.00    +0.000 C 
BRANCH  12  16
ATOM     13  C   UNL     1       3.798   0.106  -0.339  0.00  0.00    +0.000 A 
ATOM     14  C   UNL     1       2.940   0.366  -1.395  0.00  0.00    +0.000 A 
ATOM     15  C   UNL     1       1.652   0.828  -1.143  0.00  0.00    +0.000 A 
ATOM     16  C   UNL     1       1.209   1.033   0.145  0.00  0.00    +0.000 A 
ATOM     17  C   UNL     1       2.117   0.753   1.176  0.00  0.00    +0.000 A 
ATOM     18  C   UNL     1       3.389   0.298   0.966  0.00  0.00    +0.000 A 
BRANCH  13  19
ATOM     19  O   UNL     1       5.074  -0.350  -0.655  0.00  0.00    +0.000 OA
BRANCH  19  21
ATOM     20  C   UNL     1       5.407  -1.663   1.327  0.00  0.00    +0.000 C 
ATOM     21  C   UNL     1       5.975  -0.606   0.404  0.00  0.00    +0.000 C 
ENDBRANCH  19  21
ENDBRANCH  13  19
ENDBRANCH  12  16
ENDBRANCH   1  12
TORSDOF 4
