REMARK  Name = 
REMARK  3 active torsions:
REMARK  status: ('A' for Active; 'I' for Inactive)
REMARK    1  A    between atoms: N_2  and  C_4
REMARK    2  A    between atoms: C_7  and  C_8
REMARK    3  A    between atoms: N_9  and  C_10
REMARK                            x       y       z     vdW  Elec       q    Type
REMARK                         _______ _______ _______ _____ _____    ______ ____
ROOT
ATOM      1  C   UNL     1       0.130  -0.578   0.460  0.00  0.00    +0.000 C 
ATOM      2  N   UNL     1       0.797   0.511   0.534  0.00  0.00    +0.000 NA
ENDROOT
BRANCH   2   3
ATOM      3  C   UNL     1       2.210   0.568   0.698  0.00  0.00    +0.000 A 
ATOM      4  C   UNL     1       2.761   1.109   1.860  0.00  0.00    +0.000 A 
ATOM      5  C   UNL     1       4.138   1.131   1.948  0.00  0.00    +0.000 A 
ATOM      6  C   UNL     1       4.968   0.650   0.953  0.00  0.00    +0.000 A 
ATOM      7  N   UNL     1       6.383   0.683   1.065  0.00  0.00    +0.000 NA
ATOM      8  C   UNL     1       4.374   0.126  -0.176  0.00  0.00    +0.000 A 
ATOM      9 BR   UNL     1       5.541  -0.542  -1.555  0.00  0.00    +0.000 Br
ATOM     10  C   UNL     1       3.005   0.077  -0.318  0.00  0.00    +0.000 A 
ENDBRANCH   2   3
BRANCH   1  14
ATOM     11  C   UNL     1      -4.110  -0.405  -0.031  0.00  0.00    +0.000 A 
ATOM     12  C   UNL     1      -3.369   0.767   0.051  0.00  0.00    +0.000 A 
ATOM     13  C   UNL     1      -2.000   0.700   0.210  0.00  0.00    +0.000 A 
ATOM     14  C   UNL     1      -1.318  -0.496   0.292  0.00  0.00    +0.000 A 
ATOM     15  C   UNL     1      -2.097  -1.643   0.205  0.00  0.00    +0.000 A 
ATOM     16  C   UNL     1      -3.451  -1.617   0.048  0.00  0.00    +0.000 A 
BRANCH  11  18
ATOM     17  C   UNL     1      -6.189   0.905  -0.276  0.00  0.00    +0.000 C 
ATOM     18  N   UNL     1      -5.511  -0.360  -0.194  0.00  0.00    +0.000 N 
ATOM     19  C   UNL     1      -6.261  -1.586  -0.278  0.00  0.00    +0.000 C 
ENDBRANCH  11  18
ENDBRANCH   1  14
TORSDOF 3
