REMARK  Name = 
REMARK  2 active torsions:
REMARK  status: ('A' for Active; 'I' for Inactive)
REMARK    1  A    between atoms: C_11  and  C_12
REMARK    2  A    between atoms: C_12  and  C_14
REMARK                            x       y       z     vdW  Elec       q    Type
REMARK                         _______ _______ _______ _____ _____    ______ ____
ROOT
ATOM      1  C   UNL     1      -2.179   1.959   1.266  0.00  0.00    +0.000 C 
ATOM      2  C   UNL     1      -2.329   0.811   0.310  0.00  0.00    +0.000 C 
ATOM      3  C   UNL     1      -3.750   0.619  -0.180  0.00  0.00    +0.000 C 
ATOM      4  C   UNL     1      -4.476  -0.455   0.549  0.00  0.00    +0.000 C 
ATOM      5  C   UNL     1      -3.837  -1.799   0.547  0.00  0.00    +0.000 C 
ATOM      6  C   UNL     1      -2.373  -1.689   0.304  0.00  0.00    +0.000 C 
ATOM      7  C   UNL     1      -1.777  -0.434   0.915  0.00  0.00    +0.000 C 
ATOM      8  O   UNL     1      -1.911  -0.430   2.302  0.00  0.00    +0.000 OA
ATOM      9  N   UNL     1      -0.373  -0.390   0.583  0.00  0.00    +0.000 N 
ATOM     10  O   UNL     1       0.534  -1.122   1.310  0.00  0.00    +0.000 OA
ATOM     11  C   UNL     1      -0.173   0.377  -0.409  0.00  0.00    +0.000 C 
ATOM     12  N   UNL     1      -1.447   0.944  -0.844  0.00  0.00    +0.000 NA
ENDROOT
BRANCH  11  13
ATOM     13  C   UNL     1       1.048   0.741  -1.105  0.00  0.00    +0.000 C 
ATOM     14  O   UNL     1       0.906   1.565  -2.106  0.00  0.00    +0.000 OA
BRANCH  13  15
ATOM     15  C   UNL     1       2.379   0.287  -0.800  0.00  0.00    +0.000 A 
ATOM     16  C   UNL     1       3.442   0.765  -1.609  0.00  0.00    +0.000 A 
ATOM     17  C   UNL     1       4.698   0.330  -1.313  0.00  0.00    +0.000 A 
ATOM     18  C   UNL     1       5.007  -0.534  -0.292  0.00  0.00    +0.000 A 
ATOM     19  C   UNL     1       3.943  -0.982   0.478  0.00  0.00    +0.000 A 
ATOM     20  C   UNL     1       2.669  -0.564   0.208  0.00  0.00    +0.000 A 
ENDBRANCH  13  15
ENDBRANCH  11  13
TORSDOF 2
