REMARK  Name = 
REMARK  5 active torsions:
REMARK  status: ('A' for Active; 'I' for Inactive)
REMARK    1  A    between atoms: C_2  and  C_5
REMARK    2  A    between atoms: N_7  and  C_8
REMARK    3  A    between atoms: C_8  and  N_10
REMARK    4  A    between atoms: N_10  and  C_11
REMARK    5  A    between atoms: C_15  and  N_16
REMARK                            x       y       z     vdW  Elec       q    Type
REMARK                         _______ _______ _______ _____ _____    ______ ____
ROOT
ATOM      1  N   UNL     1      -0.097   0.581  -0.082  0.00  0.00    +0.000 NA
ENDROOT
BRANCH   1   2
ATOM      2  C   UNL     1      -1.401  -0.015  -0.185  0.00  0.00    +0.000 A 
ATOM      3  C   UNL     1      -1.530  -1.383  -0.073  0.00  0.00    +0.000 A 
ATOM      4  C   UNL     1      -2.801  -1.907  -0.179  0.00  0.00    +0.000 A 
ATOM      5  C   UNL     1      -3.917  -1.108  -0.391  0.00  0.00    +0.000 A 
ATOM      6  C   UNL     1      -3.779   0.259  -0.501  0.00  0.00    +0.000 A 
ATOM      7  C   UNL     1      -2.499   0.763  -0.392  0.00  0.00    +0.000 A 
BRANCH   6   8
ATOM      8  N   UNL     1      -4.919   1.098  -0.719  0.00  0.00    +0.000 N 
ATOM      9  O   UNL     1      -6.033   0.587  -0.808  0.00  0.00    +0.000 OA
ATOM     10  O   UNL     1      -4.801   2.461  -0.833  0.00  0.00    +0.000 OA
ENDBRANCH   6   8
ENDBRANCH   1   2
BRANCH   1  11
ATOM     11  C   UNL     1       1.039  -0.232   0.133  0.00  0.00    +0.000 C 
ATOM     12  S   UNL     1       0.894  -1.850   0.267  0.00  0.00    +0.000 S 
BRANCH  11  15
ATOM     13  C   UNL     1       3.509  -0.342   0.446  0.00  0.00    +0.000 C 
ATOM     14  O   UNL     1       3.497  -1.590   0.561  0.00  0.00    +0.000 OA
ATOM     15  N   UNL     1       2.319   0.363   0.234  0.00  0.00    +0.000 NA
BRANCH  13  17
ATOM     16  C   UNL     1       5.066   1.124  -0.763  0.00  0.00    +0.000 C 
ATOM     17  C   UNL     1       4.803   0.365   0.538  0.00  0.00    +0.000 C 
ATOM     18  C   UNL     1       4.706   1.380   1.664  0.00  0.00    +0.000 C 
ATOM     19  C   UNL     1       5.945  -0.556   0.850  0.00  0.00    +0.000 C 
ENDBRANCH  13  17
ENDBRANCH  11  15
ENDBRANCH   1  11
TORSDOF 5
