REMARK  Name = 
REMARK  4 active torsions:
REMARK  status: ('A' for Active; 'I' for Inactive)
REMARK    1  A    between atoms: C_10  and  C_11
REMARK    2  A    between atoms: C_12  and  C_13
REMARK    3  A    between atoms: C_12  and  C_15
REMARK    4  A    between atoms: N_17  and  C_18
REMARK                            x       y       z     vdW  Elec       q    Type
REMARK                         _______ _______ _______ _____ _____    ______ ____
ROOT
ATOM      1  C   UNL     1      -0.953  -3.150   0.495  0.00  0.00    +0.000 C 
ATOM      2  C   UNL     1      -1.680  -1.885   0.231  0.00  0.00    +0.000 A 
ATOM      3  N   UNL     1      -2.977  -1.725  -0.115  0.00  0.00    +0.000 NA
ATOM      4  C   UNL     1      -3.291  -0.439  -0.247  0.00  0.00    +0.000 A 
ATOM      5  C   UNL     1      -4.462   0.252  -0.580  0.00  0.00    +0.000 A 
ATOM      6  C   UNL     1      -4.467   1.613  -0.634  0.00  0.00    +0.000 A 
ATOM      7  C   UNL     1      -3.332   2.363  -0.366  0.00  0.00    +0.000 A 
ATOM      8  C   UNL     1      -2.190   1.662  -0.040  0.00  0.00    +0.000 A 
ATOM      9  C   UNL     1      -2.161   0.274   0.021  0.00  0.00    +0.000 A 
ATOM     10  C   UNL     1      -1.141  -0.646   0.323  0.00  0.00    +0.000 A 
ENDROOT
BRANCH  10  11
ATOM     11  C   UNL     1       0.193  -0.165   0.627  0.00  0.00    +0.000 C 
ATOM     12  C   UNL     1       1.324  -0.575   0.102  0.00  0.00    +0.000 C 
BRANCH  12  13
ATOM     13  C   UNL     1       2.619   0.013   0.518  0.00  0.00    +0.000 C 
ATOM     14  O   UNL     1       3.656  -0.430  -0.029  0.00  0.00    +0.000 OA
ATOM     15  N   UNL     1       2.713   1.024   1.483  0.00  0.00    +0.000 NA
BRANCH  15  16
ATOM     16  C   UNL     1       3.959   1.623   1.917  0.00  0.00    +0.000 C 
ATOM     17  C   UNL     1       4.450   2.789   1.040  0.00  0.00    +0.000 C 
ATOM     18  C   UNL     1       5.213   1.439   1.165  0.00  0.00    +0.000 C 
ENDBRANCH  15  16
ENDBRANCH  12  13
BRANCH  12  19
ATOM     19  C   UNL     1       1.275  -1.608  -0.889  0.00  0.00    +0.000 C 
ATOM     20  N   UNL     1       1.253  -2.429  -1.710  0.00  0.00    +0.000 NA
ENDBRANCH  12  19
ENDBRANCH  10  11
TORSDOF 4
