REMARK  Name = 
REMARK  1 active torsions:
REMARK  status: ('A' for Active; 'I' for Inactive)
REMARK    1  A    between atoms: C_5  and  N_6
REMARK                            x       y       z     vdW  Elec       q    Type
REMARK                         _______ _______ _______ _____ _____    ______ ____
ROOT
ATOM      1  N   UNL     1       0.683   0.412   0.092  0.00  0.00    +0.000 NA
ATOM      2  C   UNL     1      -0.432  -0.446   0.001  0.00  0.00    +0.000 A 
ATOM      3  N   UNL     1      -0.221  -1.762  -0.141  0.00  0.00    +0.000 NA
ATOM      4  C   UNL     1      -1.155  -2.687  -0.241  0.00  0.00    +0.000 A 
ATOM      5  N   UNL     1      -2.435  -2.259  -0.194  0.00  0.00    +0.000 NA
ATOM      6  C   UNL     1      -2.715  -0.931  -0.051  0.00  0.00    +0.000 A 
ATOM      7  S   UNL     1      -4.169  -0.056   0.045  0.00  0.00    +0.000 S 
ATOM      8  C   UNL     1      -3.546   1.520   0.214  0.00  0.00    +0.000 A 
ATOM      9  C   UNL     1      -2.196   1.321   0.192  0.00  0.00    +0.000 A 
ATOM     10  C   UNL     1      -1.760   0.039   0.053  0.00  0.00    +0.000 A 
ATOM     11  C   UNL     1      -1.589   2.719   0.342  0.00  0.00    +0.000 C 
ATOM     12  C   UNL     1      -2.635   3.452   1.118  0.00  0.00    +0.000 C 
ATOM     13  C   UNL     1      -3.892   2.982   0.372  0.00  0.00    +0.000 C 
ENDROOT
BRANCH   1  18
ATOM     14  O   UNL     1       5.978  -1.385  -0.103  0.00  0.00    +0.000 OA
ATOM     15  C   UNL     1       4.667  -0.942  -0.055  0.00  0.00    +0.000 A 
ATOM     16  C   UNL     1       3.613  -1.824  -0.150  0.00  0.00    +0.000 A 
ATOM     17  C   UNL     1       2.292  -1.365  -0.100  0.00  0.00    +0.000 A 
ATOM     18  C   UNL     1       2.017  -0.017   0.046  0.00  0.00    +0.000 A 
ATOM     19  C   UNL     1       3.100   0.830   0.137  0.00  0.00    +0.000 A 
ATOM     20  C   UNL     1       4.394   0.400   0.090  0.00  0.00    +0.000 A 
ENDBRANCH   1  18
TORSDOF 1
