REMARK  Name = 
REMARK  3 active torsions:
REMARK  status: ('A' for Active; 'I' for Inactive)
REMARK    1  A    between atoms: C_2  and  C_4
REMARK    2  A    between atoms: C_4  and  C_5
REMARK    3  A    between atoms: C_5  and  N_6
REMARK                            x       y       z     vdW  Elec       q    Type
REMARK                         _______ _______ _______ _____ _____    ______ ____
ROOT
ATOM      1  N   UNL     1       1.943  -0.569  -0.678  0.00  0.00    +0.000 N 
ATOM      2  C   UNL     1       1.580   0.704  -0.858  0.00  0.00    +0.000 A 
ATOM      3  N   UNL     1       0.315   1.142  -0.605  0.00  0.00    +0.000 NA
ATOM      4  C   UNL     1      -0.604   0.296  -0.165  0.00  0.00    +0.000 A 
ATOM      5  C   UNL     1      -0.260  -1.023   0.029  0.00  0.00    +0.000 A 
ATOM      6  N   UNL     1      -1.373  -1.665   0.477  0.00  0.00    +0.000 NA
ATOM      7  C   UNL     1      -2.395  -0.807   0.571  0.00  0.00    +0.000 A 
ATOM      8  C   UNL     1      -3.725  -0.905   0.960  0.00  0.00    +0.000 A 
ATOM      9  C   UNL     1      -4.541   0.207   0.941  0.00  0.00    +0.000 A 
ATOM     10  C   UNL     1      -4.083   1.446   0.542  0.00  0.00    +0.000 A 
ATOM     11 CL   UNL     1      -5.150   2.850   0.528  0.00  0.00    +0.000 Cl
ATOM     12  C   UNL     1      -2.758   1.544   0.155  0.00  0.00    +0.000 A 
ATOM     13  C   UNL     1      -1.938   0.431   0.173  0.00  0.00    +0.000 A 
ATOM     14  C   UNL     1       1.037  -1.454  -0.234  0.00  0.00    +0.000 A 
ATOM     15  O   UNL     1       1.310  -2.679  -0.040  0.00  0.00    +0.000 OA
ENDROOT
BRANCH   1  16
ATOM     16  C   UNL     1       3.277  -1.012  -0.965  0.00  0.00    +0.000 C 
BRANCH  16  17
ATOM     17  C   UNL     1       4.249  -0.986   0.142  0.00  0.00    +0.000 C 
BRANCH  17  19
ATOM     18  C   UNL     1       3.293   0.883   1.401  0.00  0.00    +0.000 C 
ATOM     19  C   UNL     1       4.547   0.304   0.794  0.00  0.00    +0.000 C 
ATOM     20  C   UNL     1       5.278   1.292  -0.060  0.00  0.00    +0.000 C 
ENDBRANCH  17  19
ENDBRANCH  16  17
ENDBRANCH   1  16
TORSDOF 3
