REMARK  Name = 
REMARK  2 active torsions:
REMARK  status: ('A' for Active; 'I' for Inactive)
REMARK    1  A    between atoms: C_2  and  C_15
REMARK    2  A    between atoms: N_3  and  N_4
REMARK                            x       y       z     vdW  Elec       q    Type
REMARK                         _______ _______ _______ _____ _____    ______ ____
ROOT
ATOM      1  N   UNL     1      -0.406  -1.491   0.697  0.00  0.00    +0.000 NA
ATOM      2  C   UNL     1      -1.442  -0.782   0.529  0.00  0.00    +0.000 C 
ATOM      3  C   UNL     1      -2.775  -1.436   0.616  0.00  0.00    +0.000 C 
ATOM      4  C   UNL     1      -3.482  -1.123  -0.707  0.00  0.00    +0.000 C 
ATOM      5  C   UNL     1      -3.475   0.360  -0.987  0.00  0.00    +0.000 C 
ATOM      6  C   UNL     1      -4.213   1.080   0.113  0.00  0.00    +0.000 C 
ATOM      7  C   UNL     1      -3.521   0.767   1.434  0.00  0.00    +0.000 C 
ATOM      8  C   UNL     1      -3.526  -0.702   1.733  0.00  0.00    +0.000 C 
ATOM      9  C   UNL     1      -2.129   1.359   1.392  0.00  0.00    +0.000 C 
ATOM     10  C   UNL     1      -1.395   0.668   0.249  0.00  0.00    +0.000 C 
ATOM     11  C   UNL     1      -2.081   0.931  -1.075  0.00  0.00    +0.000 C 
ENDROOT
BRANCH   1  14
ATOM     12  O   UNL     1       0.851  -0.403  -1.542  0.00  0.00    +0.000 OA
ATOM     13  C   UNL     1       1.531  -0.498  -0.495  0.00  0.00    +0.000 C 
ATOM     14  N   UNL     1       0.903  -1.049   0.649  0.00  0.00    +0.000 NA
BRANCH  13  15
ATOM     15  C   UNL     1       2.906  -0.041  -0.521  0.00  0.00    +0.000 A 
ATOM     16  C   UNL     1       3.691  -0.124   0.602  0.00  0.00    +0.000 A 
ATOM     17  C   UNL     1       4.987   0.309   0.571  0.00  0.00    +0.000 A 
ATOM     18  C   UNL     1       5.501   0.825  -0.580  0.00  0.00    +0.000 A 
ATOM     19  C   UNL     1       4.672   0.887  -1.679  0.00  0.00    +0.000 A 
ATOM     20  N   UNL     1       3.404   0.463  -1.649  0.00  0.00    +0.000 NA
ENDBRANCH  13  15
ENDBRANCH   1  14
TORSDOF 2
