REMARK  Name = 
REMARK  2 active torsions:
REMARK  status: ('A' for Active; 'I' for Inactive)
REMARK    1  A    between atoms: C_6  and  C_7
REMARK    2  A    between atoms: C_7  and  C_8
REMARK                            x       y       z     vdW  Elec       q    Type
REMARK                         _______ _______ _______ _____ _____    ______ ____
ROOT
ATOM      1  C   UNL     1      -1.365  -0.938  -0.479  0.00  0.00    +0.000 C 
ATOM      2  C   UNL     1      -1.096  -1.982  -1.726  0.00  0.00    +0.000 C 
ATOM      3  C   UNL     1       0.045  -2.819  -1.304  0.00  0.00    +0.000 C 
ATOM      4  C   UNL     1       1.168  -2.037  -0.666  0.00  0.00    +0.000 A 
ATOM      5  S   UNL     1       2.716  -2.491  -0.095  0.00  0.00    +0.000 S 
ATOM      6  C   UNL     1       3.289  -0.973   0.425  0.00  0.00    +0.000 A 
ATOM      7  C   UNL     1       4.483  -0.504   1.009  0.00  0.00    +0.000 A 
ATOM      8  C   UNL     1       4.664   0.823   1.322  0.00  0.00    +0.000 A 
ATOM      9  C   UNL     1       3.598   1.644   1.022  0.00  0.00    +0.000 A 
ATOM     10  C   UNL     1       2.447   1.214   0.463  0.00  0.00    +0.000 A 
ATOM     11  C   UNL     1       2.251  -0.142   0.139  0.00  0.00    +0.000 A 
ATOM     12  C   UNL     1       1.131  -0.693  -0.435  0.00  0.00    +0.000 A 
ATOM     13  C   UNL     1      -0.146  -0.033  -0.857  0.00  0.00    +0.000 C 
ATOM     14  O   UNL     1      -0.188   1.033  -1.402  0.00  0.00    +0.000 OA
ENDROOT
BRANCH   1  15
ATOM     15  C   UNL     1      -2.519  -0.110  -1.264  0.00  0.00    +0.000 C 
BRANCH  15  21
ATOM     16  C   UNL     1      -4.288  -0.587   1.222  0.00  0.00    +0.000 C 
ATOM     17  C   UNL     1      -3.703   0.750   0.853  0.00  0.00    +0.000 A 
ATOM     18  N   UNL     1      -3.838   1.920   1.509  0.00  0.00    +0.000 NA
ATOM     19  C   UNL     1      -3.146   2.813   0.808  0.00  0.00    +0.000 A 
ATOM     20  N   UNL     1      -2.590   2.188  -0.273  0.00  0.00    +0.000 NA
ATOM     21  C   UNL     1      -2.914   0.925  -0.270  0.00  0.00    +0.000 A 
ENDBRANCH  15  21
ENDBRANCH   1  15
TORSDOF 2
