REMARK  Name = 
REMARK  3 active torsions:
REMARK  status: ('A' for Active; 'I' for Inactive)
REMARK    1  A    between atoms: N_5  and  C_6
REMARK    2  A    between atoms: C_6  and  C_7
REMARK    3  A    between atoms: C_10  and  N_11
REMARK                            x       y       z     vdW  Elec       q    Type
REMARK                         _______ _______ _______ _____ _____    ______ ____
ROOT
ATOM      1  C   UNL     1      -2.817  -1.647   2.028  0.00  0.00    +0.000 C 
ATOM      2  C   UNL     1      -2.256  -0.253   1.792  0.00  0.00    +0.000 C 
ATOM      3  C   UNL     1      -2.471   0.603   3.021  0.00  0.00    +0.000 C 
ATOM      4  C   UNL     1      -0.798  -0.404   1.449  0.00  0.00    +0.000 C 
ATOM      5  N   UNL     1      -0.882  -0.696   0.011  0.00  0.00    +0.000 N 
ATOM      6  C   UNL     1      -2.002   0.076  -0.469  0.00  0.00    +0.000 A 
ATOM      7  C   UNL     1      -2.353   0.550  -1.715  0.00  0.00    +0.000 A 
ATOM      8  C   UNL     1      -3.498   1.288  -1.921  0.00  0.00    +0.000 A 
ATOM      9  C   UNL     1      -4.347   1.584  -0.877  0.00  0.00    +0.000 A 
ATOM     10  O   UNL     1      -5.516   2.332  -1.060  0.00  0.00    +0.000 OA
ATOM     11  C   UNL     1      -4.007   1.116   0.371  0.00  0.00    +0.000 A 
ATOM     12  C   UNL     1      -2.841   0.365   0.579  0.00  0.00    +0.000 A 
ENDROOT
BRANCH   5  13
ATOM     13  C   UNL     1      -0.034  -1.567  -0.770  0.00  0.00    +0.000 C 
BRANCH  13  14
ATOM     14  C   UNL     1       1.374  -1.105  -0.711  0.00  0.00    +0.000 A 
ATOM     15  C   UNL     1       1.748   0.009   0.010  0.00  0.00    +0.000 A 
ATOM     16  C   UNL     1       3.076   0.437   0.060  0.00  0.00    +0.000 A 
ATOM     17  C   UNL     1       4.054  -0.255  -0.619  0.00  0.00    +0.000 A 
ATOM     18  C   UNL     1       3.652  -1.365  -1.332  0.00  0.00    +0.000 A 
ATOM     19  C   UNL     1       2.346  -1.800  -1.392  0.00  0.00    +0.000 A 
BRANCH  17  20
ATOM     20  N   UNL     1       5.415   0.151  -0.592  0.00  0.00    +0.000 N 
ATOM     21  O   UNL     1       5.800   1.148   0.044  0.00  0.00    +0.000 OA
ATOM     22  O   UNL     1       6.357  -0.566  -1.282  0.00  0.00    +0.000 OA
ENDBRANCH  17  20
ENDBRANCH  13  14
ENDBRANCH   5  13
TORSDOF 3
