REMARK  Name = 
REMARK  3 active torsions:
REMARK  status: ('A' for Active; 'I' for Inactive)
REMARK    1  A    between atoms: C_6  and  C_7
REMARK    2  A    between atoms: C_12  and  N_13
REMARK    3  A    between atoms: N_13  and  C_14
REMARK                            x       y       z     vdW  Elec       q    Type
REMARK                         _______ _______ _______ _____ _____    ______ ____
ROOT
ATOM      1  C   UNL     1      -2.865  -3.264  -0.738  0.00  0.00    +0.000 A 
ATOM      2  C   UNL     1      -3.980  -2.499  -0.498  0.00  0.00    +0.000 A 
ATOM      3  N   UNL     1      -3.824  -1.208  -0.225  0.00  0.00    +0.000 NA
ATOM      4  C   UNL     1      -2.616  -0.591  -0.168  0.00  0.00    +0.000 A 
ATOM      5  N   UNL     1      -2.245   0.664   0.083  0.00  0.00    +0.000 NA
ATOM      6  C   UNL     1      -0.879   0.687  -0.000  0.00  0.00    +0.000 A 
ATOM      7  C   UNL     1      -0.417  -0.549  -0.300  0.00  0.00    +0.000 A 
ATOM      8  N   UNL     1      -1.521  -1.322  -0.399  0.00  0.00    +0.000 N 
ATOM      9  C   UNL     1      -1.643  -2.626  -0.677  0.00  0.00    +0.000 A 
ENDROOT
BRANCH   6  10
ATOM     10  C   UNL     1      -0.039   1.905   0.203  0.00  0.00    +0.000 A 
ATOM     11  C   UNL     1      -0.216   2.735   1.250  0.00  0.00    +0.000 A 
ATOM     12  C   UNL     1       0.581   3.828   1.345  0.00  0.00    +0.000 A 
ATOM     13  S   UNL     1       1.582   3.705  -0.025  0.00  0.00    +0.000 S 
ATOM     14  C   UNL     1       0.957   2.266  -0.677  0.00  0.00    +0.000 A 
ENDBRANCH   6  10
BRANCH   7  15
ATOM     15  N   UNL     1       0.889  -1.005  -0.456  0.00  0.00    +0.000 NA
BRANCH  15  16
ATOM     16  C   UNL     1       2.126  -0.344  -0.305  0.00  0.00    +0.000 C 
ATOM     17  C   UNL     1       3.216  -1.353  -0.733  0.00  0.00    +0.000 C 
ATOM     18  C   UNL     1       4.408  -1.040   0.121  0.00  0.00    +0.000 C 
ATOM     19  C   UNL     1       3.995   0.085   1.052  0.00  0.00    +0.000 C 
ATOM     20  C   UNL     1       2.490  -0.072   1.147  0.00  0.00    +0.000 C 
ENDBRANCH  15  16
ENDBRANCH   7  15
TORSDOF 3
