REMARK  Name = 
REMARK  2 active torsions:
REMARK  status: ('A' for Active; 'I' for Inactive)
REMARK    1  A    between atoms: C_5  and  N_6
REMARK    2  A    between atoms: C_8  and  N_9
REMARK                            x       y       z     vdW  Elec       q    Type
REMARK                         _______ _______ _______ _____ _____    ______ ____
ROOT
ATOM      1  N   UNL     1       0.127   0.856  -0.765  0.00  0.00    +0.000 NA
ATOM      2  C   UNL     1      -0.877   0.369  -0.177  0.00  0.00    +0.000 C 
ATOM      3  C   UNL     1      -0.883  -0.730   0.782  0.00  0.00    +0.000 C 
ATOM      4  C   UNL     1      -2.156  -0.943   1.178  0.00  0.00    +0.000 C 
ATOM      5  O   UNL     1      -2.574  -1.899   2.080  0.00  0.00    +0.000 OA
ATOM      6  C   UNL     1      -3.051  -0.010   0.512  0.00  0.00    +0.000 A 
ATOM      7  C   UNL     1      -4.413   0.215   0.540  0.00  0.00    +0.000 A 
ATOM      8  C   UNL     1      -4.980   1.208  -0.233  0.00  0.00    +0.000 A 
ATOM      9  C   UNL     1      -4.230   2.011  -1.056  0.00  0.00    +0.000 A 
ATOM     10  C   UNL     1      -2.863   1.792  -1.090  0.00  0.00    +0.000 A 
ATOM     11  C   UNL     1      -2.298   0.795  -0.314  0.00  0.00    +0.000 A 
ENDROOT
BRANCH   1  16
ATOM     12  C   UNL     1       5.503  -0.647   0.120  0.00  0.00    +0.000 C 
ATOM     13  C   UNL     1       4.071  -0.309  -0.141  0.00  0.00    +0.000 A 
ATOM     14  C   UNL     1       3.223  -1.148  -0.817  0.00  0.00    +0.000 A 
ATOM     15  C   UNL     1       1.910  -0.805  -1.040  0.00  0.00    +0.000 A 
ATOM     16  C   UNL     1       1.441   0.397  -0.579  0.00  0.00    +0.000 A 
ATOM     17  C   UNL     1       2.315   1.222   0.098  0.00  0.00    +0.000 A 
ATOM     18  C   UNL     1       3.632   0.912   0.338  0.00  0.00    +0.000 A 
ATOM     19  C   UNL     1       4.542   1.842   1.077  0.00  0.00    +0.000 C 
ENDBRANCH   1  16
BRANCH   3  20
ATOM     20  N   UNL     1       0.188  -1.499   1.274  0.00  0.00    +0.000 N 
ATOM     21  O   UNL     1       0.276  -2.684   0.952  0.00  0.00    +0.000 OA
ATOM     22  O   UNL     1       1.098  -0.942   2.103  0.00  0.00    +0.000 OA
ENDBRANCH   3  20
TORSDOF 2
