REMARK  Name = 
REMARK  3 active torsions:
REMARK  status: ('A' for Active; 'I' for Inactive)
REMARK    1  A    between atoms: C_5  and  N_6
REMARK    2  A    between atoms: C_10  and  N_11
REMARK    3  A    between atoms: C_12  and  C_14
REMARK                            x       y       z     vdW  Elec       q    Type
REMARK                         _______ _______ _______ _____ _____    ______ ____
ROOT
ATOM      1  C   UNL     1       1.781  -1.497  -2.883  0.00  0.00    +0.000 C 
ATOM      2  C   UNL     1       2.154  -0.726  -1.696  0.00  0.00    +0.000 A 
ATOM      3  C   UNL     1       3.494  -0.383  -1.536  0.00  0.00    +0.000 A 
ATOM      4  C   UNL     1       3.881   0.339  -0.438  0.00  0.00    +0.000 A 
ATOM      5  C   UNL     1       2.948   0.722   0.502  0.00  0.00    +0.000 A 
ATOM      6  C   UNL     1       1.605   0.364   0.317  0.00  0.00    +0.000 A 
ATOM      7  C   UNL     1       1.199  -0.360  -0.779  0.00  0.00    +0.000 A 
ENDROOT
BRANCH   5   8
ATOM      8  N   UNL     1       3.358   1.466   1.632  0.00  0.00    +0.000 N 
ATOM      9  O   UNL     1       2.570   1.843   2.515  0.00  0.00    +0.000 OA
ATOM     10  O   UNL     1       4.675   1.797   1.778  0.00  0.00    +0.000 OA
ENDBRANCH   5   8
BRANCH   7  11
ATOM     11  N   UNL     1      -0.176  -0.689  -0.903  0.00  0.00    +0.000 NA
ATOM     12  C   UNL     1      -1.164  -0.323   0.024  0.00  0.00    +0.000 C 
ATOM     13  O   UNL     1      -0.805   0.338   1.029  0.00  0.00    +0.000 OA
BRANCH  12  14
ATOM     14  C   UNL     1      -2.563  -0.737  -0.237  0.00  0.00    +0.000 C 
ATOM     15  C   UNL     1      -3.649  -0.366   0.731  0.00  0.00    +0.000 C 
ATOM     16  C   UNL     1      -4.620  -1.492   1.023  0.00  0.00    +0.000 C 
ATOM     17  C   UNL     1      -3.201   0.468   1.913  0.00  0.00    +0.000 C 
ATOM     18  C   UNL     1      -3.599   0.235  -0.630  0.00  0.00    +0.000 C 
ATOM     19  C   UNL     1      -3.312   1.719  -0.659  0.00  0.00    +0.000 C 
ATOM     20  C   UNL     1      -4.575  -0.206  -1.702  0.00  0.00    +0.000 C 
ENDBRANCH  12  14
ENDBRANCH   7  11
TORSDOF 3
