REMARK  Name = 
REMARK  4 active torsions:
REMARK  status: ('A' for Active; 'I' for Inactive)
REMARK    1  A    between atoms: O_2  and  C_3
REMARK    2  A    between atoms: C_9  and  N_10
REMARK    3  A    between atoms: C_11  and  S_13
REMARK    4  A    between atoms: S_13  and  C_14
REMARK                            x       y       z     vdW  Elec       q    Type
REMARK                         _______ _______ _______ _____ _____    ______ ____
ROOT
ATOM      1  N   UNL     1      -0.474   0.500   0.222  0.00  0.00    +0.000 NA
ATOM      2  C   UNL     1       0.029   1.653   0.841  0.00  0.00    +0.000 C 
ATOM      3  O   UNL     1      -0.803   2.517   1.220  0.00  0.00    +0.000 OA
ENDROOT
BRANCH   1  10
ATOM      4  C   UNL     1      -2.334  -0.876  -0.604  0.00  0.00    +0.000 A 
ATOM      5  C   UNL     1      -3.690  -1.012  -0.767  0.00  0.00    +0.000 A 
ATOM      6  C   UNL     1      -4.588  -0.044  -0.339  0.00  0.00    +0.000 A 
ATOM      7  C   UNL     1      -4.097   1.079   0.264  0.00  0.00    +0.000 A 
ATOM      8  C   UNL     1      -5.017   2.164   0.750  0.00  0.00    +0.000 C 
ATOM      9  C   UNL     1      -2.743   1.237   0.438  0.00  0.00    +0.000 A 
ATOM     10  C   UNL     1      -1.854   0.252   0.000  0.00  0.00    +0.000 A 
BRANCH   4  12
ATOM     11  C   UNL     1      -1.827  -3.041  -1.666  0.00  0.00    +0.000 C 
ATOM     12  O   UNL     1      -1.437  -1.830  -1.026  0.00  0.00    +0.000 OA
ENDBRANCH   4  12
ENDBRANCH   1  10
BRANCH   2  13
ATOM     13  S   UNL     1       1.748   1.992   1.131  0.00  0.00    +0.000 S 
BRANCH  13  14
ATOM     14  C   UNL     1       2.801   0.677   0.538  0.00  0.00    +0.000 A 
ATOM     15  C   UNL     1       3.302   0.673  -0.753  0.00  0.00    +0.000 A 
ATOM     16  C   UNL     1       4.117  -0.336  -1.225  0.00  0.00    +0.000 A 
ATOM     17  C   UNL     1       4.464  -1.384  -0.427  0.00  0.00    +0.000 A 
ATOM     18  O   UNL     1       5.272  -2.430  -0.821  0.00  0.00    +0.000 OA
ATOM     19  C   UNL     1       3.972  -1.407   0.883  0.00  0.00    +0.000 A 
ATOM     20  C   UNL     1       3.158  -0.388   1.340  0.00  0.00    +0.000 A 
ENDBRANCH  13  14
ENDBRANCH   2  13
TORSDOF 4
