REMARK  Name = 
REMARK  4 active torsions:
REMARK  status: ('A' for Active; 'I' for Inactive)
REMARK    1  A    between atoms: C_2  and  C_3
REMARK    2  A    between atoms: C_2  and  C_12
REMARK    3  A    between atoms: C_3  and  C_5
REMARK    4  A    between atoms: C_5  and  C_6
REMARK                            x       y       z     vdW  Elec       q    Type
REMARK                         _______ _______ _______ _____ _____    ______ ____
ROOT
ATOM      1  C   UNL     1      -0.096  -0.084  -2.534  0.00  0.00    +0.000 C 
ATOM      2  C   UNL     1      -0.711  -1.281  -1.644  0.00  0.00    +0.000 C 
ENDROOT
BRANCH   2   3
ATOM      3  C   UNL     1      -1.614  -0.402  -0.730  0.00  0.00    +0.000 A 
ATOM      4  C   UNL     1      -1.942   0.891  -1.075  0.00  0.00    +0.000 A 
ATOM      5  C   UNL     1      -2.777   1.651  -0.260  0.00  0.00    +0.000 A 
ATOM      6  C   UNL     1      -3.305   1.162   0.904  0.00  0.00    +0.000 A 
ATOM      7  N   UNL     1      -4.164   1.919   1.766  0.00  0.00    +0.000 NA
ATOM      8  C   UNL     1      -2.973  -0.150   1.255  0.00  0.00    +0.000 A 
ATOM      9  C   UNL     1      -2.132  -0.908   0.429  0.00  0.00    +0.000 A 
ATOM     10 CL   UNL     1      -1.669  -2.534   0.807  0.00  0.00    +0.000 Cl
ENDBRANCH   2   3
BRANCH   2  11
ATOM     11  C   UNL     1       0.485  -1.558  -0.661  0.00  0.00    +0.000 C 
ATOM     12  O   UNL     1       0.885  -2.673  -0.421  0.00  0.00    +0.000 OA
BRANCH  11  13
ATOM     13  C   UNL     1       1.109  -0.533  -0.043  0.00  0.00    +0.000 C 
BRANCH  13  14
ATOM     14  C   UNL     1       1.814   0.433   0.407  0.00  0.00    +0.000 C 
ATOM     15  C   UNL     1       2.183   1.770  -0.096  0.00  0.00    +0.000 C 
ATOM     16  C   UNL     1       3.613   1.788  -0.531  0.00  0.00    +0.000 C 
ATOM     17  C   UNL     1       4.387   0.543  -0.261  0.00  0.00    +0.000 C 
ATOM     18  C   UNL     1       4.170  -0.026   1.119  0.00  0.00    +0.000 C 
ATOM     19  C   UNL     1       2.737  -0.009   1.569  0.00  0.00    +0.000 C 
ENDBRANCH  13  14
ENDBRANCH  11  13
ENDBRANCH   2  11
TORSDOF 4
