REMARK  Name = 
REMARK  2 active torsions:
REMARK  status: ('A' for Active; 'I' for Inactive)
REMARK    1  A    between atoms: N_4  and  N_5
REMARK    2  A    between atoms: N_5  and  C_6
REMARK                            x       y       z     vdW  Elec       q    Type
REMARK                         _______ _______ _______ _____ _____    ______ ____
ROOT
ATOM      1  C   UNL     1       1.512  -1.097   2.326  0.00  0.00    +0.000 C 
ATOM      2  N   UNL     1       1.609  -0.371   1.025  0.00  0.00    +0.000 N 
ATOM      3  C   UNL     1       0.552   0.310   0.607  0.00  0.00    +0.000 A 
ATOM      4  N   UNL     1      -0.621   0.456   1.179  0.00  0.00    +0.000 NA
ATOM      5  S   UNL     1       1.068   0.969  -0.872  0.00  0.00    +0.000 S 
ATOM      6  C   UNL     1       2.654   0.330  -0.896  0.00  0.00    +0.000 A 
ATOM      7  C   UNL     1       3.736   0.408  -1.785  0.00  0.00    +0.000 A 
ATOM      8  C   UNL     1       4.939  -0.251  -1.507  0.00  0.00    +0.000 A 
ATOM      9  C   UNL     1       4.955  -0.949  -0.334  0.00  0.00    +0.000 A 
ATOM     10  C   UNL     1       3.921  -1.045   0.552  0.00  0.00    +0.000 A 
ATOM     11  C   UNL     1       2.696  -0.377   0.274  0.00  0.00    +0.000 A 
ENDROOT
BRANCH   4  12
ATOM     12  N   UNL     1      -1.528   1.247   0.471  0.00  0.00    +0.000 NA
BRANCH  12  13
ATOM     13  C   UNL     1      -2.615   0.744  -0.260  0.00  0.00    +0.000 C 
ATOM     14  C   UNL     1      -3.165   1.523  -1.206  0.00  0.00    +0.000 C 
ATOM     15  C   UNL     1      -4.323   0.892  -1.932  0.00  0.00    +0.000 C 
ATOM     16  C   UNL     1      -5.255   0.217  -0.946  0.00  0.00    +0.000 C 
ATOM     17  C   UNL     1      -4.576  -0.946  -0.278  0.00  0.00    +0.000 C 
ATOM     18  C   UNL     1      -3.170  -0.588  -0.033  0.00  0.00    +0.000 C 
ATOM     19  O   UNL     1      -2.390  -1.472   0.397  0.00  0.00    +0.000 OA
ENDBRANCH  12  13
ENDBRANCH   4  12
TORSDOF 2
