REMARK  Name = 
REMARK  1 active torsions:
REMARK  status: ('A' for Active; 'I' for Inactive)
REMARK    1  A    between atoms: C_4  and  C_5
REMARK                            x       y       z     vdW  Elec       q    Type
REMARK                         _______ _______ _______ _____ _____    ______ ____
ROOT
ATOM      1  O   UNL     1      -0.756   0.497   2.411  0.00  0.00    +0.000 OA
ATOM      2  C   UNL     1      -0.344   0.174   1.277  0.00  0.00    +0.000 C 
ATOM      3  N   UNL     1       1.043  -0.028   1.135  0.00  0.00    +0.000 NA
ATOM      4  C   UNL     1       1.406  -1.257   0.171  0.00  0.00    +0.000 C 
ATOM      5  N   UNL     1       0.786  -0.540  -1.118  0.00  0.00    +0.000 NA
ATOM      6  C   UNL     1      -0.618  -0.349  -1.026  0.00  0.00    +0.000 A 
ATOM      7  S   UNL     1      -1.913  -0.458  -2.164  0.00  0.00    +0.000 S 
ATOM      8  C   UNL     1      -3.208  -0.044  -1.111  0.00  0.00    +0.000 A 
ATOM      9  C   UNL     1      -2.583   0.160   0.073  0.00  0.00    +0.000 A 
ATOM     10  C   UNL     1      -1.233  -0.000   0.112  0.00  0.00    +0.000 A 
ATOM     11  C   UNL     1      -3.580   0.543   1.153  0.00  0.00    +0.000 C 
ATOM     12  C   UNL     1      -4.245   1.816   0.622  0.00  0.00    +0.000 C 
ATOM     13  C   UNL     1      -5.043   1.508  -0.619  0.00  0.00    +0.000 C 
ATOM     14  C   UNL     1      -4.702   0.127  -1.182  0.00  0.00    +0.000 C 
ENDROOT
BRANCH   4  15
ATOM     15  C   UNL     1       2.930  -0.742  -0.105  0.00  0.00    +0.000 A 
ATOM     16  C   UNL     1       3.133   0.549  -0.396  0.00  0.00    +0.000 A 
ATOM     17  C   UNL     1       4.429   0.964  -0.627  0.00  0.00    +0.000 A 
ATOM     18  C   UNL     1       5.431   0.024  -0.545  0.00  0.00    +0.000 A 
ATOM     19  N   UNL     1       5.165  -1.258  -0.248  0.00  0.00    +0.000 NA
ATOM     20  C   UNL     1       3.900  -1.687  -0.017  0.00  0.00    +0.000 A 
ENDBRANCH   4  15
TORSDOF 1
