REMARK  Name = 
REMARK  2 active torsions:
REMARK  status: ('A' for Active; 'I' for Inactive)
REMARK    1  A    between atoms: C_3  and  C_4
REMARK    2  A    between atoms: C_4  and  C_5
REMARK                            x       y       z     vdW  Elec       q    Type
REMARK                         _______ _______ _______ _____ _____    ______ ____
ROOT
ATOM      1  C   UNL     1       0.196  -0.983  -0.521  0.00  0.00    +0.000 A 
ATOM      2  C   UNL     1       1.168  -0.272  -1.207  0.00  0.00    +0.000 A 
ATOM      3  C   UNL     1       2.400   0.018  -0.686  0.00  0.00    +0.000 A 
ATOM      4  C   UNL     1       3.380   0.723  -1.349  0.00  0.00    +0.000 A 
ATOM      5  C   UNL     1       4.617   0.991  -0.776  0.00  0.00    +0.000 A 
ATOM      6  C   UNL     1       4.811   0.502   0.517  0.00  0.00    +0.000 A 
ATOM      7  O   UNL     1       5.895   0.688   1.130  0.00  0.00    +0.000 OA
ATOM      8  O   UNL     1       3.876  -0.167   1.141  0.00  0.00    +0.000 OA
ATOM      9  C   UNL     1       2.710  -0.416   0.592  0.00  0.00    +0.000 A 
ATOM     10  C   UNL     1       1.758  -1.119   1.276  0.00  0.00    +0.000 A 
ATOM     11  C   UNL     1       0.517  -1.408   0.747  0.00  0.00    +0.000 A 
ATOM     12  O   UNL     1      -0.405  -2.130   1.503  0.00  0.00    +0.000 OA
ENDROOT
BRANCH   1  13
ATOM     13  C   UNL     1      -1.110  -1.265  -1.131  0.00  0.00    +0.000 C 
BRANCH  13  16
ATOM     14  C   UNL     1      -3.299  -2.525   0.082  0.00  0.00    +0.000 C 
ATOM     15  C   UNL     1      -3.246  -1.043  -0.054  0.00  0.00    +0.000 C 
ATOM     16  C   UNL     1      -2.213  -0.427  -0.627  0.00  0.00    +0.000 C 
ATOM     17  C   UNL     1      -2.135   1.042  -0.775  0.00  0.00    +0.000 C 
ATOM     18  C   UNL     1      -3.307   1.780  -0.226  0.00  0.00    +0.000 C 
ATOM     19  C   UNL     1      -3.077   2.257   1.212  0.00  0.00    +0.000 C 
ATOM     20  C   UNL     1      -3.516   3.038  -1.063  0.00  0.00    +0.000 C 
ATOM     21  C   UNL     1      -4.599   1.002  -0.278  0.00  0.00    +0.000 C 
ATOM     22  C   UNL     1      -4.423  -0.287   0.493  0.00  0.00    +0.000 C 
ENDBRANCH  13  16
ENDBRANCH   1  13
TORSDOF 2
