REMARK  Name = 
REMARK  5 active torsions:
REMARK  status: ('A' for Active; 'I' for Inactive)
REMARK    1  A    between atoms: C_2  and  C_3
REMARK    2  A    between atoms: C_2  and  C_13
REMARK    3  A    between atoms: C_3  and  C_4
REMARK    4  A    between atoms: C_13  and  O_15
REMARK    5  A    between atoms: O_15  and  C_16
REMARK                            x       y       z     vdW  Elec       q    Type
REMARK                         _______ _______ _______ _____ _____    ______ ____
ROOT
ATOM      1  O   UNL     1      -0.239   1.713  -1.695  0.00  0.00    +0.000 OA
ATOM      2  C   UNL     1      -0.104   0.492  -1.443  0.00  0.00    +0.000 C 
ENDROOT
BRANCH   2   3
ATOM      3  C   UNL     1      -1.044  -0.245  -0.600  0.00  0.00    +0.000 C 
ATOM      4  O   UNL     1      -0.832  -1.456  -0.366  0.00  0.00    +0.000 OA
BRANCH   3   5
ATOM      5  O   UNL     1      -2.146   0.363  -0.062  0.00  0.00    +0.000 OA
BRANCH   5   6
ATOM      6  C   UNL     1      -3.056  -0.289   0.754  0.00  0.00    +0.000 C 
ATOM      7  C   UNL     1      -4.213   0.584   1.161  0.00  0.00    +0.000 C 
ATOM      8  C   UNL     1      -5.357   0.426   0.146  0.00  0.00    +0.000 C 
ATOM      9  C   UNL     1      -5.904  -0.981   0.203  0.00  0.00    +0.000 C 
ATOM     10  C   UNL     1      -4.901  -1.828   0.996  0.00  0.00    +0.000 C 
ATOM     11  C   UNL     1      -3.535  -1.623   0.315  0.00  0.00    +0.000 C 
ENDBRANCH   5   6
ENDBRANCH   3   5
ENDBRANCH   2   3
BRANCH   2  12
ATOM     12  C   UNL     1       1.092  -0.160  -2.066  0.00  0.00    +0.000 C 
BRANCH  12  13
ATOM     13  C   UNL     1       2.323   0.442  -1.492  0.00  0.00    +0.000 A 
ATOM     14  C   UNL     1       3.206   1.370  -1.984  0.00  0.00    +0.000 A 
ATOM     15  N   UNL     1       4.178   1.600  -1.052  0.00  0.00    +0.000 NA
ATOM     16  C   UNL     1       3.916   0.819   0.032  0.00  0.00    +0.000 A 
ATOM     17  C   UNL     1       4.531   0.628   1.242  0.00  0.00    +0.000 A 
ATOM     18  C   UNL     1       4.084  -0.234   2.220  0.00  0.00    +0.000 A 
ATOM     19  C   UNL     1       2.938  -0.944   1.939  0.00  0.00    +0.000 A 
ATOM     20  C   UNL     1       2.290  -0.777   0.724  0.00  0.00    +0.000 A 
ATOM     21  C   UNL     1       2.774   0.100  -0.228  0.00  0.00    +0.000 A 
ENDBRANCH  12  13
ENDBRANCH   2  12
TORSDOF 5
