REMARK  Name = 
REMARK  5 active torsions:
REMARK  status: ('A' for Active; 'I' for Inactive)
REMARK    1  A    between atoms: C_2  and  N_3
REMARK    2  A    between atoms: C_2  and  N_10
REMARK    3  A    between atoms: N_3  and  C_4
REMARK    4  A    between atoms: C_4  and  C_5
REMARK    5  A    between atoms: N_10  and  C_11
REMARK                            x       y       z     vdW  Elec       q    Type
REMARK                         _______ _______ _______ _____ _____    ______ ____
ROOT
ATOM      1  N   UNL     1      -0.351   0.412   0.197  0.00  0.00    +0.000 NA
ENDROOT
BRANCH   1   2
ATOM      2  C   UNL     1      -1.754   0.180   0.130  0.00  0.00    +0.000 C 
ATOM      3  C   UNL     1      -2.445   1.401   0.748  0.00  0.00    +0.000 C 
ATOM      4  C   UNL     1      -3.928   1.284   0.596  0.00  0.00    +0.000 C 
ATOM      5  C   UNL     1      -4.409   0.044   1.324  0.00  0.00    +0.000 C 
ATOM      6  C   UNL     1      -3.721  -1.143   0.690  0.00  0.00    +0.000 C 
ATOM      7  C   UNL     1      -4.132  -1.229  -0.761  0.00  0.00    +0.000 C 
ATOM      8  C   UNL     1      -3.636   0.013  -1.480  0.00  0.00    +0.000 C 
ATOM      9  C   UNL     1      -4.338   1.198  -0.851  0.00  0.00    +0.000 C 
ATOM     10  C   UNL     1      -2.141   0.105  -1.349  0.00  0.00    +0.000 C 
ATOM     11  C   UNL     1      -2.215  -1.070   0.818  0.00  0.00    +0.000 C 
ENDBRANCH   1   2
BRANCH   1  13
ATOM     12  S   UNL     1       0.303  -1.873  -0.939  0.00  0.00    +0.000 S 
ATOM     13  C   UNL     1       0.667  -0.438  -0.251  0.00  0.00    +0.000 C 
BRANCH  13  14
ATOM     14  N   UNL     1       2.016  -0.020  -0.091  0.00  0.00    +0.000 NA
BRANCH  14  15
ATOM     15  C   UNL     1       3.119  -0.843  -0.528  0.00  0.00    +0.000 C 
BRANCH  15  16
ATOM     16  C   UNL     1       4.396  -0.146  -0.230  0.00  0.00    +0.000 A 
ATOM     17  C   UNL     1       5.678  -0.602  -0.494  0.00  0.00    +0.000 A 
ATOM     18  C   UNL     1       6.574   0.352  -0.058  0.00  0.00    +0.000 A 
ATOM     19  C   UNL     1       5.777   1.367   0.463  0.00  0.00    +0.000 A 
ATOM     20  O   UNL     1       4.540   1.009   0.329  0.00  0.00    +0.000 OA
ENDBRANCH  15  16
ENDBRANCH  14  15
ENDBRANCH  13  14
ENDBRANCH   1  13
TORSDOF 5
