REMARK  Name = 
REMARK  5 active torsions:
REMARK  status: ('A' for Active; 'I' for Inactive)
REMARK    1  A    between atoms: C_2  and  C_3
REMARK    2  A    between atoms: C_3  and  C_5
REMARK    3  A    between atoms: C_3  and  O_7
REMARK    4  A    between atoms: O_7  and  C_8
REMARK    5  A    between atoms: C_11  and  C_13
REMARK                            x       y       z     vdW  Elec       q    Type
REMARK                         _______ _______ _______ _____ _____    ______ ____
ROOT
ATOM      1  C   UNL     1       1.028  -0.109  -0.593  0.00  0.00    +0.000 C 
ATOM      2  O   UNL     1       1.343   0.709  -1.497  0.00  0.00    +0.000 OA
ATOM      3  N   UNL     1      -0.275  -0.159  -0.014  0.00  0.00    +0.000 NA
ATOM      4  C   UNL     1      -1.250   0.759  -0.489  0.00  0.00    +0.000 C 
ATOM      5  O   UNL     1      -0.934   1.575  -1.392  0.00  0.00    +0.000 OA
ENDROOT
BRANCH   4   6
ATOM      6  C   UNL     1      -2.614   0.791   0.037  0.00  0.00    +0.000 A 
ATOM      7  C   UNL     1      -3.540   1.692  -0.442  0.00  0.00    +0.000 A 
ATOM      8  C   UNL     1      -4.832   1.731   0.047  0.00  0.00    +0.000 A 
ATOM      9  C   UNL     1      -5.251   0.868   1.038  0.00  0.00    +0.000 A 
ATOM     10  C   UNL     1      -4.330  -0.038   1.523  0.00  0.00    +0.000 A 
ATOM     11  C   UNL     1      -3.035  -0.072   1.027  0.00  0.00    +0.000 A 
ATOM     12  F   UNL     1      -2.162  -0.971   1.525  0.00  0.00    +0.000 F 
ENDBRANCH   4   6
BRANCH   1  13
ATOM     13  O   UNL     1       2.047  -0.979  -0.182  0.00  0.00    +0.000 OA
BRANCH  13  14
ATOM     14  C   UNL     1       3.335  -0.927  -0.756  0.00  0.00    +0.000 C 
ATOM     15  C   UNL     1       3.313  -1.238  -2.236  0.00  0.00    +0.000 C 
BRANCH  14  17
ATOM     16  C   UNL     1       4.814  -2.813   0.420  0.00  0.00    +0.000 C 
ATOM     17  C   UNL     1       4.151  -1.959  -0.109  0.00  0.00    +0.000 C 
ENDBRANCH  14  17
BRANCH  14  18
ATOM     18  C   UNL     1       4.015   0.393  -0.556  0.00  0.00    +0.000 C 
ATOM     19  C   UNL     1       4.177   0.747   0.901  0.00  0.00    +0.000 C 
ENDBRANCH  14  18
ENDBRANCH  13  14
ENDBRANCH   1  13
TORSDOF 5
