REMARK  Name = 
REMARK  4 active torsions:
REMARK  status: ('A' for Active; 'I' for Inactive)
REMARK    1  A    between atoms: C_2  and  C_4
REMARK    2  A    between atoms: C_7  and  C_8
REMARK    3  A    between atoms: N_9  and  C_10
REMARK    4  A    between atoms: C_13  and  C_14
REMARK                            x       y       z     vdW  Elec       q    Type
REMARK                         _______ _______ _______ _____ _____    ______ ____
ROOT
ATOM      1  C   UNL     1      -0.457  -0.023  -0.626  0.00  0.00    +0.000 C 
ATOM      2  N   UNL     1       0.382  -0.051   0.320  0.00  0.00    +0.000 NA
ENDROOT
BRANCH   1   6
ATOM      3  C   UNL     1      -4.606  -0.155   0.271  0.00  0.00    +0.000 A 
ATOM      4  C   UNL     1      -4.200  -0.082  -1.046  0.00  0.00    +0.000 A 
ATOM      5  C   UNL     1      -2.849  -0.039  -1.323  0.00  0.00    +0.000 A 
ATOM      6  C   UNL     1      -1.885  -0.067  -0.341  0.00  0.00    +0.000 A 
ATOM      7  C   UNL     1      -2.325  -0.141   0.964  0.00  0.00    +0.000 A 
ATOM      8  C   UNL     1      -3.676  -0.185   1.281  0.00  0.00    +0.000 A 
BRANCH   3  10
ATOM      9  C   UNL     1      -6.891   0.544  -0.374  0.00  0.00    +0.000 C 
ATOM     10  C   UNL     1      -6.059  -0.204   0.642  0.00  0.00    +0.000 C 
ATOM     11  C   UNL     1      -6.186   0.496   1.980  0.00  0.00    +0.000 C 
ENDBRANCH   3  10
ENDBRANCH   1   6
BRANCH   2  12
ATOM     12  C   UNL     1       1.786  -0.015   0.195  0.00  0.00    +0.000 A 
ATOM     13  C   UNL     1       2.560  -0.491   1.236  0.00  0.00    +0.000 A 
ATOM     14  C   UNL     1       3.946  -0.484   1.175  0.00  0.00    +0.000 A 
ATOM     15  C   UNL     1       4.607   0.001   0.068  0.00  0.00    +0.000 A 
ATOM     16  C   UNL     1       3.835   0.476  -0.972  0.00  0.00    +0.000 A 
ATOM     17  C   UNL     1       2.454   0.469  -0.912  0.00  0.00    +0.000 A 
BRANCH  15  18
ATOM     18  C   UNL     1       6.070   0.004   0.015  0.00  0.00    +0.000 C 
ATOM     19  N   UNL     1       6.793  -0.494   1.107  0.00  0.00    +0.000 NA
ATOM     20  O   UNL     1       6.701   0.439  -0.978  0.00  0.00    +0.000 OA
ENDBRANCH  15  18
ENDBRANCH   2  12
TORSDOF 4
