REMARK  Name = 
REMARK  0 active torsions:
REMARK  status: ('A' for Active; 'I' for Inactive)
REMARK                            x       y       z     vdW  Elec       q    Type
REMARK                         _______ _______ _______ _____ _____    ______ ____
ROOT
ATOM      1  C   UNL     1      -0.733   3.958   0.373  0.00  0.00    +0.000 C 
ATOM      2  C   UNL     1      -0.212   2.575   0.194  0.00  0.00    +0.000 A 
ATOM      3  N   UNL     1       1.112   2.344   0.178  0.00  0.00    +0.000 NA
ATOM      4  C   UNL     1       1.636   1.112   0.021  0.00  0.00    +0.000 A 
ATOM      5  C   UNL     1       0.715   0.087  -0.122  0.00  0.00    +0.000 A 
ATOM      6  C   UNL     1      -0.639   0.227  -0.122  0.00  0.00    +0.000 A 
ATOM      7  C   UNL     1      -1.099   1.524   0.044  0.00  0.00    +0.000 A 
ATOM      8  N   UNL     1      -2.449   1.442  -0.010  0.00  0.00    +0.000 NA
ATOM      9  C   UNL     1      -2.827   0.175  -0.202  0.00  0.00    +0.000 A 
ATOM     10  C   UNL     1      -4.040  -0.457  -0.346  0.00  0.00    +0.000 A 
ATOM     11  C   UNL     1      -4.190  -1.809  -0.559  0.00  0.00    +0.000 A 
ATOM     12  C   UNL     1      -3.032  -2.554  -0.628  0.00  0.00    +0.000 A 
ATOM     13  C   UNL     1      -1.825  -1.989  -0.493  0.00  0.00    +0.000 A 
ATOM     14  C   UNL     1      -1.689  -0.642  -0.281  0.00  0.00    +0.000 A 
ATOM     15  C   UNL     1       1.379  -1.373  -0.249  0.00  0.00    +0.000 C 
ATOM     16  O   UNL     1       0.357  -2.213   0.507  0.00  0.00    +0.000 OA
ATOM     17  C   UNL     1       2.349  -1.165   1.133  0.00  0.00    +0.000 C 
ATOM     18  C   UNL     1       3.502  -0.502   0.367  0.00  0.00    +0.000 C 
ATOM     19  C   UNL     1       3.829  -1.237  -0.914  0.00  0.00    +0.000 C 
ATOM     20  C   UNL     1       4.759  -0.394   1.157  0.00  0.00    +0.000 C 
ATOM     21  C   UNL     1       3.098   0.893  -0.049  0.00  0.00    +0.000 C 
ENDROOT
TORSDOF 0
