REMARK  Name = 
REMARK  4 active torsions:
REMARK  status: ('A' for Active; 'I' for Inactive)
REMARK    1  A    between atoms: O_2  and  C_3
REMARK    2  A    between atoms: C_6  and  C_7
REMARK    3  A    between atoms: C_7  and  N_8
REMARK    4  A    between atoms: C_11  and  C_12
REMARK                            x       y       z     vdW  Elec       q    Type
REMARK                         _______ _______ _______ _____ _____    ______ ____
ROOT
ATOM      1  N   UNL     1      -0.875  -0.495   0.614  0.00  0.00    +0.000 N 
ATOM      2  C   UNL     1      -1.144   0.651   1.309  0.00  0.00    +0.000 A 
ATOM      3  N   UNL     1      -0.529   1.021   2.518  0.00  0.00    +0.000 NA
ATOM      4  C   UNL     1      -2.102   1.371   0.636  0.00  0.00    +0.000 A 
ATOM      5  C   UNL     1      -2.404   0.629  -0.483  0.00  0.00    +0.000 A 
ATOM      6  C   UNL     1      -1.630  -0.534  -0.485  0.00  0.00    +0.000 A 
ATOM      7  C   UNL     1      -1.804  -1.466  -1.600  0.00  0.00    +0.000 C 
ATOM      8  C   UNL     1      -3.221  -1.657  -2.026  0.00  0.00    +0.000 C 
ATOM      9  C   UNL     1      -4.091  -0.458  -1.817  0.00  0.00    +0.000 C 
ATOM     10  C   UNL     1      -3.332   0.819  -1.611  0.00  0.00    +0.000 C 
ENDROOT
BRANCH   4  11
ATOM     11  C   UNL     1      -2.688   2.623   0.984  0.00  0.00    +0.000 C 
ATOM     12  N   UNL     1      -3.156   3.660   1.261  0.00  0.00    +0.000 NA
ENDBRANCH   4  11
BRANCH   1  13
ATOM     13  C   UNL     1       0.075  -1.524   0.986  0.00  0.00    +0.000 C 
BRANCH  13  17
ATOM     14  C   UNL     1       3.856  -0.489  -0.716  0.00  0.00    +0.000 A 
ATOM     15  C   UNL     1       3.528  -0.046   0.525  0.00  0.00    +0.000 A 
ATOM     16  C   UNL     1       2.305  -0.389   1.059  0.00  0.00    +0.000 A 
ATOM     17  C   UNL     1       1.389  -1.171   0.381  0.00  0.00    +0.000 A 
ATOM     18  C   UNL     1       1.726  -1.614  -0.870  0.00  0.00    +0.000 A 
ATOM     19  C   UNL     1       2.952  -1.274  -1.412  0.00  0.00    +0.000 A 
BRANCH  14  21
ATOM     20  C   UNL     1       6.088   0.559  -0.824  0.00  0.00    +0.000 C 
ATOM     21  O   UNL     1       5.056  -0.214  -1.366  0.00  0.00    +0.000 OA
ENDBRANCH  14  21
ENDBRANCH  13  17
ENDBRANCH   1  13
TORSDOF 4
