REMARK  Name = 
REMARK  4 active torsions:
REMARK  status: ('A' for Active; 'I' for Inactive)
REMARK    1  A    between atoms: C_2  and  O_3
REMARK    2  A    between atoms: O_3  and  C_4
REMARK    3  A    between atoms: C_4  and  C_6
REMARK    4  A    between atoms: C_17  and  C_18
REMARK                            x       y       z     vdW  Elec       q    Type
REMARK                         _______ _______ _______ _____ _____    ______ ____
ROOT
ATOM      1  C   UNL     1       0.942   0.001  -0.716  0.00  0.00    +0.000 C 
ATOM      2  C   UNL     1       0.259   0.191  -1.774  0.00  0.00    +0.000 C 
ATOM      3  N   UNL     1       0.874  -0.009  -3.050  0.00  0.00    +0.000 NA
ATOM      4  O   UNL     1      -1.066   0.592  -1.800  0.00  0.00    +0.000 OA
ATOM      5  C   UNL     1      -1.705   0.807  -0.621  0.00  0.00    +0.000 A 
ATOM      6  C   UNL     1      -3.052   1.222  -0.697  0.00  0.00    +0.000 A 
ATOM      7  C   UNL     1      -3.729   1.454   0.469  0.00  0.00    +0.000 A 
ATOM      8  O   UNL     1      -5.076   1.870   0.464  0.00  0.00    +0.000 OA
ATOM      9  C   UNL     1      -3.118   1.290   1.684  0.00  0.00    +0.000 A 
ATOM     10  C   UNL     1      -1.772   0.874   1.717  0.00  0.00    +0.000 A 
ATOM     11  C   UNL     1      -1.085   0.638   0.545  0.00  0.00    +0.000 A 
ATOM     12  C   UNL     1       0.372   0.148   0.729  0.00  0.00    +0.000 C 
ENDROOT
BRANCH  12  13
ATOM     13  C   UNL     1      -0.081  -1.454   0.857  0.00  0.00    +0.000 C 
ATOM     14  C   UNL     1      -0.679  -1.597   2.205  0.00  0.00    +0.000 C 
ATOM     15  C   UNL     1       1.086  -2.280   0.525  0.00  0.00    +0.000 C 
ENDBRANCH  12  13
BRANCH   1  16
ATOM     16  C   UNL     1       2.316  -0.403  -0.779  0.00  0.00    +0.000 C 
ATOM     17  O   UNL     1       2.852  -0.588  -1.928  0.00  0.00    +0.000 OA
BRANCH  16  18
ATOM     18  O   UNL     1       3.168  -0.624   0.277  0.00  0.00    +0.000 OA
BRANCH  18  20
ATOM     19  C   UNL     1       4.992  -1.120   1.671  0.00  0.00    +0.000 C 
ATOM     20  C   UNL     1       4.499  -1.013   0.221  0.00  0.00    +0.000 C 
ENDBRANCH  18  20
ENDBRANCH  16  18
ENDBRANCH   1  16
TORSDOF 4
