REMARK  Name = 
REMARK  3 active torsions:
REMARK  status: ('A' for Active; 'I' for Inactive)
REMARK    1  A    between atoms: C_7  and  N_8
REMARK    2  A    between atoms: N_8  and  N_9
REMARK    3  A    between atoms: C_10  and  C_12
REMARK                            x       y       z     vdW  Elec       q    Type
REMARK                         _______ _______ _______ _____ _____    ______ ____
ROOT
ATOM      1  N   UNL     1       0.009   0.094   0.603  0.00  0.00    +0.000 NA
ATOM      2  C   UNL     1      -1.186  -0.646   0.543  0.00  0.00    +0.000 C 
ATOM      3  O   UNL     1      -1.208  -1.800   0.986  0.00  0.00    +0.000 OA
ENDROOT
BRANCH   2   4
ATOM      4  C   UNL     1      -2.355   0.011  -0.053  0.00  0.00    +0.000 A 
ATOM      5  C   UNL     1      -2.301   1.292  -0.537  0.00  0.00    +0.000 A 
ATOM      6  C   UNL     1      -3.400   1.909  -1.097  0.00  0.00    +0.000 A 
ATOM      7  C   UNL     1      -4.624   1.254  -1.198  0.00  0.00    +0.000 A 
ATOM      8  C   UNL     1      -4.657  -0.029  -0.707  0.00  0.00    +0.000 A 
ATOM      9  C   UNL     1      -3.572  -0.644  -0.151  0.00  0.00    +0.000 A 
ATOM     10  O   UNL     1      -3.707  -1.934   0.312  0.00  0.00    +0.000 OA
ENDBRANCH   2   4
BRANCH   1  11
ATOM     11  N   UNL     1       1.197  -0.392   1.137  0.00  0.00    +0.000 NA
BRANCH  11  18
ATOM     12  C   UNL     1       4.343  -1.220   1.164  0.00  0.00    +0.000 C 
ATOM     13  C   UNL     1       3.216  -1.214  -0.009  0.00  0.00    +0.000 C 
ATOM     14  C   UNL     1       4.101  -0.390  -1.087  0.00  0.00    +0.000 C 
ATOM     15  C   UNL     1       4.893   0.649  -0.431  0.00  0.00    +0.000 C 
ATOM     16  C   UNL     1       4.030   1.818  -0.001  0.00  0.00    +0.000 C 
ATOM     17  C   UNL     1       2.799   1.219   0.544  0.00  0.00    +0.000 C 
ATOM     18  C   UNL     1       2.422   0.021   0.569  0.00  0.00    +0.000 C 
ENDBRANCH  11  18
ENDBRANCH   1  11
TORSDOF 3
