REMARK  Name = 
REMARK  3 active torsions:
REMARK  status: ('A' for Active; 'I' for Inactive)
REMARK    1  A    between atoms: C_5  and  N_6
REMARK    2  A    between atoms: C_7  and  C_9
REMARK    3  A    between atoms: C_12  and  C_13
REMARK                            x       y       z     vdW  Elec       q    Type
REMARK                         _______ _______ _______ _____ _____    ______ ____
ROOT
ATOM      1  N   UNL     1      -1.336  -0.130   0.250  0.00  0.00    +0.000 NA
ATOM      2  C   UNL     1      -0.386   0.141  -0.775  0.00  0.00    +0.000 C 
ATOM      3  O   UNL     1      -0.894   0.302  -1.923  0.00  0.00    +0.000 OA
ENDROOT
BRANCH   1   8
ATOM      4  C   UNL     1      -6.940  -0.672  -0.444  0.00  0.00    +0.000 C 
ATOM      5  C   UNL     1      -5.473  -0.520  -0.233  0.00  0.00    +0.000 A 
ATOM      6  C   UNL     1      -4.696  -0.126  -1.293  0.00  0.00    +0.000 A 
ATOM      7  C   UNL     1      -3.340   0.009  -1.128  0.00  0.00    +0.000 A 
ATOM      8  C   UNL     1      -2.711  -0.231   0.051  0.00  0.00    +0.000 A 
ATOM      9  C   UNL     1      -3.490  -0.635   1.145  0.00  0.00    +0.000 A 
ATOM     10  O   UNL     1      -2.876  -0.895   2.381  0.00  0.00    +0.000 OA
ATOM     11  C   UNL     1      -4.832  -0.761   0.953  0.00  0.00    +0.000 A 
ENDBRANCH   1   8
BRANCH   2  12
ATOM     12  C   UNL     1       1.039   0.228  -0.504  0.00  0.00    +0.000 A 
ATOM     13  C   UNL     1       1.918  -0.544  -1.207  0.00  0.00    +0.000 A 
ATOM     14  C   UNL     1       3.266  -0.502  -1.009  0.00  0.00    +0.000 A 
ATOM     15  C   UNL     1       3.785   0.372  -0.049  0.00  0.00    +0.000 A 
ATOM     16  C   UNL     1       2.923   1.155   0.664  0.00  0.00    +0.000 A 
ATOM     17  C   UNL     1       1.568   1.076   0.436  0.00  0.00    +0.000 A 
BRANCH  15  18
ATOM     18  C   UNL     1       5.254   0.419   0.169  0.00  0.00    +0.000 C 
ATOM     19  C   UNL     1       5.689   1.867   0.229  0.00  0.00    +0.000 C 
ATOM     20  C   UNL     1       5.590  -0.344   1.410  0.00  0.00    +0.000 C 
ATOM     21  C   UNL     1       5.943  -0.208  -1.033  0.00  0.00    +0.000 C 
ENDBRANCH  15  18
ENDBRANCH   2  12
TORSDOF 3
