REMARK  Name = 
REMARK  3 active torsions:
REMARK  status: ('A' for Active; 'I' for Inactive)
REMARK    1  A    between atoms: C_4  and  N_5
REMARK    2  A    between atoms: N_5  and  N_6
REMARK    3  A    between atoms: C_7  and  C_9
REMARK                            x       y       z     vdW  Elec       q    Type
REMARK                         _______ _______ _______ _____ _____    ______ ____
ROOT
ATOM      1  N   UNL     1      -0.031   0.332   1.072  0.00  0.00    +0.000 NA
ATOM      2  C   UNL     1       0.643  -0.627   0.246  0.00  0.00    +0.000 C 
ATOM      3  O   UNL     1      -0.094  -1.511  -0.293  0.00  0.00    +0.000 OA
ENDROOT
BRANCH   2   4
ATOM      4  C   UNL     1       2.093  -0.583   0.046  0.00  0.00    +0.000 A 
ATOM      5  C   UNL     1       2.797  -1.642  -0.498  0.00  0.00    +0.000 A 
ATOM      6  C   UNL     1       4.156  -1.554  -0.672  0.00  0.00    +0.000 A 
ATOM      7  C   UNL     1       4.848  -0.422  -0.316  0.00  0.00    +0.000 A 
ATOM      8 CL   UNL     1       6.575  -0.266  -0.515  0.00  0.00    +0.000 Cl
ATOM      9  C   UNL     1       4.142   0.650   0.234  0.00  0.00    +0.000 A 
ATOM     10  C   UNL     1       2.773   0.564   0.411  0.00  0.00    +0.000 A 
ENDBRANCH   2   4
BRANCH   1  11
ATOM     11  N   UNL     1      -1.404   0.327   1.292  0.00  0.00    +0.000 NA
BRANCH  11  15
ATOM     12  C   UNL     1      -5.594  -0.853  -0.401  0.00  0.00    +0.000 C 
ATOM     13  C   UNL     1      -4.346   0.032  -1.082  0.00  0.00    +0.000 C 
ATOM     14  C   UNL     1      -3.321  -0.415   0.125  0.00  0.00    +0.000 C 
ATOM     15  C   UNL     1      -2.385   0.498   0.313  0.00  0.00    +0.000 C 
ATOM     16  C   UNL     1      -2.365   1.719  -0.523  0.00  0.00    +0.000 C 
ATOM     17  C   UNL     1      -3.709   2.355  -0.660  0.00  0.00    +0.000 C 
ATOM     18  C   UNL     1      -4.777   1.396  -0.258  0.00  0.00    +0.000 C 
ENDBRANCH  11  15
ENDBRANCH   1  11
TORSDOF 3
