REMARK  Name = 
REMARK  3 active torsions:
REMARK  status: ('A' for Active; 'I' for Inactive)
REMARK    1  A    between atoms: C_10  and  C_11
REMARK    2  A    between atoms: N_13  and  C_14
REMARK    3  A    between atoms: C_14  and  C_15
REMARK                            x       y       z     vdW  Elec       q    Type
REMARK                         _______ _______ _______ _____ _____    ______ ____
ROOT
ATOM      1  C   UNL     1      -4.398   0.023   2.985  0.00  0.00    +0.000 C 
ATOM      2  C   UNL     1      -3.823   1.244   2.009  0.00  0.00    +0.000 C 
ATOM      3  C   UNL     1      -2.265   0.917   2.364  0.00  0.00    +0.000 C 
ATOM      4  C   UNL     1      -1.755  -0.198   1.550  0.00  0.00    +0.000 C 
ATOM      5  C   UNL     1      -1.618   0.441   0.176  0.00  0.00    +0.000 A 
ATOM      6  C   UNL     1      -2.884   0.726  -0.276  0.00  0.00    +0.000 A 
ATOM      7  S   UNL     1      -2.598   1.435  -1.807  0.00  0.00    +0.000 S 
ATOM      8  C   UNL     1      -0.884   1.344  -1.817  0.00  0.00    +0.000 A 
ATOM      9  N   UNL     1      -0.018   1.788  -2.857  0.00  0.00    +0.000 NA
ATOM     10  C   UNL     1      -0.593   0.763  -0.626  0.00  0.00    +0.000 A 
ATOM     11  C   UNL     1      -3.978   0.345   0.651  0.00  0.00    +0.000 C 
ENDROOT
BRANCH  10  12
ATOM     12  C   UNL     1       0.813   0.492  -0.221  0.00  0.00    +0.000 C 
ATOM     13  O   UNL     1       1.778   0.793  -0.970  0.00  0.00    +0.000 OA
ATOM     14  N   UNL     1       1.155  -0.110   1.011  0.00  0.00    +0.000 NA
BRANCH  14  15
ATOM     15  C   UNL     1       2.535  -0.362   1.379  0.00  0.00    +0.000 C 
BRANCH  15  16
ATOM     16  C   UNL     1       3.190  -1.271   0.392  0.00  0.00    +0.000 A 
ATOM     17  C   UNL     1       3.257  -2.649   0.400  0.00  0.00    +0.000 A 
ATOM     18  C   UNL     1       3.971  -3.024  -0.729  0.00  0.00    +0.000 A 
ATOM     19  C   UNL     1       4.296  -1.850  -1.359  0.00  0.00    +0.000 A 
ATOM     20  O   UNL     1       3.819  -0.847  -0.668  0.00  0.00    +0.000 OA
ENDBRANCH  15  16
ENDBRANCH  14  15
ENDBRANCH  10  12
TORSDOF 3
