REMARK  Name = 
REMARK  3 active torsions:
REMARK  status: ('A' for Active; 'I' for Inactive)
REMARK    1  A    between atoms: C_4  and  N_5
REMARK    2  A    between atoms: N_5  and  N_6
REMARK    3  A    between atoms: C_7  and  C_9
REMARK                            x       y       z     vdW  Elec       q    Type
REMARK                         _______ _______ _______ _____ _____    ______ ____
ROOT
ATOM      1  N   UNL     1       0.941   1.043   0.942  0.00  0.00    +0.000 NA
ATOM      2  C   UNL     1       0.326  -0.112   0.447  0.00  0.00    +0.000 C 
ATOM      3  O   UNL     1       1.065  -1.124   0.243  0.00  0.00    +0.000 OA
ENDROOT
BRANCH   2   4
ATOM      4  C   UNL     1      -1.127  -0.212   0.153  0.00  0.00    +0.000 A 
ATOM      5  C   UNL     1      -2.092   0.719   0.304  0.00  0.00    +0.000 A 
ATOM      6  C   UNL     1      -3.349   0.407  -0.023  0.00  0.00    +0.000 A 
ATOM      7  C   UNL     1      -3.561  -0.868  -0.498  0.00  0.00    +0.000 A 
ATOM      8  S   UNL     1      -1.999  -1.549  -0.460  0.00  0.00    +0.000 S 
ATOM      9  C   UNL     1      -4.958  -1.290  -0.887  0.00  0.00    +0.000 C 
ATOM     10  C   UNL     1      -5.736  -0.219  -1.557  0.00  0.00    +0.000 C 
ATOM     11  C   UNL     1      -5.144   1.159  -1.406  0.00  0.00    +0.000 C 
ATOM     12  C   UNL     1      -4.628   1.234   0.038  0.00  0.00    +0.000 C 
ENDBRANCH   2   4
BRANCH   1  13
ATOM     13  N   UNL     1       2.239   1.267   1.252  0.00  0.00    +0.000 NA
BRANCH  13  17
ATOM     14  C   UNL     1       5.657  -1.752  -1.019  0.00  0.00    +0.000 C 
ATOM     15  C   UNL     1       4.968  -0.661  -0.261  0.00  0.00    +0.000 C 
ATOM     16  C   UNL     1       3.700  -0.491  -0.013  0.00  0.00    +0.000 C 
ATOM     17  C   UNL     1       3.415   0.699   0.762  0.00  0.00    +0.000 C 
ATOM     18  C   UNL     1       4.611   1.276   0.990  0.00  0.00    +0.000 C 
ATOM     19  C   UNL     1       5.670   0.473   0.370  0.00  0.00    +0.000 C 
ENDBRANCH  13  17
ENDBRANCH   1  13
TORSDOF 3
