REMARK  Name = 
REMARK  4 active torsions:
REMARK  status: ('A' for Active; 'I' for Inactive)
REMARK    1  A    between atoms: C_2  and  C_5
REMARK    2  A    between atoms: N_7  and  C_8
REMARK    3  A    between atoms: C_8  and  N_10
REMARK    4  A    between atoms: N_10  and  C_11
REMARK                            x       y       z     vdW  Elec       q    Type
REMARK                         _______ _______ _______ _____ _____    ______ ____
ROOT
ATOM      1  C   UNL     1      -0.344   0.047  -0.062  0.00  0.00    +0.000 C 
ATOM      2  S   UNL     1       0.171  -0.747   1.260  0.00  0.00    +0.000 S 
ENDROOT
BRANCH   1   5
ATOM      3  C   UNL     1      -2.629  -0.592   0.513  0.00  0.00    +0.000 C 
ATOM      4  O   UNL     1      -2.185  -1.193   1.524  0.00  0.00    +0.000 OA
ATOM      5  N   UNL     1      -1.725   0.072  -0.352  0.00  0.00    +0.000 NA
BRANCH   3   7
ATOM      6  C   UNL     1      -4.343  -1.179  -1.183  0.00  0.00    +0.000 C 
ATOM      7  C   UNL     1      -4.081  -0.550   0.185  0.00  0.00    +0.000 C 
ATOM      8  C   UNL     1      -4.925  -1.151   1.258  0.00  0.00    +0.000 C 
ATOM      9  C   UNL     1      -4.463   0.925   0.054  0.00  0.00    +0.000 C 
ENDBRANCH   3   7
ENDBRANCH   1   5
BRANCH   1  10
ATOM     10  N   UNL     1       0.540   0.720  -0.945  0.00  0.00    +0.000 NA
BRANCH  10  11
ATOM     11  C   UNL     1       1.933   0.737  -0.718  0.00  0.00    +0.000 A 
ATOM     12  C   UNL     1       2.822   1.381  -1.554  0.00  0.00    +0.000 A 
ATOM     13  C   UNL     1       4.161   1.355  -1.271  0.00  0.00    +0.000 A 
ATOM     14  C   UNL     1       4.645   0.688  -0.151  0.00  0.00    +0.000 A 
ATOM     15  C   UNL     1       3.768   0.044   0.688  0.00  0.00    +0.000 A 
ATOM     16  O   UNL     1       4.224  -0.640   1.831  0.00  0.00    +0.000 OA
ATOM     17  C   UNL     1       2.430   0.082   0.387  0.00  0.00    +0.000 A 
ENDBRANCH  10  11
ENDBRANCH   1  10
TORSDOF 4
