REMARK  Name = 
REMARK  5 active torsions:
REMARK  status: ('A' for Active; 'I' for Inactive)
REMARK    1  A    between atoms: C_2  and  C_4
REMARK    2  A    between atoms: C_4  and  N_5
REMARK    3  A    between atoms: C_4  and  C_18
REMARK    4  A    between atoms: C_6  and  C_8
REMARK    5  A    between atoms: C_13  and  N_14
REMARK                            x       y       z     vdW  Elec       q    Type
REMARK                         _______ _______ _______ _____ _____    ______ ____
ROOT
ATOM      1  N   UNL     1       1.916   0.180  -0.136  0.00  0.00    +0.000 NA
ATOM      2  C   UNL     1       0.723   0.084   0.591  0.00  0.00    +0.000 C 
ATOM      3  O   UNL     1       0.708   0.336   1.812  0.00  0.00    +0.000 OA
ENDROOT
BRANCH   2   4
ATOM      4  C   UNL     1      -0.488  -0.315  -0.122  0.00  0.00    +0.000 A 
ATOM      5  C   UNL     1      -0.421  -1.129  -1.251  0.00  0.00    +0.000 A 
ATOM      6  C   UNL     1      -1.547  -1.515  -1.947  0.00  0.00    +0.000 A 
ATOM      7  C   UNL     1      -2.803  -1.108  -1.551  0.00  0.00    +0.000 A 
ATOM      8 CL   UNL     1      -4.269  -1.567  -2.391  0.00  0.00    +0.000 Cl
ATOM      9  C   UNL     1      -2.874  -0.300  -0.431  0.00  0.00    +0.000 A 
ATOM     10  C   UNL     1      -1.746   0.089   0.270  0.00  0.00    +0.000 A 
BRANCH   9  11
ATOM     11  N   UNL     1      -4.185   0.132  -0.028  0.00  0.00    +0.000 N 
ATOM     12  O   UNL     1      -5.090   0.307  -0.865  0.00  0.00    +0.000 OA
ATOM     13  O   UNL     1      -4.487   0.365   1.290  0.00  0.00    +0.000 OA
ENDBRANCH   9  11
ENDBRANCH   2   4
BRANCH   1  14
ATOM     14  C   UNL     1       3.208   0.535   0.279  0.00  0.00    +0.000 C 
BRANCH  14  16
ATOM     15  C   UNL     1       2.649   2.195   2.022  0.00  0.00    +0.000 C 
ATOM     16  C   UNL     1       3.461   1.889   0.795  0.00  0.00    +0.000 C 
ATOM     17  C   UNL     1       3.041   2.895  -0.272  0.00  0.00    +0.000 C 
ENDBRANCH  14  16
BRANCH  14  18
ATOM     18  C   UNL     1       4.127  -0.545   0.713  0.00  0.00    +0.000 C 
ATOM     19  C   UNL     1       3.752  -1.895   0.101  0.00  0.00    +0.000 C 
ATOM     20  C   UNL     1       4.324  -0.632   2.210  0.00  0.00    +0.000 C 
ENDBRANCH  14  18
ENDBRANCH   1  14
TORSDOF 5
