REMARK  Name = 
REMARK  3 active torsions:
REMARK  status: ('A' for Active; 'I' for Inactive)
REMARK    1  A    between atoms: C_2  and  C_13
REMARK    2  A    between atoms: N_3  and  N_4
REMARK    3  A    between atoms: N_4  and  C_5
REMARK                            x       y       z     vdW  Elec       q    Type
REMARK                         _______ _______ _______ _____ _____    ______ ____
ROOT
ATOM      1  O   UNL     1       1.319   2.679  -0.522  0.00  0.00    +0.000 OA
ATOM      2  C   UNL     1       1.383   1.426  -0.496  0.00  0.00    +0.000 C 
ATOM      3  N   UNL     1       0.185   0.674  -0.590  0.00  0.00    +0.000 NA
ENDROOT
BRANCH   2   4
ATOM      4  C   UNL     1       2.634   0.707  -0.374  0.00  0.00    +0.000 A 
ATOM      5  C   UNL     1       3.832   1.376  -0.201  0.00  0.00    +0.000 A 
ATOM      6  C   UNL     1       5.030   0.673  -0.085  0.00  0.00    +0.000 A 
ATOM      7  C   UNL     1       5.012  -0.701  -0.140  0.00  0.00    +0.000 A 
ATOM      8 CL   UNL     1       6.462  -1.685   0.008  0.00  0.00    +0.000 Cl
ATOM      9  C   UNL     1       3.824  -1.393  -0.312  0.00  0.00    +0.000 A 
ATOM     10  C   UNL     1       2.687  -0.667  -0.420  0.00  0.00    +0.000 A 
ENDBRANCH   2   4
BRANCH   3  11
ATOM     11  N   UNL     1      -1.089   1.226  -0.714  0.00  0.00    +0.000 NA
BRANCH  11  12
ATOM     12  C   UNL     1      -2.100   0.335  -1.225  0.00  0.00    +0.000 C 
ATOM     13  C   UNL     1      -3.112   0.120  -0.420  0.00  0.00    +0.000 C 
ATOM     14  C   UNL     1      -3.474   0.532   0.814  0.00  0.00    +0.000 C 
ATOM     15  C   UNL     1      -4.752  -0.292   1.291  0.00  0.00    +0.000 C 
ATOM     16  C   UNL     1      -4.188  -1.784   1.103  0.00  0.00    +0.000 C 
ATOM     17  C   UNL     1      -3.949  -2.077  -0.028  0.00  0.00    +0.000 C 
ATOM     18  C   UNL     1      -4.246  -0.905  -1.052  0.00  0.00    +0.000 C 
ATOM     19  C   UNL     1      -5.456  -0.244  -0.196  0.00  0.00    +0.000 C 
ENDBRANCH  11  12
ENDBRANCH   3  11
TORSDOF 3
