REMARK  Name = 
REMARK  6 active torsions:
REMARK  status: ('A' for Active; 'I' for Inactive)
REMARK    1  A    between atoms: N_2  and  C_3
REMARK    2  A    between atoms: C_3  and  N_5
REMARK    3  A    between atoms: N_5  and  C_6
REMARK    4  A    between atoms: C_9  and  O_10
REMARK    5  A    between atoms: O_10  and  C_11
REMARK    6  A    between atoms: C_16  and  O_17
REMARK                            x       y       z     vdW  Elec       q    Type
REMARK                         _______ _______ _______ _____ _____    ______ ____
ROOT
ATOM      1  C   UNL     1       2.043  -1.123   0.145  0.00  0.00    +0.000 A 
ATOM      2  C   UNL     1       1.825   0.146   0.639  0.00  0.00    +0.000 A 
ATOM      3  C   UNL     1       0.584   0.568   1.068  0.00  0.00    +0.000 A 
ATOM      4  C   UNL     1      -0.526  -0.271   1.026  0.00  0.00    +0.000 A 
ATOM      5  C   UNL     1      -0.304  -1.539   0.531  0.00  0.00    +0.000 A 
ATOM      6  C   UNL     1       0.946  -1.958   0.101  0.00  0.00    +0.000 A 
ENDROOT
BRANCH   1   7
ATOM      7  N   UNL     1       3.333  -1.531  -0.290  0.00  0.00    +0.000 NA
BRANCH   7   8
ATOM      8  C   UNL     1       4.473  -0.727  -0.267  0.00  0.00    +0.000 C 
ATOM      9  S   UNL     1       5.891  -1.290  -0.785  0.00  0.00    +0.000 S 
BRANCH   8  11
ATOM     10  C   UNL     1       5.542   1.492   0.268  0.00  0.00    +0.000 C 
ATOM     11  N   UNL     1       4.409   0.608   0.215  0.00  0.00    +0.000 NA
ENDBRANCH   8  11
ENDBRANCH   7   8
ENDBRANCH   1   7
BRANCH   4  12
ATOM     12  O   UNL     1      -1.772   0.158   1.459  0.00  0.00    +0.000 OA
BRANCH  12  13
ATOM     13  C   UNL     1      -2.612   0.787   0.569  0.00  0.00    +0.000 A 
ATOM     14  C   UNL     1      -3.039   2.075   0.787  0.00  0.00    +0.000 A 
ATOM     15  C   UNL     1      -3.881   2.732  -0.084  0.00  0.00    +0.000 A 
ATOM     16  C   UNL     1      -4.284   2.032  -1.204  0.00  0.00    +0.000 A 
ATOM     17  C   UNL     1      -3.875   0.763  -1.437  0.00  0.00    +0.000 A 
ATOM     18  C   UNL     1      -3.032   0.124  -0.552  0.00  0.00    +0.000 A 
BRANCH  18  19
ATOM     19  O   UNL     1      -2.640  -1.195  -0.845  0.00  0.00    +0.000 OA
ATOM     20  C   UNL     1      -3.082  -1.850  -1.994  0.00  0.00    +0.000 C 
ENDBRANCH  18  19
ENDBRANCH  12  13
ENDBRANCH   4  12
TORSDOF 6
