REMARK  Name = 
REMARK  3 active torsions:
REMARK  status: ('A' for Active; 'I' for Inactive)
REMARK    1  A    between atoms: C_6  and  C_7
REMARK    2  A    between atoms: N_9  and  C_10
REMARK    3  A    between atoms: C_10  and  C_11
REMARK                            x       y       z     vdW  Elec       q    Type
REMARK                         _______ _______ _______ _____ _____    ______ ____
ROOT
ATOM      1  N   UNL     1      -0.995  -3.263  -1.000  0.00  0.00    +0.000 NA
ATOM      2  C   UNL     1      -1.733  -2.108  -0.534  0.00  0.00    +0.000 A 
ATOM      3  S   UNL     1      -3.379  -1.726  -0.748  0.00  0.00    +0.000 S 
ATOM      4  C   UNL     1      -3.426  -0.244   0.084  0.00  0.00    +0.000 A 
ATOM      5  C   UNL     1      -2.136  -0.083   0.514  0.00  0.00    +0.000 A 
ATOM      6  C   UNL     1      -1.259  -1.046   0.195  0.00  0.00    +0.000 A 
ATOM      7  C   UNL     1      -1.926   1.205   1.302  0.00  0.00    +0.000 C 
ATOM      8  C   UNL     1      -2.422   2.317   0.400  0.00  0.00    +0.000 C 
ATOM      9  C   UNL     1      -3.891   2.192   0.099  0.00  0.00    +0.000 C 
ATOM     10  C   UNL     1      -4.442   0.821   0.425  0.00  0.00    +0.000 C 
ENDROOT
BRANCH   6  11
ATOM     11  C   UNL     1       0.175  -1.001   0.595  0.00  0.00    +0.000 C 
ATOM     12  O   UNL     1       0.981  -1.910   0.287  0.00  0.00    +0.000 OA
ATOM     13  N   UNL     1       0.712   0.075   1.349  0.00  0.00    +0.000 NA
BRANCH  13  14
ATOM     14  C   UNL     1       2.105   0.134   1.747  0.00  0.00    +0.000 C 
BRANCH  14  15
ATOM     15  C   UNL     1       2.883   0.519   0.540  0.00  0.00    +0.000 A 
ATOM     16  C   UNL     1       3.150   1.832   0.202  0.00  0.00    +0.000 A 
ATOM     17  C   UNL     1       3.887   2.057  -0.949  0.00  0.00    +0.000 A 
ATOM     18  C   UNL     1       4.322   0.996  -1.707  0.00  0.00    +0.000 A 
ATOM     19  N   UNL     1       4.051  -0.257  -1.361  0.00  0.00    +0.000 NA
ATOM     20  C   UNL     1       3.344  -0.510  -0.257  0.00  0.00    +0.000 A 
ENDBRANCH  14  15
ENDBRANCH  13  14
ENDBRANCH   6  11
TORSDOF 3
