REMARK  Name = 
REMARK  2 active torsions:
REMARK  status: ('A' for Active; 'I' for Inactive)
REMARK    1  A    between atoms: O_2  and  C_3
REMARK    2  A    between atoms: C_6  and  C_7
REMARK                            x       y       z     vdW  Elec       q    Type
REMARK                         _______ _______ _______ _____ _____    ______ ____
ROOT
ATOM      1  C   UNL     1       0.835  -0.314  -1.013  0.00  0.00    +0.000 C 
ATOM      2  N   UNL     1       0.153  -1.351  -0.022  0.00  0.00    +0.000 NA
ATOM      3  C   UNL     1      -1.256  -1.277  -0.063  0.00  0.00    +0.000 C 
ATOM      4  O   UNL     1      -1.973  -2.350  -0.060  0.00  0.00    +0.000 OA
ATOM      5  C   UNL     1      -1.948   0.043  -0.113  0.00  0.00    +0.000 A 
ATOM      6  C   UNL     1      -1.067   1.073  -0.115  0.00  0.00    +0.000 A 
ATOM      7  S   UNL     1      -2.072   2.443  -0.161  0.00  0.00    +0.000 S 
ATOM      8  C   UNL     1      -3.611   1.664  -0.175  0.00  0.00    +0.000 A 
ATOM      9  C   UNL     1      -3.266   0.360  -0.144  0.00  0.00    +0.000 A 
ATOM     10  C   UNL     1      -4.455  -0.590  -0.148  0.00  0.00    +0.000 C 
ATOM     11  C   UNL     1      -5.569   0.075   0.601  0.00  0.00    +0.000 C 
ATOM     12  C   UNL     1      -6.039   1.254  -0.260  0.00  0.00    +0.000 C 
ATOM     13  C   UNL     1      -4.946   2.267  -0.211  0.00  0.00    +0.000 C 
ATOM     14  N   UNL     1       0.345   0.944  -0.080  0.00  0.00    +0.000 NA
ENDROOT
BRANCH   1  18
ATOM     15  C   UNL     1       4.854  -0.555   0.615  0.00  0.00    +0.000 A 
ATOM     16  C   UNL     1       4.650  -0.586  -0.745  0.00  0.00    +0.000 A 
ATOM     17  C   UNL     1       3.344  -0.507  -1.247  0.00  0.00    +0.000 A 
ATOM     18  C   UNL     1       2.306  -0.399  -0.346  0.00  0.00    +0.000 A 
ATOM     19  C   UNL     1       2.505  -0.370   0.955  0.00  0.00    +0.000 A 
ATOM     20  C   UNL     1       3.780  -0.447   1.456  0.00  0.00    +0.000 A 
BRANCH  15  22
ATOM     21  C   UNL     1       7.254  -0.745   0.221  0.00  0.00    +0.000 C 
ATOM     22  O   UNL     1       6.177  -0.635   1.128  0.00  0.00    +0.000 OA
ENDBRANCH  15  22
ENDBRANCH   1  18
TORSDOF 2
