REMARK  Name = 
REMARK  3 active torsions:
REMARK  status: ('A' for Active; 'I' for Inactive)
REMARK    1  A    between atoms: C_3  and  S_4
REMARK    2  A    between atoms: N_10  and  C_11
REMARK    3  A    between atoms: C_11  and  C_12
REMARK                            x       y       z     vdW  Elec       q    Type
REMARK                         _______ _______ _______ _____ _____    ______ ____
ROOT
ATOM      1  C   UNL     1      -2.690  -1.951   1.050  0.00  0.00    +0.000 C 
ATOM      2  C   UNL     1      -1.682  -1.153   0.292  0.00  0.00    +0.000 A 
ATOM      3  C   UNL     1      -1.857   0.120  -0.188  0.00  0.00    +0.000 A 
ATOM      4  C   UNL     1      -0.687   0.457  -0.812  0.00  0.00    +0.000 A 
ATOM      5  N   UNL     1      -0.451   1.718  -1.455  0.00  0.00    +0.000 NA
ATOM      6  N   UNL     1       0.157  -0.577  -0.709  0.00  0.00    +0.000 N 
ATOM      7  C   UNL     1      -0.418  -1.600  -0.030  0.00  0.00    +0.000 A 
ATOM      8  C   UNL     1       0.196  -2.932   0.296  0.00  0.00    +0.000 C 
ENDROOT
BRANCH   3   9
ATOM      9  S   UNL     1      -3.329   1.073   0.001  0.00  0.00    +0.000 S 
ATOM     10  C   UNL     1      -3.228   2.005   1.493  0.00  0.00    +0.000 C 
ATOM     11  O   UNL     1      -3.433   1.943  -1.217  0.00  0.00    +0.000 OA
ATOM     12  O   UNL     1      -4.509   0.143   0.014  0.00  0.00    +0.000 OA
ENDBRANCH   3   9
BRANCH   6  13
ATOM     13  C   UNL     1       1.516  -0.658  -1.230  0.00  0.00    +0.000 C 
BRANCH  13  14
ATOM     14  C   UNL     1       2.499  -0.164  -0.210  0.00  0.00    +0.000 A 
ATOM     15  C   UNL     1       3.016  -1.067   0.659  0.00  0.00    +0.000 A 
ATOM     16  C   UNL     1       3.922  -0.675   1.618  0.00  0.00    +0.000 A 
ATOM     17  C   UNL     1       4.316   0.629   1.709  0.00  0.00    +0.000 A 
ATOM     18  C   UNL     1       3.783   1.531   0.822  0.00  0.00    +0.000 A 
ATOM     19  C   UNL     1       2.878   1.157  -0.140  0.00  0.00    +0.000 A 
ENDBRANCH  13  14
ENDBRANCH   6  13
TORSDOF 3
