REMARK  Name = 
REMARK  1 active torsions:
REMARK  status: ('A' for Active; 'I' for Inactive)
REMARK    1  A    between atoms: C_2  and  C_3
REMARK                            x       y       z     vdW  Elec       q    Type
REMARK                         _______ _______ _______ _____ _____    ______ ____
ROOT
ATOM      1  C   UNL     1       0.109   1.504  -0.896  0.00  0.00    +0.000 C 
ATOM      2  O   UNL     1      -1.175   1.595  -0.114  0.00  0.00    +0.000 OA
ATOM      3  C   UNL     1      -2.076   0.594  -0.084  0.00  0.00    +0.000 A 
ATOM      4  C   UNL     1      -3.462   0.797   0.063  0.00  0.00    +0.000 A 
ATOM      5  C   UNL     1      -4.329  -0.244   0.087  0.00  0.00    +0.000 A 
ATOM      6  O   UNL     1      -5.692  -0.057   0.231  0.00  0.00    +0.000 OA
ATOM      7  C   UNL     1      -3.887  -1.549  -0.032  0.00  0.00    +0.000 A 
ATOM      8  C   UNL     1      -2.534  -1.795  -0.178  0.00  0.00    +0.000 A 
ATOM      9  C   UNL     1      -1.972  -3.155  -0.312  0.00  0.00    +0.000 C 
ATOM     10  C   UNL     1      -1.692  -0.705  -0.198  0.00  0.00    +0.000 A 
ATOM     11  N   UNL     1      -0.284  -0.957  -0.354  0.00  0.00    +0.000 NA
ATOM     12  C   UNL     1       0.629   0.113  -0.391  0.00  0.00    +0.000 C 
ATOM     13  C   UNL     1       1.875  -0.064  -0.036  0.00  0.00    +0.000 C 
ATOM     14  C   UNL     1       2.371  -1.377   0.444  0.00  0.00    +0.000 C 
ATOM     15  C   UNL     1       3.604  -1.598   0.796  0.00  0.00    +0.000 C 
ATOM     16  C   UNL     1       4.518  -0.460   0.698  0.00  0.00    +0.000 C 
ATOM     17  O   UNL     1       5.715  -0.637   1.030  0.00  0.00    +0.000 OA
ATOM     18  C   UNL     1       4.069   0.847   0.231  0.00  0.00    +0.000 C 
ATOM     19  C   UNL     1       2.832   1.014  -0.107  0.00  0.00    +0.000 C 
ENDROOT
BRANCH   1  21
ATOM     20  C   UNL     1       0.375   3.737   0.221  0.00  0.00    +0.000 C 
ATOM     21  C   UNL     1       1.007   2.398   0.144  0.00  0.00    +0.000 C 
ENDBRANCH   1  21
TORSDOF 1
