REMARK  Name = 
REMARK  3 active torsions:
REMARK  status: ('A' for Active; 'I' for Inactive)
REMARK    1  A    between atoms: C_8  and  N_9
REMARK    2  A    between atoms: N_9  and  C_10
REMARK    3  A    between atoms: C_10  and  C_11
REMARK                            x       y       z     vdW  Elec       q    Type
REMARK                         _______ _______ _______ _____ _____    ______ ____
ROOT
ATOM      1  F   UNL     1      -5.944   0.251  -1.741  0.00  0.00    +0.000 F 
ATOM      2  C   UNL     1      -4.628   0.448  -1.513  0.00  0.00    +0.000 A 
ATOM      3  C   UNL     1      -3.973   1.471  -2.167  0.00  0.00    +0.000 A 
ATOM      4  C   UNL     1      -2.629   1.697  -1.954  0.00  0.00    +0.000 A 
ATOM      5  C   UNL     1      -1.941   0.875  -1.068  0.00  0.00    +0.000 A 
ATOM      6  N   UNL     1      -0.639   0.847  -0.657  0.00  0.00    +0.000 NA
ATOM      7  C   UNL     1      -0.461  -0.152   0.224  0.00  0.00    +0.000 A 
ATOM      8  C   UNL     1       0.610  -0.636   0.945  0.00  0.00    +0.000 A 
ATOM      9  N   UNL     1       0.422  -1.686   1.759  0.00  0.00    +0.000 NA
ATOM     10  C   UNL     1      -0.772  -2.277   1.894  0.00  0.00    +0.000 A 
ATOM     11  N   UNL     1      -1.810  -1.821   1.207  0.00  0.00    +0.000 NA
ATOM     12  C   UNL     1      -1.676  -0.768   0.373  0.00  0.00    +0.000 A 
ATOM     13  C   UNL     1      -2.618  -0.140  -0.427  0.00  0.00    +0.000 A 
ATOM     14  C   UNL     1      -3.967  -0.378  -0.631  0.00  0.00    +0.000 A 
ENDROOT
BRANCH   8  15
ATOM     15  N   UNL     1       1.890  -0.041   0.831  0.00  0.00    +0.000 NA
BRANCH  15  16
ATOM     16  C   UNL     1       2.997  -0.574   1.603  0.00  0.00    +0.000 C 
BRANCH  16  17
ATOM     17  C   UNL     1       4.203   0.471   1.094  0.00  0.00    +0.000 C 
ATOM     18  C   UNL     1       5.401  -0.673   1.342  0.00  0.00    +0.000 C 
ATOM     19  C   UNL     1       6.208  -0.409   0.076  0.00  0.00    +0.000 C 
ATOM     20  C   UNL     1       5.295   0.401  -0.809  0.00  0.00    +0.000 C 
ATOM     21  O   UNL     1       4.033   0.037  -0.383  0.00  0.00    +0.000 OA
ENDBRANCH  16  17
ENDBRANCH  15  16
ENDBRANCH   8  15
TORSDOF 3
