REMARK  Name = 
REMARK  3 active torsions:
REMARK  status: ('A' for Active; 'I' for Inactive)
REMARK    1  A    between atoms: C_2  and  C_3
REMARK    2  A    between atoms: C_3  and  C_4
REMARK    3  A    between atoms: C_10  and  C_11
REMARK                            x       y       z     vdW  Elec       q    Type
REMARK                         _______ _______ _______ _____ _____    ______ ____
ROOT
ATOM      1  C   UNL     1       3.594  -0.691   1.052  0.00  0.00    +0.000 A 
ATOM      2  C   UNL     1       2.480  -0.585   1.824  0.00  0.00    +0.000 A 
ATOM      3  C   UNL     1       1.304  -0.346   1.228  0.00  0.00    +0.000 A 
ATOM      4  C   UNL     1       1.289  -0.222  -0.126  0.00  0.00    +0.000 A 
ATOM      5  S   UNL     1       2.963  -0.449  -0.516  0.00  0.00    +0.000 S 
ATOM      6  N   UNL     1       0.066   0.020  -0.820  0.00  0.00    +0.000 NA
ATOM      7  C   UNL     1      -0.926   1.049  -0.113  0.00  0.00    +0.000 C 
ATOM      8  N   UNL     1      -1.152   0.060   1.153  0.00  0.00    +0.000 NA
ATOM      9  C   UNL     1      -0.014  -0.192   1.898  0.00  0.00    +0.000 C 
ATOM     10  O   UNL     1      -0.132  -0.287   3.151  0.00  0.00    +0.000 OA
ENDROOT
BRANCH   7  11
ATOM     11  C   UNL     1      -2.231   0.543  -0.905  0.00  0.00    +0.000 A 
ATOM     12  C   UNL     1      -3.039   1.537  -1.401  0.00  0.00    +0.000 A 
ATOM     13  C   UNL     1      -4.197   1.164  -2.104  0.00  0.00    +0.000 A 
ATOM     14  C   UNL     1      -4.493  -0.169  -2.278  0.00  0.00    +0.000 A 
ATOM     15  C   UNL     1      -5.733  -0.590  -3.030  0.00  0.00    +0.000 C 
ATOM     16  C   UNL     1      -3.634  -1.099  -1.751  0.00  0.00    +0.000 A 
ATOM     17  C   UNL     1      -2.494  -0.749  -1.059  0.00  0.00    +0.000 A 
ENDBRANCH   7  11
BRANCH   1  18
ATOM     18  C   UNL     1       5.003  -0.954   1.512  0.00  0.00    +0.000 C 
BRANCH  18  20
ATOM     19  C   UNL     1       5.665   1.154   0.495  0.00  0.00    +0.000 C 
ATOM     20  C   UNL     1       5.682   0.383   1.789  0.00  0.00    +0.000 C 
ENDBRANCH  18  20
ENDBRANCH   1  18
TORSDOF 3
