REMARK  Name = 
REMARK  2 active torsions:
REMARK  status: ('A' for Active; 'I' for Inactive)
REMARK    1  A    between atoms: C_4  and  S_5
REMARK    2  A    between atoms: S_5  and  C_6
REMARK                            x       y       z     vdW  Elec       q    Type
REMARK                         _______ _______ _______ _____ _____    ______ ____
ROOT
ATOM      1  N   UNL     1       2.491  -3.394  -0.701  0.00  0.00    +0.000 NA
ATOM      2  C   UNL     1       1.981  -2.068  -0.763  0.00  0.00    +0.000 A 
ATOM      3  N   UNL     1       0.753  -1.828  -1.284  0.00  0.00    +0.000 NA
ATOM      4  C   UNL     1       0.245  -0.588  -1.357  0.00  0.00    +0.000 A 
ATOM      5  C   UNL     1       1.033   0.447  -0.873  0.00  0.00    +0.000 A 
ATOM      6  C   UNL     1       2.285   0.225  -0.339  0.00  0.00    +0.000 A 
ATOM      7  N   UNL     1       3.099   1.264   0.157  0.00  0.00    +0.000 N 
ATOM      8  C   UNL     1       2.751   2.660   0.175  0.00  0.00    +0.000 C 
ATOM      9  C   UNL     1       3.220   3.087   1.548  0.00  0.00    +0.000 C 
ATOM     10  C   UNL     1       4.384   2.165   1.844  0.00  0.00    +0.000 C 
ATOM     11  C   UNL     1       4.412   1.145   0.731  0.00  0.00    +0.000 C 
ATOM     12  N   UNL     1       2.736  -1.047  -0.296  0.00  0.00    +0.000 NA
ENDROOT
BRANCH   4  13
ATOM     13  S   UNL     1      -1.345  -0.212  -2.023  0.00  0.00    +0.000 S 
BRANCH  13  14
ATOM     14  C   UNL     1      -2.631  -0.252  -0.797  0.00  0.00    +0.000 A 
ATOM     15  C   UNL     1      -2.428  -0.541   0.525  0.00  0.00    +0.000 A 
ATOM     16  C   UNL     1      -3.495  -0.551   1.424  0.00  0.00    +0.000 A 
ATOM     17  C   UNL     1      -4.787  -0.270   1.009  0.00  0.00    +0.000 A 
ATOM     18  F   UNL     1      -5.798  -0.290   1.913  0.00  0.00    +0.000 F 
ATOM     19  C   UNL     1      -4.990   0.021  -0.324  0.00  0.00    +0.000 A 
ATOM     20  C   UNL     1      -3.916   0.026  -1.204  0.00  0.00    +0.000 A 
ENDBRANCH  13  14
ENDBRANCH   4  13
TORSDOF 2
