REMARK  Name = 
REMARK  3 active torsions:
REMARK  status: ('A' for Active; 'I' for Inactive)
REMARK    1  A    between atoms: C_3  and  C_4
REMARK    2  A    between atoms: C_7  and  C_8
REMARK    3  A    between atoms: C_11  and  C_12
REMARK                            x       y       z     vdW  Elec       q    Type
REMARK                         _______ _______ _______ _____ _____    ______ ____
ROOT
ATOM      1  C   UNL     1      -3.141   1.027  -1.747  0.00  0.00    +0.000 C 
ATOM      2  C   UNL     1      -2.482   0.873  -0.391  0.00  0.00    +0.000 C 
ATOM      3  C   UNL     1      -2.002  -0.272  -0.144  0.00  0.00    +0.000 C 
ATOM      4  C   UNL     1      -1.265  -0.696   1.194  0.00  0.00    +0.000 C 
ATOM      5  N   UNL     1      -1.281   0.549   2.054  0.00  0.00    +0.000 NA
ATOM      6  C   UNL     1      -1.815   1.768   1.739  0.00  0.00    +0.000 C 
ATOM      7  S   UNL     1      -1.708   2.990   2.857  0.00  0.00    +0.000 S 
ATOM      8  N   UNL     1      -2.438   1.972   0.498  0.00  0.00    +0.000 NA
ENDROOT
BRANCH   4   9
ATOM      9  C   UNL     1       0.225  -0.524   0.591  0.00  0.00    +0.000 A 
ATOM     10  C   UNL     1       1.013  -1.630   0.569  0.00  0.00    +0.000 A 
ATOM     11  C   UNL     1       2.290  -1.437   0.040  0.00  0.00    +0.000 A 
ATOM     12  C   UNL     1       2.724  -0.215  -0.426  0.00  0.00    +0.000 A 
ATOM     13  C   UNL     1       1.862   0.853  -0.366  0.00  0.00    +0.000 A 
ATOM     14  C   UNL     1       0.599   0.684   0.150  0.00  0.00    +0.000 A 
BRANCH  12  15
ATOM     15  C   UNL     1       4.117  -0.060  -0.988  0.00  0.00    +0.000 C 
ATOM     16  C   UNL     1       4.992   0.619   0.073  0.00  0.00    +0.000 C 
ATOM     17  C   UNL     1       4.683  -1.401  -1.377  0.00  0.00    +0.000 C 
ENDBRANCH  12  15
ENDBRANCH   4   9
BRANCH   3  18
ATOM     18  C   UNL     1      -2.067  -1.405  -1.103  0.00  0.00    +0.000 C 
ATOM     19  N   UNL     1      -2.705  -1.161  -2.349  0.00  0.00    +0.000 NA
ATOM     20  O   UNL     1      -1.600  -2.535  -0.874  0.00  0.00    +0.000 OA
ENDBRANCH   3  18
TORSDOF 3
