REMARK  Name = 
REMARK  4 active torsions:
REMARK  status: ('A' for Active; 'I' for Inactive)
REMARK    1  A    between atoms: C_2  and  O_3
REMARK    2  A    between atoms: O_3  and  C_4
REMARK    3  A    between atoms: C_4  and  C_6
REMARK    4  A    between atoms: C_14  and  C_15
REMARK                            x       y       z     vdW  Elec       q    Type
REMARK                         _______ _______ _______ _____ _____    ______ ____
ROOT
ATOM      1  C   UNL     1       0.783  -0.015  -0.510  0.00  0.00    +0.000 C 
ATOM      2  C   UNL     1       1.577  -0.822   0.079  0.00  0.00    +0.000 C 
ATOM      3  C   UNL     1       2.864  -0.332   0.750  0.00  0.00    +0.000 C 
ATOM      4  N   UNL     1       1.385  -2.226   0.189  0.00  0.00    +0.000 N 
ATOM      5  C   UNL     1       2.333  -3.060   0.871  0.00  0.00    +0.000 C 
ATOM      6  C   UNL     1       0.213  -2.743  -0.411  0.00  0.00    +0.000 C 
ATOM      7  O   UNL     1       0.002  -4.002  -0.335  0.00  0.00    +0.000 OA
ATOM      8  N   UNL     1      -0.653  -1.919  -1.044  0.00  0.00    +0.000 NA
ATOM      9  C   UNL     1      -0.511  -0.448  -1.194  0.00  0.00    +0.000 C 
ENDROOT
BRANCH   9  10
ATOM     10  C   UNL     1      -1.626   0.004  -0.120  0.00  0.00    +0.000 A 
ATOM     11  C   UNL     1      -1.501  -0.224   1.177  0.00  0.00    +0.000 A 
ATOM     12  C   UNL     1      -2.503   0.196   2.029  0.00  0.00    +0.000 A 
ATOM     13  C   UNL     1      -3.614   0.846   1.517  0.00  0.00    +0.000 A 
ATOM     14  C   UNL     1      -3.709   1.065   0.171  0.00  0.00    +0.000 A 
ATOM     15  C   UNL     1      -2.689   0.635  -0.681  0.00  0.00    +0.000 A 
ATOM     16  O   UNL     1      -2.818   0.876  -2.064  0.00  0.00    +0.000 OA
ENDBRANCH   9  10
BRANCH   1  17
ATOM     17  C   UNL     1       1.125   1.423  -0.538  0.00  0.00    +0.000 C 
ATOM     18  O   UNL     1       0.381   2.267  -1.103  0.00  0.00    +0.000 OA
BRANCH  17  19
ATOM     19  O   UNL     1       2.273   1.881   0.057  0.00  0.00    +0.000 OA
BRANCH  19  21
ATOM     20  C   UNL     1       3.998   3.365   0.825  0.00  0.00    +0.000 C 
ATOM     21  C   UNL     1       2.688   3.229   0.085  0.00  0.00    +0.000 C 
ENDBRANCH  19  21
ENDBRANCH  17  19
ENDBRANCH   1  17
TORSDOF 4
