REMARK  Name = 
REMARK  5 active torsions:
REMARK  status: ('A' for Active; 'I' for Inactive)
REMARK    1  A    between atoms: C_2  and  O_3
REMARK    2  A    between atoms: O_3  and  C_4
REMARK    3  A    between atoms: C_7  and  C_8
REMARK    4  A    between atoms: C_8  and  C_10
REMARK    5  A    between atoms: C_13  and  C_14
REMARK                            x       y       z     vdW  Elec       q    Type
REMARK                         _______ _______ _______ _____ _____    ______ ____
ROOT
ATOM      1  C   UNL     1      -0.233   1.312   0.169  0.00  0.00    +0.000 A 
ATOM      2  C   UNL     1       0.894   2.089   0.347  0.00  0.00    +0.000 A 
ATOM      3  C   UNL     1       2.145   1.518   0.305  0.00  0.00    +0.000 A 
ATOM      4  C   UNL     1       2.263   0.178   0.087  0.00  0.00    +0.000 A 
ATOM      5  C   UNL     1       1.208  -0.602  -0.088  0.00  0.00    +0.000 A 
ATOM      6  C   UNL     1      -0.049  -0.038  -0.048  0.00  0.00    +0.000 A 
ENDROOT
BRANCH   6   7
ATOM      7  C   UNL     1      -1.261  -0.840  -0.233  0.00  0.00    +0.000 A 
ATOM      8  C   UNL     1      -2.562  -0.396  -0.215  0.00  0.00    +0.000 A 
ATOM      9  C   UNL     1      -3.361  -1.482  -0.430  0.00  0.00    +0.000 A 
ATOM     10  N   UNL     1      -4.781  -1.411  -0.478  0.00  0.00    +0.000 NA
ATOM     11  O   UNL     1      -2.573  -2.513  -0.568  0.00  0.00    +0.000 OA
ATOM     12  N   UNL     1      -1.334  -2.168  -0.458  0.00  0.00    +0.000 NA
ENDBRANCH   6   7
BRANCH   4  13
ATOM     13  C   UNL     1       3.753  -0.416   0.052  0.00  0.00    +0.000 C 
ATOM     14  C   UNL     1       3.560  -1.113  -1.435  0.00  0.00    +0.000 C 
BRANCH  13  15
ATOM     15  C   UNL     1       3.414  -1.826   0.851  0.00  0.00    +0.000 C 
ATOM     16  C   UNL     1       2.893  -1.388   2.180  0.00  0.00    +0.000 C 
ENDBRANCH  13  15
ENDBRANCH   4  13
BRANCH   1  17
ATOM     17  O   UNL     1      -1.508   1.877   0.209  0.00  0.00    +0.000 OA
BRANCH  17  19
ATOM     18  C   UNL     1      -0.865   3.960  -0.682  0.00  0.00    +0.000 C 
ATOM     19  C   UNL     1      -1.604   3.258   0.435  0.00  0.00    +0.000 C 
ENDBRANCH  17  19
ENDBRANCH   1  17
TORSDOF 5
