REMARK  Name = 
REMARK  3 active torsions:
REMARK  status: ('A' for Active; 'I' for Inactive)
REMARK    1  A    between atoms: C_2  and  C_3
REMARK    2  A    between atoms: C_3  and  C_4
REMARK    3  A    between atoms: C_4  and  N_5
REMARK                            x       y       z     vdW  Elec       q    Type
REMARK                         _______ _______ _______ _____ _____    ______ ____
ROOT
ATOM      1  N   UNL     1       1.562   0.601   1.033  0.00  0.00    +0.000 N 
ATOM      2  C   UNL     1       1.216  -0.773   1.005  0.00  0.00    +0.000 C 
ATOM      3  O   UNL     1       2.095  -1.610   1.324  0.00  0.00    +0.000 OA
ATOM      4  C   UNL     1      -0.147  -1.159   0.606  0.00  0.00    +0.000 A 
ATOM      5  C   UNL     1      -0.505  -2.474   0.570  0.00  0.00    +0.000 A 
ATOM      6  C   UNL     1      -1.762  -2.865   0.204  0.00  0.00    +0.000 A 
ATOM      7  C   UNL     1      -2.716  -1.944  -0.143  0.00  0.00    +0.000 A 
ATOM      8  C   UNL     1      -2.368  -0.596  -0.113  0.00  0.00    +0.000 A 
ATOM      9  C   UNL     1      -3.313   0.330  -0.458  0.00  0.00    +0.000 A 
ATOM     10  N   UNL     1      -4.627  -0.081  -0.841  0.00  0.00    +0.000 NA
ATOM     11  C   UNL     1      -2.993   1.684  -0.437  0.00  0.00    +0.000 A 
ATOM     12  C   UNL     1      -1.715   2.060  -0.063  0.00  0.00    +0.000 A 
ATOM     13  C   UNL     1      -0.756   1.149   0.285  0.00  0.00    +0.000 A 
ATOM     14  C   UNL     1      -1.084  -0.207   0.261  0.00  0.00    +0.000 A 
ATOM     15  C   UNL     1       0.601   1.587   0.679  0.00  0.00    +0.000 C 
ATOM     16  O   UNL     1       0.913   2.808   0.706  0.00  0.00    +0.000 OA
ENDROOT
BRANCH   1  17
ATOM     17  C   UNL     1       2.900   0.972   1.425  0.00  0.00    +0.000 C 
BRANCH  17  18
ATOM     18  C   UNL     1       3.861   1.051   0.284  0.00  0.00    +0.000 C 
BRANCH  18  20
ATOM     19  C   UNL     1       4.912  -0.223  -1.542  0.00  0.00    +0.000 C 
ATOM     20  C   UNL     1       3.927  -0.311  -0.376  0.00  0.00    +0.000 C 
ENDBRANCH  18  20
ENDBRANCH  17  18
ENDBRANCH   1  17
TORSDOF 3
