REMARK  Name = 
REMARK  3 active torsions:
REMARK  status: ('A' for Active; 'I' for Inactive)
REMARK    1  A    between atoms: N_2  and  C_4
REMARK    2  A    between atoms: C_7  and  N_8
REMARK    3  A    between atoms: N_8  and  C_9
REMARK                            x       y       z     vdW  Elec       q    Type
REMARK                         _______ _______ _______ _____ _____    ______ ____
ROOT
ATOM      1  C   UNL     1      -2.854   0.686  -0.519  0.00  0.00    +0.000 A 
ATOM      2  C   UNL     1      -1.729   1.461  -0.720  0.00  0.00    +0.000 A 
ATOM      3  C   UNL     1      -0.501   0.920  -0.364  0.00  0.00    +0.000 A 
ATOM      4  C   UNL     1      -0.386  -0.345   0.172  0.00  0.00    +0.000 A 
ATOM      5  C   UNL     1      -1.536  -1.090   0.357  0.00  0.00    +0.000 A 
ATOM      6  N   UNL     1      -1.445  -2.327   0.879  0.00  0.00    +0.000 NA
ATOM      7  C   UNL     1      -2.515  -3.112   1.091  0.00  0.00    +0.000 A 
ATOM      8  C   UNL     1      -3.752  -2.608   0.749  0.00  0.00    +0.000 A 
ATOM      9  C   UNL     1      -3.892  -1.346   0.211  0.00  0.00    +0.000 A 
ATOM     10  C   UNL     1      -2.764  -0.573   0.012  0.00  0.00    +0.000 A 
ENDROOT
BRANCH   1  12
ATOM     11  O   UNL     1      -4.258   2.457  -0.861  0.00  0.00    +0.000 OA
ATOM     12  N   UNL     1      -4.105   1.230  -0.878  0.00  0.00    +0.000 N 
ATOM     13  O   UNL     1      -5.139   0.421  -1.241  0.00  0.00    +0.000 OA
ENDBRANCH   1  12
BRANCH   4  14
ATOM     14  N   UNL     1       0.867  -0.905   0.538  0.00  0.00    +0.000 NA
BRANCH  14  15
ATOM     15  C   UNL     1       2.093  -0.163   0.363  0.00  0.00    +0.000 C 
ATOM     16  C   UNL     1       3.234  -1.031   0.843  0.00  0.00    +0.000 C 
ATOM     17  C   UNL     1       4.545  -0.386   0.545  0.00  0.00    +0.000 C 
ATOM     18  C   UNL     1       4.626  -0.198  -0.969  0.00  0.00    +0.000 C 
ATOM     19  C   UNL     1       3.539   0.748  -1.426  0.00  0.00    +0.000 C 
ATOM     20  C   UNL     1       3.615   2.076  -0.719  0.00  0.00    +0.000 C 
ATOM     21  C   UNL     1       3.424   1.830   0.770  0.00  0.00    +0.000 C 
ATOM     22  C   UNL     1       4.603   0.974   1.219  0.00  0.00    +0.000 C 
ATOM     23  C   UNL     1       2.118   1.149   1.078  0.00  0.00    +0.000 C 
ATOM     24  C   UNL     1       2.214   0.132  -1.128  0.00  0.00    +0.000 C 
ENDBRANCH  14  15
ENDBRANCH   4  14
TORSDOF 3
