REMARK  Name = 
REMARK  2 active torsions:
REMARK  status: ('A' for Active; 'I' for Inactive)
REMARK    1  A    between atoms: C_6  and  C_7
REMARK    2  A    between atoms: C_7  and  C_8
REMARK                            x       y       z     vdW  Elec       q    Type
REMARK                         _______ _______ _______ _____ _____    ______ ____
ROOT
ATOM      1  C   UNL     1       1.218   0.960  -0.075  0.00  0.00    +0.000 C 
ATOM      2  C   UNL     1       1.089  -0.279  -1.131  0.00  0.00    +0.000 C 
ATOM      3  C   UNL     1       0.564  -1.465  -0.404  0.00  0.00    +0.000 C 
ATOM      4  C   UNL     1      -0.901  -1.230  -0.293  0.00  0.00    +0.000 A 
ATOM      5  C   UNL     1      -1.862  -2.087  -0.715  0.00  0.00    +0.000 A 
ATOM      6  C   UNL     1      -3.181  -1.723  -0.536  0.00  0.00    +0.000 A 
ATOM      7  C   UNL     1      -3.499  -0.513   0.061  0.00  0.00    +0.000 A 
ATOM      8  C   UNL     1      -4.821  -0.114   0.260  0.00  0.00    +0.000 A 
ATOM      9  C   UNL     1      -5.081   1.112   0.867  0.00  0.00    +0.000 A 
ATOM     10  C   UNL     1      -4.080   1.958   1.284  0.00  0.00    +0.000 A 
ATOM     11  C   UNL     1      -2.764   1.577   1.093  0.00  0.00    +0.000 A 
ATOM     12  C   UNL     1      -2.543   0.361   0.491  0.00  0.00    +0.000 A 
ATOM     13  C   UNL     1      -1.208  -0.034   0.296  0.00  0.00    +0.000 A 
ATOM     14  C   UNL     1      -0.139   0.806   0.712  0.00  0.00    +0.000 C 
ATOM     15  O   UNL     1      -0.241   1.488   1.764  0.00  0.00    +0.000 OA
ENDROOT
BRANCH   1  16
ATOM     16  C   UNL     1       2.121   0.097   0.996  0.00  0.00    +0.000 C 
BRANCH  16  22
ATOM     17  C   UNL     1       4.544   1.954   0.086  0.00  0.00    +0.000 C 
ATOM     18  C   UNL     1       4.337   0.534  -0.271  0.00  0.00    +0.000 A 
ATOM     19  N   UNL     1       5.122  -0.241  -1.040  0.00  0.00    +0.000 NA
ATOM     20  C   UNL     1       4.578  -1.470  -1.114  0.00  0.00    +0.000 A 
ATOM     21  N   UNL     1       3.451  -1.456  -0.389  0.00  0.00    +0.000 NA
ATOM     22  C   UNL     1       3.295  -0.235   0.131  0.00  0.00    +0.000 A 
ENDBRANCH  16  22
ENDBRANCH   1  16
TORSDOF 2
