REMARK  Name = 
REMARK  4 active torsions:
REMARK  status: ('A' for Active; 'I' for Inactive)
REMARK    1  A    between atoms: O_2  and  C_3
REMARK    2  A    between atoms: C_3  and  C_5
REMARK    3  A    between atoms: N_8  and  C_9
REMARK    4  A    between atoms: C_9  and  C_10
REMARK                            x       y       z     vdW  Elec       q    Type
REMARK                         _______ _______ _______ _____ _____    ______ ____
ROOT
ATOM      1  C   UNL     1      -1.230   0.837  -0.308  0.00  0.00    +0.000 A 
ATOM      2  C   UNL     1      -0.009   1.034  -0.929  0.00  0.00    +0.000 A 
ATOM      3  C   UNL     1       0.492   2.280  -1.576  0.00  0.00    +0.000 C 
ATOM      4  N   UNL     1       0.708  -0.109  -0.869  0.00  0.00    +0.000 N 
ATOM      5  C   UNL     1      -0.060  -1.013  -0.216  0.00  0.00    +0.000 A 
ATOM      6  C   UNL     1       0.162  -2.333   0.127  0.00  0.00    +0.000 A 
ATOM      7  C   UNL     1      -0.769  -3.087   0.804  0.00  0.00    +0.000 A 
ATOM      8  C   UNL     1      -1.983  -2.546   1.173  0.00  0.00    +0.000 A 
ATOM      9  O   UNL     1      -2.944  -3.294   1.861  0.00  0.00    +0.000 OA
ATOM     10  C   UNL     1      -2.204  -1.229   0.829  0.00  0.00    +0.000 A 
ATOM     11  C   UNL     1      -1.274  -0.462   0.149  0.00  0.00    +0.000 A 
ENDROOT
BRANCH   1  12
ATOM     12  C   UNL     1      -2.312   1.794  -0.139  0.00  0.00    +0.000 C 
ATOM     13  O   UNL     1      -2.325   2.512   0.889  0.00  0.00    +0.000 OA
BRANCH  12  15
ATOM     14  C   UNL     1      -4.388   2.899  -0.874  0.00  0.00    +0.000 C 
ATOM     15  O   UNL     1      -3.339   1.962  -1.052  0.00  0.00    +0.000 OA
ENDBRANCH  12  15
ENDBRANCH   1  12
BRANCH   4  16
ATOM     16  C   UNL     1       2.049  -0.360  -1.393  0.00  0.00    +0.000 C 
BRANCH  16  17
ATOM     17  C   UNL     1       3.092  -0.049  -0.388  0.00  0.00    +0.000 A 
ATOM     18  C   UNL     1       3.673   1.190  -0.263  0.00  0.00    +0.000 A 
ATOM     19  C   UNL     1       4.575   1.060   0.770  0.00  0.00    +0.000 A 
ATOM     20  C   UNL     1       4.488  -0.227   1.202  0.00  0.00    +0.000 A 
ATOM     21  O   UNL     1       3.598  -0.860   0.494  0.00  0.00    +0.000 OA
ENDBRANCH  16  17
ENDBRANCH   4  16
TORSDOF 4
