REMARK  Name = 
REMARK  2 active torsions:
REMARK  status: ('A' for Active; 'I' for Inactive)
REMARK    1  A    between atoms: C_6  and  N_7
REMARK    2  A    between atoms: C_8  and  C_10
REMARK                            x       y       z     vdW  Elec       q    Type
REMARK                         _______ _______ _______ _____ _____    ______ ____
ROOT
ATOM      1  N   UNL     1      -0.099   0.139  -0.328  0.00  0.00    +0.000 NA
ATOM      2  C   UNL     1      -0.986   0.282   0.728  0.00  0.00    +0.000 C 
ATOM      3  O   UNL     1      -0.578   0.221   1.909  0.00  0.00    +0.000 OA
ENDROOT
BRANCH   1   9
ATOM      4  C   UNL     1       5.497  -0.806  -0.498  0.00  0.00    +0.000 C 
ATOM      5  C   UNL     1       4.054  -0.558  -0.374  0.00  0.00    +0.000 A 
ATOM      6  C   UNL     1       3.375  -0.242  -1.529  0.00  0.00    +0.000 A 
ATOM      7  C   UNL     1       2.009  -0.016  -1.436  0.00  0.00    +0.000 A 
ATOM      8  O   UNL     1       1.281   0.311  -2.604  0.00  0.00    +0.000 OA
ATOM      9  C   UNL     1       1.295  -0.090  -0.251  0.00  0.00    +0.000 A 
ATOM     10  C   UNL     1       1.994  -0.408   0.900  0.00  0.00    +0.000 A 
ATOM     11  C   UNL     1       3.346  -0.636   0.825  0.00  0.00    +0.000 A 
ATOM     12  C   UNL     1       4.145  -1.010   2.044  0.00  0.00    +0.000 C 
ENDBRANCH   1   9
BRANCH   2  13
ATOM     13  C   UNL     1      -2.442   0.508   0.554  0.00  0.00    +0.000 A 
ATOM     14  C   UNL     1      -2.922   1.794   0.856  0.00  0.00    +0.000 A 
ATOM     15  C   UNL     1      -4.223   2.089   0.675  0.00  0.00    +0.000 A 
ATOM     16  C   UNL     1      -5.105   1.167   0.201  0.00  0.00    +0.000 A 
ATOM     17  C   UNL     1      -4.654  -0.130  -0.112  0.00  0.00    +0.000 A 
ATOM     18  C   UNL     1      -3.310  -0.427   0.078  0.00  0.00    +0.000 A 
ATOM     19 BR   UNL     1      -2.676  -2.189  -0.309  0.00  0.00    +0.000 Br
ENDBRANCH   2  13
TORSDOF 2
