REMARK  Name = 
REMARK  5 active torsions:
REMARK  status: ('A' for Active; 'I' for Inactive)
REMARK    1  A    between atoms: N_2  and  C_4
REMARK    2  A    between atoms: C_6  and  N_7
REMARK    3  A    between atoms: N_7  and  C_8
REMARK    4  A    between atoms: C_8  and  N_10
REMARK    5  A    between atoms: N_10  and  C_11
REMARK                            x       y       z     vdW  Elec       q    Type
REMARK                         _______ _______ _______ _____ _____    ______ ____
ROOT
ATOM      1  C   UNL     1       3.236   0.278   0.614  0.00  0.00    +0.000 A 
ATOM      2  C   UNL     1       2.470   0.471  -0.524  0.00  0.00    +0.000 A 
ATOM      3  C   UNL     1       1.091   0.439  -0.481  0.00  0.00    +0.000 A 
ATOM      4  C   UNL     1       0.495   0.208   0.730  0.00  0.00    +0.000 A 
ATOM      5  C   UNL     1       1.228   0.012   1.883  0.00  0.00    +0.000 A 
ATOM      6  C   UNL     1       2.607   0.047   1.822  0.00  0.00    +0.000 A 
ATOM      7  F   UNL     1       3.373  -0.138   2.916  0.00  0.00    +0.000 F 
ENDROOT
BRANCH   1   9
ATOM      8  O   UNL     1       5.284   0.723   1.526  0.00  0.00    +0.000 OA
ATOM      9  N   UNL     1       4.646   0.315   0.549  0.00  0.00    +0.000 N 
ATOM     10  O   UNL     1       5.288  -0.095  -0.574  0.00  0.00    +0.000 OA
ENDBRANCH   1   9
BRANCH   3  11
ATOM     11  N   UNL     1       0.394   0.646  -1.690  0.00  0.00    +0.000 NA
BRANCH  11  12
ATOM     12  C   UNL     1      -1.012   0.645  -1.821  0.00  0.00    +0.000 C 
ATOM     13  S   UNL     1      -1.659   0.901  -3.287  0.00  0.00    +0.000 S 
BRANCH  12  14
ATOM     14  N   UNL     1      -1.834   0.430  -0.720  0.00  0.00    +0.000 NA
BRANCH  14  15
ATOM     15  C   UNL     1      -3.256   0.401  -0.701  0.00  0.00    +0.000 C 
ATOM     16  C   UNL     1      -3.889  -0.641  -1.560  0.00  0.00    +0.000 C 
ATOM     17  C   UNL     1      -5.236  -1.054  -1.005  0.00  0.00    +0.000 C 
ATOM     18  C   UNL     1      -5.123  -1.587   0.403  0.00  0.00    +0.000 C 
ATOM     19  C   UNL     1      -4.238  -0.742   1.274  0.00  0.00    +0.000 C 
ATOM     20  C   UNL     1      -3.865   0.573   0.648  0.00  0.00    +0.000 C 
ENDBRANCH  14  15
ENDBRANCH  12  14
ENDBRANCH  11  12
ENDBRANCH   3  11
TORSDOF 5
