REMARK  Name = 
REMARK  3 active torsions:
REMARK  status: ('A' for Active; 'I' for Inactive)
REMARK    1  A    between atoms: N_7  and  C_8
REMARK    2  A    between atoms: C_8  and  N_9
REMARK    3  A    between atoms: N_9  and  C_10
REMARK                            x       y       z     vdW  Elec       q    Type
REMARK                         _______ _______ _______ _____ _____    ______ ____
ROOT
ATOM      1  N   UNL     1       0.259  -0.430  -1.512  0.00  0.00    +0.000 NA
ENDROOT
BRANCH   1   2
ATOM      2  C   UNL     1       1.029   0.259  -0.570  0.00  0.00    +0.000 A 
ATOM      3  C   UNL     1       0.636   1.412   0.058  0.00  0.00    +0.000 A 
ATOM      4  C   UNL     1       1.450   2.050   0.985  0.00  0.00    +0.000 A 
ATOM      5  C   UNL     1       2.700   1.534   1.308  0.00  0.00    +0.000 A 
ATOM      6  C   UNL     1       3.100   0.369   0.676  0.00  0.00    +0.000 A 
ATOM      7  C   UNL     1       4.355  -0.148   1.002  0.00  0.00    +0.000 A 
ATOM      8  C   UNL     1       4.796  -1.306   0.398  0.00  0.00    +0.000 A 
ATOM      9  C   UNL     1       3.962  -1.902  -0.510  0.00  0.00    +0.000 A 
ATOM     10  C   UNL     1       2.718  -1.396  -0.837  0.00  0.00    +0.000 A 
ATOM     11  C   UNL     1       2.283  -0.236  -0.228  0.00  0.00    +0.000 A 
ENDBRANCH   1   2
BRANCH   1  12
ATOM     12  C   UNL     1      -1.021  -0.168  -2.034  0.00  0.00    +0.000 C 
BRANCH  12  19
ATOM     13  C   UNL     1      -2.331   0.194   2.096  0.00  0.00    +0.000 C 
ATOM     14  C   UNL     1      -3.269   0.376   0.947  0.00  0.00    +0.000 C 
ATOM     15  C   UNL     1      -4.485   1.199   1.280  0.00  0.00    +0.000 C 
ATOM     16  N   UNL     1      -3.727  -0.919   0.401  0.00  0.00    +0.000 NA
ATOM     17  C   UNL     1      -2.798  -1.318  -0.597  0.00  0.00    +0.000 C 
ATOM     18  O   UNL     1      -2.615  -2.483  -1.073  0.00  0.00    +0.000 OA
ATOM     19  N   UNL     1      -2.059  -0.167  -1.014  0.00  0.00    +0.000 N 
ATOM     20  C   UNL     1      -2.551   0.932  -0.259  0.00  0.00    +0.000 C 
ATOM     21  O   UNL     1      -2.431   2.148  -0.517  0.00  0.00    +0.000 OA
ENDBRANCH  12  19
ENDBRANCH   1  12
TORSDOF 3
