REMARK  Name = 
REMARK  5 active torsions:
REMARK  status: ('A' for Active; 'I' for Inactive)
REMARK    1  A    between atoms: C_2  and  C_3
REMARK    2  A    between atoms: N_7  and  C_8
REMARK    3  A    between atoms: C_8  and  N_10
REMARK    4  A    between atoms: N_10  and  C_11
REMARK    5  A    between atoms: C_11  and  C_12
REMARK                            x       y       z     vdW  Elec       q    Type
REMARK                         _______ _______ _______ _____ _____    ______ ____
ROOT
ATOM      1  C   UNL     1       0.674  -0.112   0.992  0.00  0.00    +0.000 C 
ATOM      2  S   UNL     1       1.076  -0.505   2.534  0.00  0.00    +0.000 S 
ENDROOT
BRANCH   1   7
ATOM      3  C   UNL     1       3.607   1.281  -0.755  0.00  0.00    +0.000 C 
ATOM      4  C   UNL     1       3.652   0.270  -2.049  0.00  0.00    +0.000 C 
ATOM      5  C   UNL     1       2.246  -0.233  -2.227  0.00  0.00    +0.000 C 
ATOM      6  C   UNL     1       1.270   0.502  -1.309  0.00  0.00    +0.000 C 
ATOM      7  N   UNL     1       1.663   0.159   0.041  0.00  0.00    +0.000 N 
ATOM      8  C   UNL     1       3.091   0.127   0.291  0.00  0.00    +0.000 C 
BRANCH   3  10
ATOM      9  O   UNL     1       5.445  -0.212  -0.148  0.00  0.00    +0.000 OA
ATOM     10  C   UNL     1       5.194   1.097  -0.403  0.00  0.00    +0.000 C 
ENDBRANCH   3  10
ENDBRANCH   1   7
BRANCH   1  11
ATOM     11  N   UNL     1      -0.687  -0.052   0.639  0.00  0.00    +0.000 NA
BRANCH  11  12
ATOM     12  C   UNL     1      -1.777  -0.315   1.549  0.00  0.00    +0.000 C 
BRANCH  12  13
ATOM     13  C   UNL     1      -3.054  -0.153   0.813  0.00  0.00    +0.000 A 
ATOM     14  C   UNL     1      -3.636   1.101   0.803  0.00  0.00    +0.000 A 
ATOM     15  C   UNL     1      -4.824   1.273   0.125  0.00  0.00    +0.000 A 
ATOM     16  C   UNL     1      -5.432   0.237  -0.532  0.00  0.00    +0.000 A 
ATOM     17  C   UNL     1      -4.846  -1.013  -0.518  0.00  0.00    +0.000 A 
ATOM     18  C   UNL     1      -3.664  -1.200   0.152  0.00  0.00    +0.000 A 
ENDBRANCH  12  13
ENDBRANCH  11  12
ENDBRANCH   1  11
TORSDOF 5
