REMARK  Name = 
REMARK  3 active torsions:
REMARK  status: ('A' for Active; 'I' for Inactive)
REMARK    1  A    between atoms: C_2  and  C_14
REMARK    2  A    between atoms: N_3  and  C_4
REMARK    3  A    between atoms: C_17  and  N_18
REMARK                            x       y       z     vdW  Elec       q    Type
REMARK                         _______ _______ _______ _____ _____    ______ ____
ROOT
ATOM      1  O   UNL     1       0.201   2.080  -0.563  0.00  0.00    +0.000 OA
ATOM      2  C   UNL     1       0.434   0.890  -0.237  0.00  0.00    +0.000 C 
ATOM      3  N   UNL     1      -0.658   0.045   0.064  0.00  0.00    +0.000 NA
ENDROOT
BRANCH   3   4
ATOM      4  C   UNL     1      -1.974   0.554  -0.008  0.00  0.00    +0.000 A 
ATOM      5  C   UNL     1      -2.163   1.866  -0.371  0.00  0.00    +0.000 A 
ATOM      6  C   UNL     1      -3.413   2.441  -0.466  0.00  0.00    +0.000 A 
ATOM      7  C   UNL     1      -4.492   1.631  -0.175  0.00  0.00    +0.000 A 
ATOM      8  C   UNL     1      -4.330   0.316   0.190  0.00  0.00    +0.000 A 
ATOM      9  C   UNL     1      -3.071  -0.231   0.276  0.00  0.00    +0.000 A 
ATOM     10  C   UNL     1      -2.813  -1.639   0.662  0.00  0.00    +0.000 C 
ATOM     11  C   UNL     1      -4.036  -2.471   0.776  0.00  0.00    +0.000 C 
ATOM     12  C   UNL     1      -5.217  -1.927   0.011  0.00  0.00    +0.000 C 
ATOM     13  C   UNL     1      -5.515  -0.528   0.496  0.00  0.00    +0.000 C 
ENDBRANCH   3   4
BRANCH   2  14
ATOM     14  C   UNL     1       1.823   0.465  -0.193  0.00  0.00    +0.000 A 
ATOM     15  C   UNL     1       2.038  -0.867   0.174  0.00  0.00    +0.000 A 
ATOM     16  C   UNL     1       3.348  -1.282   0.220  0.00  0.00    +0.000 A 
ATOM     17  C   UNL     1       4.389  -0.431  -0.080  0.00  0.00    +0.000 A 
ATOM     18  C   UNL     1       4.146   0.877  -0.439  0.00  0.00    +0.000 A 
ATOM     19  C   UNL     1       2.847   1.312  -0.491  0.00  0.00    +0.000 A 
BRANCH  17  20
ATOM     20  N   UNL     1       5.738  -0.924  -0.014  0.00  0.00    +0.000 N 
ATOM     21  O   UNL     1       5.948  -2.099   0.309  0.00  0.00    +0.000 OA
ATOM     22  O   UNL     1       6.770  -0.079  -0.312  0.00  0.00    +0.000 OA
ENDBRANCH  17  20
ENDBRANCH   2  14
TORSDOF 3
