REMARK  Name = 
REMARK  4 active torsions:
REMARK  status: ('A' for Active; 'I' for Inactive)
REMARK    1  A    between atoms: C_2  and  O_3
REMARK    2  A    between atoms: O_3  and  C_4
REMARK    3  A    between atoms: C_7  and  C_8
REMARK    4  A    between atoms: C_13  and  C_14
REMARK                            x       y       z     vdW  Elec       q    Type
REMARK                         _______ _______ _______ _____ _____    ______ ____
ROOT
ATOM      1  C   UNL     1       0.134   1.133  -0.626  0.00  0.00    +0.000 A 
ATOM      2  C   UNL     1      -1.100   1.649  -0.974  0.00  0.00    +0.000 A 
ATOM      3  C   UNL     1      -2.251   0.908  -0.688  0.00  0.00    +0.000 A 
ATOM      4  C   UNL     1      -2.185  -0.326  -0.077  0.00  0.00    +0.000 A 
ATOM      5  C   UNL     1      -0.951  -0.831   0.263  0.00  0.00    +0.000 A 
ATOM      6  C   UNL     1       0.206  -0.102  -0.012  0.00  0.00    +0.000 A 
ENDROOT
BRANCH   6   7
ATOM      7  C   UNL     1       1.526  -0.611   0.341  0.00  0.00    +0.000 A 
ATOM      8  C   UNL     1       2.752  -0.037   0.132  0.00  0.00    +0.000 A 
ATOM      9  C   UNL     1       3.725  -0.865   0.635  0.00  0.00    +0.000 A 
ATOM     10  N   UNL     1       5.134  -0.654   0.620  0.00  0.00    +0.000 NA
ATOM     11  O   UNL     1       3.075  -1.908   1.133  0.00  0.00    +0.000 OA
ATOM     12  N   UNL     1       1.800  -1.767   0.966  0.00  0.00    +0.000 NA
ENDBRANCH   6   7
BRANCH   4  13
ATOM     13  C   UNL     1      -3.405  -1.109   0.208  0.00  0.00    +0.000 C 
ATOM     14  C   UNL     1      -3.139  -2.195   1.242  0.00  0.00    +0.000 C 
ATOM     15  C   UNL     1      -3.850  -1.847  -1.067  0.00  0.00    +0.000 C 
ATOM     16  C   UNL     1      -4.526  -0.281   0.726  0.00  0.00    +0.000 C 
ENDBRANCH   4  13
BRANCH   1  17
ATOM     17  O   UNL     1       1.328   1.796  -0.869  0.00  0.00    +0.000 OA
BRANCH  17  19
ATOM     18  C   UNL     1       0.459   3.987  -0.588  0.00  0.00    +0.000 C 
ATOM     19  C   UNL     1       1.267   3.060  -1.498  0.00  0.00    +0.000 C 
ENDBRANCH  17  19
ENDBRANCH   1  17
TORSDOF 4
