REMARK  Name = 
REMARK  4 active torsions:
REMARK  status: ('A' for Active; 'I' for Inactive)
REMARK    1  A    between atoms: C_3  and  C_4
REMARK    2  A    between atoms: C_4  and  O_6
REMARK    3  A    between atoms: O_6  and  C_7
REMARK    4  A    between atoms: C_10  and  C_11
REMARK                            x       y       z     vdW  Elec       q    Type
REMARK                         _______ _______ _______ _____ _____    ______ ____
ROOT
ATOM      1  C   UNL     1      -2.497  -0.859  -1.496  0.00  0.00    +0.000 C 
ATOM      2  C   UNL     1      -1.050  -1.306  -1.268  0.00  0.00    +0.000 C 
ATOM      3  C   UNL     1      -0.498  -0.772  -0.221  0.00  0.00    +0.000 C 
ATOM      4  C   UNL     1       0.886  -1.306   0.225  0.00  0.00    +0.000 C 
ATOM      5  N   UNL     1       1.585  -1.689  -0.990  0.00  0.00    +0.000 NA
ATOM      6  C   UNL     1       0.983  -2.273  -2.065  0.00  0.00    +0.000 C 
ATOM      7  S   UNL     1       1.859  -3.192  -3.145  0.00  0.00    +0.000 S 
ATOM      8  N   UNL     1      -0.426  -2.099  -2.276  0.00  0.00    +0.000 NA
ENDROOT
BRANCH   4   9
ATOM      9  C   UNL     1       1.607  -0.001   0.720  0.00  0.00    +0.000 A 
ATOM     10  C   UNL     1       2.264  -0.122   1.910  0.00  0.00    +0.000 A 
ATOM     11  C   UNL     1       2.946   1.006   2.438  0.00  0.00    +0.000 A 
ATOM     12  C   UNL     1       2.933   2.192   1.750  0.00  0.00    +0.000 A 
ATOM     13  C   UNL     1       2.270   2.292   0.563  0.00  0.00    +0.000 A 
ATOM     14  C   UNL     1       1.609   1.164   0.068  0.00  0.00    +0.000 A 
ATOM     15  O   UNL     1       0.921   1.219  -1.136  0.00  0.00    +0.000 OA
ENDBRANCH   4   9
BRANCH   3  16
ATOM     16  C   UNL     1      -1.220   0.178   0.622  0.00  0.00    +0.000 C 
ATOM     17  O   UNL     1      -0.601   0.633   1.608  0.00  0.00    +0.000 OA
BRANCH  16  18
ATOM     18  O   UNL     1      -2.486   0.624   0.462  0.00  0.00    +0.000 OA
BRANCH  18  19
ATOM     19  C   UNL     1      -3.179   1.537   1.274  0.00  0.00    +0.000 C 
ATOM     20  C   UNL     1      -4.572   1.698   0.653  0.00  0.00    +0.000 C 
ATOM     21  C   UNL     1      -3.336   1.076   2.696  0.00  0.00    +0.000 C 
ENDBRANCH  18  19
ENDBRANCH  16  18
ENDBRANCH   3  16
TORSDOF 4
