REMARK  Name = 
REMARK  1 active torsions:
REMARK  status: ('A' for Active; 'I' for Inactive)
REMARK    1  A    between atoms: C_7  and  C_8
REMARK                            x       y       z     vdW  Elec       q    Type
REMARK                         _______ _______ _______ _____ _____    ______ ____
ROOT
ATOM      1  C   UNL     1       1.398  -2.254  -1.526  0.00  0.00    +0.000 C 
ATOM      2  C   UNL     1       1.298  -1.316  -0.340  0.00  0.00    +0.000 C 
ATOM      3  C   UNL     1       1.179  -2.064   0.962  0.00  0.00    +0.000 C 
ATOM      4  C   UNL     1       0.101  -0.422  -0.482  0.00  0.00    +0.000 C 
ATOM      5  O   UNL     1      -0.857  -0.708  -1.265  0.00  0.00    +0.000 OA
ATOM      6  C   UNL     1      -0.004   0.808   0.274  0.00  0.00    +0.000 C 
ATOM      7  C   UNL     1      -1.194   1.236   0.670  0.00  0.00    +0.000 C 
ATOM      8  C   UNL     1       1.235   1.556   0.608  0.00  0.00    +0.000 C 
ATOM      9  C   UNL     1       2.435   0.852   0.158  0.00  0.00    +0.000 A 
ATOM     10  C   UNL     1       3.638   1.568   0.165  0.00  0.00    +0.000 A 
ATOM     11  C   UNL     1       4.827   1.016  -0.236  0.00  0.00    +0.000 A 
ATOM     12  C   UNL     1       4.867  -0.288  -0.666  0.00  0.00    +0.000 A 
ATOM     13  C   UNL     1       3.684  -0.991  -0.673  0.00  0.00    +0.000 A 
ATOM     14  C   UNL     1       2.488  -0.432  -0.269  0.00  0.00    +0.000 A 
ENDROOT
BRANCH   7  15
ATOM     15  C   UNL     1      -2.437   0.525   0.392  0.00  0.00    +0.000 A 
ATOM     16  C   UNL     1      -2.535  -0.820   0.710  0.00  0.00    +0.000 A 
ATOM     17  C   UNL     1      -3.700  -1.488   0.436  0.00  0.00    +0.000 A 
ATOM     18  C   UNL     1      -4.812  -0.897  -0.149  0.00  0.00    +0.000 A 
ATOM     19  C   UNL     1      -4.670   0.437  -0.448  0.00  0.00    +0.000 A 
ATOM     20  C   UNL     1      -3.519   1.141  -0.190  0.00  0.00    +0.000 A 
ATOM     21  N   UNL     1      -3.421   2.542  -0.533  0.00  0.00    +0.000 NA
ENDBRANCH   7  15
TORSDOF 1
