REMARK  Name = 
REMARK  4 active torsions:
REMARK  status: ('A' for Active; 'I' for Inactive)
REMARK    1  A    between atoms: N_2  and  C_3
REMARK    2  A    between atoms: N_2  and  C_6
REMARK    3  A    between atoms: C_3  and  C_4
REMARK    4  A    between atoms: C_9  and  C_10
REMARK                            x       y       z     vdW  Elec       q    Type
REMARK                         _______ _______ _______ _____ _____    ______ ____
ROOT
ATOM      1  C   UNL     1      -0.410   0.786  -0.409  0.00  0.00    +0.000 A 
ATOM      2  C   UNL     1      -1.815   0.710  -0.384  0.00  0.00    +0.000 A 
ATOM      3  C   UNL     1      -2.482  -0.458  -0.101  0.00  0.00    +0.000 A 
ATOM      4  C   UNL     1      -1.722  -1.582   0.164  0.00  0.00    +0.000 A 
ATOM      5  C   UNL     1      -0.348  -1.489   0.134  0.00  0.00    +0.000 A 
ATOM      6  N   UNL     1       0.610  -2.421   0.345  0.00  0.00    +0.000 NA
ATOM      7  C   UNL     1       1.833  -1.892   0.206  0.00  0.00    +0.000 A 
ATOM      8  C   UNL     1       3.116  -2.372   0.303  0.00  0.00    +0.000 A 
ATOM      9  C   UNL     1       4.241  -1.596   0.104  0.00  0.00    +0.000 A 
ATOM     10  C   UNL     1       4.006  -0.274  -0.205  0.00  0.00    +0.000 A 
ATOM     11  C   UNL     1       2.738   0.253  -0.313  0.00  0.00    +0.000 A 
ATOM     12  C   UNL     1       1.636  -0.562  -0.107  0.00  0.00    +0.000 A 
ATOM     13  N   UNL     1       0.292  -0.338  -0.145  0.00  0.00    +0.000 N 
ATOM     14  C   UNL     1      -3.957  -0.229  -0.145  0.00  0.00    +0.000 C 
ATOM     15  C   UNL     1      -4.083   1.282  -0.053  0.00  0.00    +0.000 C 
ATOM     16  C   UNL     1      -2.800   1.807  -0.643  0.00  0.00    +0.000 C 
ENDROOT
BRANCH   1  18
ATOM     17  C   UNL     1       0.670   2.298  -2.032  0.00  0.00    +0.000 C 
ATOM     18  N   UNL     1       0.190   2.032  -0.708  0.00  0.00    +0.000 N 
BRANCH  18  19
ATOM     19  C   UNL     1       0.296   3.022   0.324  0.00  0.00    +0.000 C 
BRANCH  19  20
ATOM     20  C   UNL     1       1.701   3.310   0.753  0.00  0.00    +0.000 C 
ATOM     21  O   UNL     1       1.714   4.287   1.762  0.00  0.00    +0.000 OA
ENDBRANCH  19  20
ENDBRANCH  18  19
ENDBRANCH   1  18
BRANCH   4  22
ATOM     22  C   UNL     1      -2.426  -2.796   0.463  0.00  0.00    +0.000 C 
ATOM     23  N   UNL     1      -2.999  -3.776   0.687  0.00  0.00    +0.000 NA
ENDBRANCH   4  22
TORSDOF 4
