REMARK  Name = 
REMARK  3 active torsions:
REMARK  status: ('A' for Active; 'I' for Inactive)
REMARK    1  A    between atoms: C_7  and  N_8
REMARK    2  A    between atoms: C_9  and  C_11
REMARK    3  A    between atoms: C_16  and  N_17
REMARK                            x       y       z     vdW  Elec       q    Type
REMARK                         _______ _______ _______ _____ _____    ______ ____
ROOT
ATOM      1  N   UNL     1      -0.996   0.125  -0.310  0.00  0.00    +0.000 NA
ATOM      2  C   UNL     1      -0.410  -0.075   0.946  0.00  0.00    +0.000 C 
ATOM      3  O   UNL     1      -1.151  -0.120   1.958  0.00  0.00    +0.000 OA
ENDROOT
BRANCH   1  10
ATOM      4  C   UNL     1      -5.532   0.354   1.531  0.00  0.00    +0.000 C 
ATOM      5  C   UNL     1      -4.611   0.397   0.365  0.00  0.00    +0.000 A 
ATOM      6  C   UNL     1      -5.142   0.590  -0.891  0.00  0.00    +0.000 A 
ATOM      7  C   UNL     1      -4.263   0.628  -1.973  0.00  0.00    +0.000 A 
ATOM      8  C   UNL     1      -2.903   0.477  -1.800  0.00  0.00    +0.000 A 
ATOM      9  C   UNL     1      -2.007   0.525  -2.984  0.00  0.00    +0.000 C 
ATOM     10  C   UNL     1      -2.372   0.284  -0.547  0.00  0.00    +0.000 A 
ATOM     11  C   UNL     1      -3.244   0.247   0.522  0.00  0.00    +0.000 A 
ENDBRANCH   1  10
BRANCH   2  12
ATOM     12  C   UNL     1       1.037  -0.224   1.029  0.00  0.00    +0.000 A 
ATOM     13  C   UNL     1       1.652  -0.425   2.255  0.00  0.00    +0.000 A 
ATOM     14  C   UNL     1       3.025  -0.562   2.300  0.00  0.00    +0.000 A 
ATOM     15  C   UNL     1       3.835  -0.510   1.185  0.00  0.00    +0.000 A 
ATOM     16  C   UNL     1       5.321  -0.664   1.289  0.00  0.00    +0.000 C 
ATOM     17  C   UNL     1       3.214  -0.309  -0.030  0.00  0.00    +0.000 A 
ATOM     18  C   UNL     1       1.829  -0.169  -0.098  0.00  0.00    +0.000 A 
BRANCH  17  19
ATOM     19  N   UNL     1       4.029  -0.253  -1.188  0.00  0.00    +0.000 N 
ATOM     20  O   UNL     1       5.086  -0.873  -1.341  0.00  0.00    +0.000 OA
ATOM     21  O   UNL     1       3.602   0.557  -2.214  0.00  0.00    +0.000 OA
ENDBRANCH  17  19
ENDBRANCH   2  12
TORSDOF 3
