REMARK  Name = 
REMARK  3 active torsions:
REMARK  status: ('A' for Active; 'I' for Inactive)
REMARK    1  A    between atoms: C_5  and  N_6
REMARK    2  A    between atoms: C_7  and  C_9
REMARK    3  A    between atoms: C_13  and  N_14
REMARK                            x       y       z     vdW  Elec       q    Type
REMARK                         _______ _______ _______ _____ _____    ______ ____
ROOT
ATOM      1  N   UNL     1       0.979   0.634   0.378  0.00  0.00    +0.000 NA
ATOM      2  C   UNL     1       0.090   0.267  -0.662  0.00  0.00    +0.000 C 
ATOM      3  O   UNL     1       0.531  -0.355  -1.677  0.00  0.00    +0.000 OA
ENDROOT
BRANCH   1   8
ATOM      4  C   UNL     1       6.505  -0.409   0.158  0.00  0.00    +0.000 C 
ATOM      5  C   UNL     1       5.025  -0.175   0.144  0.00  0.00    +0.000 A 
ATOM      6  C   UNL     1       4.236  -0.638  -0.892  0.00  0.00    +0.000 A 
ATOM      7  C   UNL     1       2.868  -0.365  -0.794  0.00  0.00    +0.000 A 
ATOM      8  C   UNL     1       2.344   0.321   0.267  0.00  0.00    +0.000 A 
ATOM      9  C   UNL     1       3.152   0.781   1.306  0.00  0.00    +0.000 A 
ATOM     10  C   UNL     1       2.589   1.540   2.466  0.00  0.00    +0.000 C 
ATOM     11  C   UNL     1       4.506   0.523   1.229  0.00  0.00    +0.000 A 
ENDBRANCH   1   8
BRANCH   2  12
ATOM     12  C   UNL     1      -1.316   0.616  -0.567  0.00  0.00    +0.000 A 
ATOM     13  C   UNL     1      -1.722   1.918  -0.773  0.00  0.00    +0.000 A 
ATOM     14  C   UNL     1      -3.027   2.324  -0.666  0.00  0.00    +0.000 A 
ATOM     15  C   UNL     1      -3.954   1.368  -0.336  0.00  0.00    +0.000 A 
ATOM     16  C   UNL     1      -3.616   0.048  -0.120  0.00  0.00    +0.000 A 
ATOM     17  C   UNL     1      -2.283  -0.297  -0.243  0.00  0.00    +0.000 A 
ATOM     18  C   UNL     1      -1.933  -1.730  -0.017  0.00  0.00    +0.000 C 
BRANCH  16  19
ATOM     19  N   UNL     1      -4.636  -0.881   0.196  0.00  0.00    +0.000 N 
ATOM     20  O   UNL     1      -4.427  -1.867   0.917  0.00  0.00    +0.000 OA
ATOM     21  O   UNL     1      -5.912  -0.694  -0.311  0.00  0.00    +0.000 OA
ENDBRANCH  16  19
ENDBRANCH   2  12
TORSDOF 3
