REMARK  Name = 
REMARK  2 active torsions:
REMARK  status: ('A' for Active; 'I' for Inactive)
REMARK    1  A    between atoms: O_2  and  C_3
REMARK    2  A    between atoms: C_8  and  C_9
REMARK                            x       y       z     vdW  Elec       q    Type
REMARK                         _______ _______ _______ _____ _____    ______ ____
ROOT
ATOM      1  C   UNL     1       0.219  -1.379  -0.686  0.00  0.00    +0.000 C 
ATOM      2  C   UNL     1       0.623  -1.941   0.782  0.00  0.00    +0.000 C 
ATOM      3  C   UNL     1      -0.586  -2.701   1.170  0.00  0.00    +0.000 C 
ATOM      4  O   UNL     1      -0.603  -3.920   1.167  0.00  0.00    +0.000 OA
ATOM      5  N   UNL     1      -1.653  -1.820   1.523  0.00  0.00    +0.000 NA
ATOM      6  C   UNL     1      -1.708  -0.615   0.705  0.00  0.00    +0.000 A 
ATOM      7  C   UNL     1      -2.724   0.270   1.080  0.00  0.00    +0.000 A 
ATOM      8  C   UNL     1      -2.822   1.458   0.381  0.00  0.00    +0.000 A 
ATOM      9  C   UNL     1      -3.899   2.430   0.755  0.00  0.00    +0.000 C 
ATOM     10  C   UNL     1      -1.945   1.747  -0.643  0.00  0.00    +0.000 A 
ATOM     11  C   UNL     1      -2.095   3.022  -1.349  0.00  0.00    +0.000 C 
ATOM     12  C   UNL     1      -0.934   0.811  -0.979  0.00  0.00    +0.000 A 
ATOM     13  C   UNL     1      -0.844  -0.357  -0.288  0.00  0.00    +0.000 A 
ENDROOT
BRANCH   1  19
ATOM     14  C   UNL     1       2.095   0.225   0.068  0.00  0.00    +0.000 A 
ATOM     15  C   UNL     1       3.179   1.049  -0.239  0.00  0.00    +0.000 A 
ATOM     16  C   UNL     1       3.536   1.155  -1.539  0.00  0.00    +0.000 A 
ATOM     17  C   UNL     1       2.904   0.509  -2.555  0.00  0.00    +0.000 A 
ATOM     18  C   UNL     1       1.818  -0.312  -2.208  0.00  0.00    +0.000 A 
ATOM     19  C   UNL     1       1.454  -0.421  -0.891  0.00  0.00    +0.000 A 
BRANCH  14  21
ATOM     20  C   UNL     1       2.351   0.749   2.370  0.00  0.00    +0.000 C 
ATOM     21  O   UNL     1       1.635   0.039   1.378  0.00  0.00    +0.000 OA
ENDBRANCH  14  21
ENDBRANCH   1  19
TORSDOF 2
