REMARK  Name = 
REMARK  3 active torsions:
REMARK  status: ('A' for Active; 'I' for Inactive)
REMARK    1  A    between atoms: N_2  and  C_4
REMARK    2  A    between atoms: C_13  and  C_14
REMARK    3  A    between atoms: C_16  and  C_17
REMARK                            x       y       z     vdW  Elec       q    Type
REMARK                         _______ _______ _______ _____ _____    ______ ____
ROOT
ATOM      1  C   UNL     1       2.417   1.756  -0.100  0.00  0.00    +0.000 A 
ATOM      2  C   UNL     1       1.540   2.179  -1.050  0.00  0.00    +0.000 A 
ATOM      3  C   UNL     1       0.478   1.355  -1.450  0.00  0.00    +0.000 A 
ATOM      4  C   UNL     1       0.315   0.100  -0.879  0.00  0.00    +0.000 A 
ATOM      5  C   UNL     1       1.198  -0.278   0.050  0.00  0.00    +0.000 A 
ATOM      6  C   UNL     1       2.273   0.540   0.465  0.00  0.00    +0.000 A 
ATOM      7  O   UNL     1       1.106  -1.505   0.665  0.00  0.00    +0.000 OA
ATOM      8  C   UNL     1       0.096  -2.339   0.312  0.00  0.00    +0.000 C 
ATOM      9  N   UNL     1       0.025  -3.618   0.971  0.00  0.00    +0.000 NA
ATOM     10  C   UNL     1      -0.780  -2.051  -0.561  0.00  0.00    +0.000 C 
ATOM     11  C   UNL     1      -0.867  -0.740  -1.367  0.00  0.00    +0.000 C 
ENDROOT
BRANCH  11  12
ATOM     12  C   UNL     1      -2.020  -0.053  -0.569  0.00  0.00    +0.000 A 
ATOM     13  C   UNL     1      -2.443  -0.272   0.670  0.00  0.00    +0.000 A 
ATOM     14  C   UNL     1      -3.461   0.466   1.117  0.00  0.00    +0.000 A 
ATOM     15  C   UNL     1      -3.997   1.390   0.279  0.00  0.00    +0.000 A 
ATOM     16  S   UNL     1      -3.030   1.185  -1.140  0.00  0.00    +0.000 S 
ENDBRANCH  11  12
BRANCH   1  18
ATOM     17  C   UNL     1       4.437   2.132   1.329  0.00  0.00    +0.000 C 
ATOM     18  N   UNL     1       3.514   2.570   0.334  0.00  0.00    +0.000 N 
ATOM     19  C   UNL     1       3.710   3.893  -0.248  0.00  0.00    +0.000 C 
ENDBRANCH   1  18
BRANCH  10  20
ATOM     20  C   UNL     1      -1.828  -2.970  -0.897  0.00  0.00    +0.000 C 
ATOM     21  N   UNL     1      -2.682  -3.739  -1.159  0.00  0.00    +0.000 NA
ENDBRANCH  10  20
TORSDOF 3
