REMARK  Name = 
REMARK  2 active torsions:
REMARK  status: ('A' for Active; 'I' for Inactive)
REMARK    1  A    between atoms: C_4  and  C_6
REMARK    2  A    between atoms: C_9  and  N_10
REMARK                            x       y       z     vdW  Elec       q    Type
REMARK                         _______ _______ _______ _____ _____    ______ ____
ROOT
ATOM      1  C   UNL     1       1.209   0.336   1.771  0.00  0.00    +0.000 C 
ATOM      2  C   UNL     1       2.085   0.856   0.475  0.00  0.00    +0.000 C 
ATOM      3  O   UNL     1       1.029   0.552  -0.543  0.00  0.00    +0.000 OA
ATOM      4  C   UNL     1       0.342  -0.523  -0.421  0.00  0.00    +0.000 C 
ATOM      5  O   UNL     1       0.405  -1.203  -1.671  0.00  0.00    +0.000 OA
ATOM      6  C   UNL     1       0.707  -1.615   0.535  0.00  0.00    +0.000 C 
ATOM      7  C   UNL     1       2.166  -1.604   0.521  0.00  0.00    +0.000 C 
ATOM      8  N   UNL     1       2.882  -0.478   0.293  0.00  0.00    +0.000 N 
ATOM      9  C   UNL     1       3.570  -0.361  -0.981  0.00  0.00    +0.000 C 
ATOM     10  C   UNL     1       3.969   1.102  -1.081  0.00  0.00    +0.000 C 
ATOM     11  C   UNL     1       4.627   1.564   0.230  0.00  0.00    +0.000 C 
ATOM     12  C   UNL     1       5.081   0.299   0.914  0.00  0.00    +0.000 C 
ATOM     13  C   UNL     1       3.832  -0.389   1.403  0.00  0.00    +0.000 C 
ENDROOT
BRANCH   4  14
ATOM     14  C   UNL     1      -1.132  -0.267  -0.198  0.00  0.00    +0.000 A 
ATOM     15  C   UNL     1      -1.586   0.226   1.012  0.00  0.00    +0.000 A 
ATOM     16  C   UNL     1      -2.912   0.461   1.244  0.00  0.00    +0.000 A 
ATOM     17  C   UNL     1      -3.868   0.210   0.258  0.00  0.00    +0.000 A 
ATOM     18  C   UNL     1      -3.403  -0.276  -0.931  0.00  0.00    +0.000 A 
ATOM     19  C   UNL     1      -2.075  -0.510  -1.161  0.00  0.00    +0.000 A 
BRANCH  17  20
ATOM     20  N   UNL     1      -5.242   0.457   0.512  0.00  0.00    +0.000 N 
ATOM     21  O   UNL     1      -6.073   0.210  -0.370  0.00  0.00    +0.000 OA
ATOM     22  O   UNL     1      -5.610   0.954   1.737  0.00  0.00    +0.000 OA
ENDBRANCH  17  20
ENDBRANCH   4  14
TORSDOF 2
