REMARK  Name = 
REMARK  4 active torsions:
REMARK  status: ('A' for Active; 'I' for Inactive)
REMARK    1  A    between atoms: C_2  and  C_5
REMARK    2  A    between atoms: C_7  and  C_8
REMARK    3  A    between atoms: N_10  and  N_11
REMARK    4  A    between atoms: C_12  and  C_13
REMARK                            x       y       z     vdW  Elec       q    Type
REMARK                         _______ _______ _______ _____ _____    ______ ____
ROOT
ATOM      1  C   UNL     1       0.558  -0.020  -0.729  0.00  0.00    +0.000 C 
ATOM      2  O   UNL     1      -0.268   0.230  -1.613  0.00  0.00    +0.000 OA
ATOM      3  N   UNL     1       0.120  -0.574   0.490  0.00  0.00    +0.000 NA
ENDROOT
BRANCH   1   6
ATOM      4  C   UNL     1       4.205   0.465  -0.697  0.00  0.00    +0.000 A 
ATOM      5  C   UNL     1       3.042   0.052  -0.089  0.00  0.00    +0.000 A 
ATOM      6  C   UNL     1       1.973   0.256  -0.937  0.00  0.00    +0.000 A 
ATOM      7  N   UNL     1       2.519   0.799  -2.066  0.00  0.00    +0.000 NA
ATOM      8  N   UNL     1       3.821   0.911  -1.903  0.00  0.00    +0.000 NA
BRANCH   4  10
ATOM      9  C   UNL     1       5.582   0.663   1.308  0.00  0.00    +0.000 C 
ATOM     10  C   UNL     1       5.600   0.455  -0.206  0.00  0.00    +0.000 C 
ATOM     11  C   UNL     1       6.259  -0.884  -0.460  0.00  0.00    +0.000 C 
ATOM     12  C   UNL     1       6.386   1.562  -0.883  0.00  0.00    +0.000 C 
ENDBRANCH   4  10
ENDBRANCH   1   6
BRANCH   3  13
ATOM     13  N   UNL     1      -1.237  -0.854   0.746  0.00  0.00    +0.000 NA
ATOM     14  C   UNL     1      -2.034   0.130   0.491  0.00  0.00    +0.000 C 
BRANCH  14  15
ATOM     15  C   UNL     1      -3.455   0.033   0.690  0.00  0.00    +0.000 A 
ATOM     16  C   UNL     1      -4.004  -1.131   1.163  0.00  0.00    +0.000 A 
ATOM     17  C   UNL     1      -5.390  -1.228   1.356  0.00  0.00    +0.000 A 
ATOM     18  C   UNL     1      -6.196  -0.153   1.071  0.00  0.00    +0.000 A 
ATOM     19  F   UNL     1      -7.541  -0.251   1.261  0.00  0.00    +0.000 F 
ATOM     20  C   UNL     1      -5.660   1.020   0.597  0.00  0.00    +0.000 A 
ATOM     21  C   UNL     1      -4.278   1.096   0.411  0.00  0.00    +0.000 A 
ENDBRANCH  14  15
ENDBRANCH   3  13
TORSDOF 4
