REMARK  Name = 
REMARK  4 active torsions:
REMARK  status: ('A' for Active; 'I' for Inactive)
REMARK    1  A    between atoms: C_2  and  C_4
REMARK    2  A    between atoms: C_6  and  C_7
REMARK    3  A    between atoms: N_9  and  N_10
REMARK    4  A    between atoms: C_11  and  C_12
REMARK                            x       y       z     vdW  Elec       q    Type
REMARK                         _______ _______ _______ _____ _____    ______ ____
ROOT
ATOM      1  C   UNL     1       0.595   0.744   0.081  0.00  0.00    +0.000 C 
ATOM      2  O   UNL     1      -0.203   1.708   0.183  0.00  0.00    +0.000 OA
ATOM      3  N   UNL     1       0.038  -0.548  -0.014  0.00  0.00    +0.000 NA
ENDROOT
BRANCH   1   6
ATOM      4  C   UNL     1       4.255   0.222  -0.055  0.00  0.00    +0.000 A 
ATOM      5  C   UNL     1       2.929  -0.061  -0.046  0.00  0.00    +0.000 A 
ATOM      6  C   UNL     1       2.063   0.947   0.061  0.00  0.00    +0.000 A 
ATOM      7  C   UNL     1       2.596   2.212   0.155  0.00  0.00    +0.000 A 
ATOM      8  S   UNL     1       4.275   1.916   0.088  0.00  0.00    +0.000 S 
BRANCH   4  10
ATOM      9  C   UNL     1       5.044  -2.023  -0.753  0.00  0.00    +0.000 C 
ATOM     10  C   UNL     1       5.421  -0.705  -0.163  0.00  0.00    +0.000 C 
ATOM     11  C   UNL     1       6.495   0.013  -0.938  0.00  0.00    +0.000 C 
ENDBRANCH   4  10
ENDBRANCH   1   6
BRANCH   3  12
ATOM     12  N   UNL     1      -1.337  -0.797  -0.000  0.00  0.00    +0.000 NA
ATOM     13  C   UNL     1      -2.230   0.047   0.322  0.00  0.00    +0.000 C 
BRANCH  13  14
ATOM     14  C   UNL     1      -3.662  -0.295   0.310  0.00  0.00    +0.000 A 
ATOM     15  C   UNL     1      -4.593   0.648   0.666  0.00  0.00    +0.000 A 
ATOM     16  C   UNL     1      -5.931   0.313   0.651  0.00  0.00    +0.000 A 
ATOM     17  N   UNL     1      -6.314  -0.933   0.287  0.00  0.00    +0.000 NA
ATOM     18  C   UNL     1      -5.394  -1.853  -0.061  0.00  0.00    +0.000 A 
ATOM     19  C   UNL     1      -4.047  -1.556  -0.058  0.00  0.00    +0.000 A 
ENDBRANCH  13  14
ENDBRANCH   3  12
TORSDOF 4
