REMARK  Name = 
REMARK  4 active torsions:
REMARK  status: ('A' for Active; 'I' for Inactive)
REMARK    1  A    between atoms: O_2  and  C_3
REMARK    2  A    between atoms: C_5  and  O_6
REMARK    3  A    between atoms: O_6  and  C_7
REMARK    4  A    between atoms: C_10  and  C_11
REMARK                            x       y       z     vdW  Elec       q    Type
REMARK                         _______ _______ _______ _____ _____    ______ ____
ROOT
ATOM      1  O   UNL     1       0.501  -0.857  -1.387  0.00  0.00    +0.000 OA
ENDROOT
BRANCH   1   4
ATOM      2  C   UNL     1       3.149   1.246   0.060  0.00  0.00    +0.000 A 
ATOM      3  C   UNL     1       2.059   0.838  -0.676  0.00  0.00    +0.000 A 
ATOM      4  C   UNL     1       1.594  -0.457  -0.645  0.00  0.00    +0.000 A 
ATOM      5  N   UNL     1       2.276  -1.305   0.154  0.00  0.00    +0.000 NA
ATOM      6  C   UNL     1       3.342  -0.953   0.888  0.00  0.00    +0.000 A 
ATOM      7  N   UNL     1       4.029  -1.895   1.722  0.00  0.00    +0.000 NA
ATOM      8  N   UNL     1       3.770   0.339   0.829  0.00  0.00    +0.000 NA
BRANCH   2  10
ATOM      9  C   UNL     1       4.688   2.962   0.749  0.00  0.00    +0.000 C 
ATOM     10  O   UNL     1       3.568   2.561  -0.015  0.00  0.00    +0.000 OA
ENDBRANCH   2  10
ENDBRANCH   1   4
BRANCH   1  11
ATOM     11  C   UNL     1      -0.811  -0.739  -0.985  0.00  0.00    +0.000 A 
ATOM     12  C   UNL     1      -1.559  -1.918  -0.859  0.00  0.00    +0.000 A 
ATOM     13  C   UNL     1      -2.873  -1.847  -0.459  0.00  0.00    +0.000 A 
ATOM     14  C   UNL     1      -3.493  -0.638  -0.173  0.00  0.00    +0.000 A 
ATOM     15  C   UNL     1      -2.710   0.486  -0.315  0.00  0.00    +0.000 A 
ATOM     16  C   UNL     1      -1.387   0.475  -0.711  0.00  0.00    +0.000 A 
ATOM     17  C   UNL     1      -0.613   1.760  -0.844  0.00  0.00    +0.000 C 
BRANCH  14  18
ATOM     18  C   UNL     1      -4.921  -0.566   0.260  0.00  0.00    +0.000 C 
ATOM     19  C   UNL     1      -5.659   0.207  -0.819  0.00  0.00    +0.000 C 
ATOM     20  C   UNL     1      -4.951   0.299   1.514  0.00  0.00    +0.000 C 
ENDBRANCH  14  18
ENDBRANCH   1  11
TORSDOF 4
