REMARK  Name = 
REMARK  3 active torsions:
REMARK  status: ('A' for Active; 'I' for Inactive)
REMARK    1  A    between atoms: C_2  and  O_3
REMARK    2  A    between atoms: O_3  and  C_4
REMARK    3  A    between atoms: C_13  and  C_14
REMARK                            x       y       z     vdW  Elec       q    Type
REMARK                         _______ _______ _______ _____ _____    ______ ____
ROOT
ATOM      1  C   UNL     1      -1.568   1.067   0.429  0.00  0.00    +0.000 C 
ATOM      2  O   UNL     1      -2.348   1.361   1.568  0.00  0.00    +0.000 OA
ATOM      3  C   UNL     1      -1.224  -0.138   0.084  0.00  0.00    +0.000 C 
ATOM      4  C   UNL     1      -1.638  -1.246   0.875  0.00  0.00    +0.000 C 
ATOM      5  C   UNL     1      -2.459  -1.022   2.087  0.00  0.00    +0.000 C 
ATOM      6  N   UNL     1      -1.325  -2.469   0.580  0.00  0.00    +0.000 NA
ATOM      7  C   UNL     1      -0.549  -2.717  -0.560  0.00  0.00    +0.000 C 
ATOM      8  O   UNL     1      -0.265  -4.095  -0.788  0.00  0.00    +0.000 OA
ATOM      9  N   UNL     1      -0.159  -1.815  -1.284  0.00  0.00    +0.000 NA
ATOM     10  C   UNL     1      -0.354  -0.322  -1.208  0.00  0.00    +0.000 C 
ENDROOT
BRANCH  10  11
ATOM     11  C   UNL     1       1.058   0.049  -0.587  0.00  0.00    +0.000 A 
ATOM     12  C   UNL     1       1.162   0.944   0.406  0.00  0.00    +0.000 A 
ATOM     13  C   UNL     1       2.327   1.318   0.991  0.00  0.00    +0.000 A 
ATOM     14  C   UNL     1       3.478   0.722   0.511  0.00  0.00    +0.000 A 
ATOM     15  O   UNL     1       4.736   1.038   1.046  0.00  0.00    +0.000 OA
ATOM     16  C   UNL     1       3.401  -0.198  -0.506  0.00  0.00    +0.000 A 
ATOM     17  C   UNL     1       2.184  -0.525  -1.046  0.00  0.00    +0.000 A 
ENDBRANCH  10  11
BRANCH   1  18
ATOM     18  O   UNL     1      -1.203   2.196  -0.290  0.00  0.00    +0.000 OA
BRANCH  18  20
ATOM     19  C   UNL     1      -3.322   3.123  -0.945  0.00  0.00    +0.000 C 
ATOM     20  C   UNL     1      -1.932   2.728  -1.362  0.00  0.00    +0.000 C 
ENDBRANCH  18  20
ENDBRANCH   1  18
TORSDOF 3
