REMARK  Name = 
REMARK  4 active torsions:
REMARK  status: ('A' for Active; 'I' for Inactive)
REMARK    1  A    between atoms: C_2  and  O_3
REMARK    2  A    between atoms: O_3  and  C_4
REMARK    3  A    between atoms: C_4  and  C_6
REMARK    4  A    between atoms: C_9  and  C_10
REMARK                            x       y       z     vdW  Elec       q    Type
REMARK                         _______ _______ _______ _____ _____    ______ ____
ROOT
ATOM      1  C   UNL     1       1.370  -0.588   0.308  0.00  0.00    +0.000 C 
ATOM      2  C   UNL     1       0.236   0.042   0.532  0.00  0.00    +0.000 C 
ATOM      3  C   UNL     1       0.283   1.523   0.521  0.00  0.00    +0.000 C 
ATOM      4  C   UNL     1      -1.008  -0.755   0.917  0.00  0.00    +0.000 C 
ATOM      5  N   UNL     1      -0.867  -2.103   0.310  0.00  0.00    +0.000 NA
ATOM      6  C   UNL     1       0.317  -2.780   0.105  0.00  0.00    +0.000 C 
ATOM      7  O   UNL     1       0.321  -4.013  -0.059  0.00  0.00    +0.000 OA
ATOM      8  N   UNL     1       1.498  -1.982   0.097  0.00  0.00    +0.000 N 
ATOM      9  C   UNL     1       2.776  -2.647  -0.128  0.00  0.00    +0.000 C 
ENDROOT
BRANCH   4  10
ATOM     10  C   UNL     1      -2.157  -0.070   0.124  0.00  0.00    +0.000 A 
ATOM     11  C   UNL     1      -2.763  -0.623  -0.952  0.00  0.00    +0.000 A 
ATOM     12  C   UNL     1      -3.724   0.010  -1.709  0.00  0.00    +0.000 A 
ATOM     13  C   UNL     1      -4.094   1.274  -1.359  0.00  0.00    +0.000 A 
ATOM     14  C   UNL     1      -3.514   1.882  -0.278  0.00  0.00    +0.000 A 
ATOM     15  C   UNL     1      -2.534   1.191   0.468  0.00  0.00    +0.000 A 
ATOM     16 CL   UNL     1      -1.980   2.059   1.880  0.00  0.00    +0.000 Cl
ENDBRANCH   4  10
BRANCH   1  17
ATOM     17  C   UNL     1       2.619   0.203   0.079  0.00  0.00    +0.000 C 
ATOM     18  O   UNL     1       3.684  -0.405  -0.130  0.00  0.00    +0.000 OA
BRANCH  17  19
ATOM     19  O   UNL     1       2.570   1.573   0.104  0.00  0.00    +0.000 OA
BRANCH  19  21
ATOM     20  C   UNL     1       3.233   3.829   0.003  0.00  0.00    +0.000 C 
ATOM     21  C   UNL     1       3.735   2.383  -0.109  0.00  0.00    +0.000 C 
ENDBRANCH  19  21
ENDBRANCH  17  19
ENDBRANCH   1  17
TORSDOF 4
