REMARK  Name = 
REMARK  1 active torsions:
REMARK  status: ('A' for Active; 'I' for Inactive)
REMARK    1  A    between atoms: C_11  and  C_12
REMARK                            x       y       z     vdW  Elec       q    Type
REMARK                         _______ _______ _______ _____ _____    ______ ____
ROOT
ATOM      1  C   UNL     1       4.441   0.817   0.543  0.00  0.00    +0.000 C 
ATOM      2  C   UNL     1       3.024   0.520   0.110  0.00  0.00    +0.000 A 
ATOM      3  C   UNL     1       2.605  -0.792  -0.005  0.00  0.00    +0.000 A 
ATOM      4  C   UNL     1       3.614  -1.843   0.314  0.00  0.00    +0.000 C 
ATOM      5  C   UNL     1       1.312  -1.058  -0.399  0.00  0.00    +0.000 A 
ATOM      6  C   UNL     1       0.418  -0.045  -0.685  0.00  0.00    +0.000 A 
ATOM      7  C   UNL     1       0.829   1.233  -0.571  0.00  0.00    +0.000 A 
ATOM      8  C   UNL     1      -0.024   2.419  -0.847  0.00  0.00    +0.000 C 
ATOM      9  C   UNL     1       2.145   1.533  -0.170  0.00  0.00    +0.000 A 
ATOM     10  N   UNL     1       2.600   2.871  -0.043  0.00  0.00    +0.000 NA
ATOM     11  C   UNL     1      -0.898  -0.740  -1.109  0.00  0.00    +0.000 C 
ATOM     12  C   UNL     1      -0.667  -2.044  -0.162  0.00  0.00    +0.000 C 
ATOM     13  C   UNL     1      -1.643  -3.065  -0.533  0.00  0.00    +0.000 C 
ATOM     14  C   UNL     1      -0.589  -1.642   1.257  0.00  0.00    +0.000 C 
ATOM     15  O   UNL     1       0.674  -2.280  -0.580  0.00  0.00    +0.000 OA
ENDROOT
BRANCH  11  16
ATOM     16  C   UNL     1      -2.000  -0.043  -0.247  0.00  0.00    +0.000 A 
ATOM     17  C   UNL     1      -2.531   1.053  -0.899  0.00  0.00    +0.000 A 
ATOM     18  C   UNL     1      -3.520   1.786  -0.299  0.00  0.00    +0.000 A 
ATOM     19  C   UNL     1      -3.945   1.387   0.946  0.00  0.00    +0.000 A 
ATOM     20  N   UNL     1      -3.409   0.319   1.550  0.00  0.00    +0.000 NA
ATOM     21  C   UNL     1      -2.436  -0.388   0.942  0.00  0.00    +0.000 A 
ENDBRANCH  11  16
TORSDOF 1
