REMARK  Name = 
REMARK  2 active torsions:
REMARK  status: ('A' for Active; 'I' for Inactive)
REMARK    1  A    between atoms: C_5  and  C_6
REMARK    2  A    between atoms: C_19  and  C_20
REMARK                            x       y       z     vdW  Elec       q    Type
REMARK                         _______ _______ _______ _____ _____    ______ ____
ROOT
ATOM      1  C   UNL     1      -0.380   0.268  -0.406  0.00  0.00    +0.000 A 
ATOM      2  N   UNL     1      -0.555   1.547  -0.786  0.00  0.00    +0.000 NA
ATOM      3  N   UNL     1      -1.728   2.153  -0.801  0.00  0.00    +0.000 N 
ATOM      4  C   UNL     1      -1.820   3.548  -1.230  0.00  0.00    +0.000 C 
ATOM      5  C   UNL     1      -2.836   1.494  -0.425  0.00  0.00    +0.000 A 
ATOM      6  O   UNL     1      -3.931   2.094  -0.450  0.00  0.00    +0.000 OA
ATOM      7  C   UNL     1      -2.728   0.180  -0.024  0.00  0.00    +0.000 A 
ATOM      8  C   UNL     1      -3.871  -0.496   0.363  0.00  0.00    +0.000 A 
ATOM      9  C   UNL     1      -3.736  -1.801   0.757  0.00  0.00    +0.000 A 
ATOM     10  C   UNL     1      -2.500  -2.418   0.767  0.00  0.00    +0.000 A 
ATOM     11  C   UNL     1      -1.357  -1.750   0.383  0.00  0.00    +0.000 A 
ATOM     12  C   UNL     1      -1.495  -0.437  -0.014  0.00  0.00    +0.000 A 
ENDROOT
BRANCH   1  17
ATOM     13  C   UNL     1       4.963  -1.870  -0.369  0.00  0.00    +0.000 C 
ATOM     14  C   UNL     1       3.568  -1.373  -0.406  0.00  0.00    +0.000 A 
ATOM     15  C   UNL     1       2.512  -2.085  -0.916  0.00  0.00    +0.000 A 
ATOM     16  C   UNL     1       1.220  -1.577  -0.929  0.00  0.00    +0.000 A 
ATOM     17  C   UNL     1       0.956  -0.320  -0.420  0.00  0.00    +0.000 A 
ATOM     18  C   UNL     1       2.032   0.378   0.087  0.00  0.00    +0.000 A 
ATOM     19  C   UNL     1       3.320  -0.116   0.105  0.00  0.00    +0.000 A 
BRANCH  19  20
ATOM     20  C   UNL     1       4.436   0.684   0.666  0.00  0.00    +0.000 C 
ATOM     21  O   UNL     1       3.931   1.897   1.110  0.00  0.00    +0.000 OA
ENDBRANCH  19  20
ENDBRANCH   1  17
TORSDOF 2
