REMARK  Name = 
REMARK  2 active torsions:
REMARK  status: ('A' for Active; 'I' for Inactive)
REMARK    1  A    between atoms: C_2  and  N_3
REMARK    2  A    between atoms: C_2  and  C_15
REMARK                            x       y       z     vdW  Elec       q    Type
REMARK                         _______ _______ _______ _____ _____    ______ ____
ROOT
ATOM      1  C   UNL     1      -0.299   1.841  -1.932  0.00  0.00    +0.000 C 
ATOM      2  C   UNL     1      -0.516   0.204  -1.973  0.00  0.00    +0.000 C 
ENDROOT
BRANCH   2   3
ATOM      3  N   UNL     1       0.693  -0.195  -1.135  0.00  0.00    +0.000 N 
ATOM      4  C   UNL     1       0.990  -1.490  -1.046  0.00  0.00    +0.000 A 
ATOM      5  O   UNL     1       0.339  -2.370  -1.606  0.00  0.00    +0.000 OA
ATOM      6  N   UNL     1       2.066  -1.917  -0.305  0.00  0.00    +0.000 NA
ATOM      7  C   UNL     1       2.846  -1.061   0.347  0.00  0.00    +0.000 A 
ATOM      8  C   UNL     1       3.943  -1.481   1.104  0.00  0.00    +0.000 A 
ATOM      9  C   UNL     1       4.739  -0.575   1.772  0.00  0.00    +0.000 A 
ATOM     10  C   UNL     1       4.415   0.761   1.667  0.00  0.00    +0.000 A 
ATOM     11  C   UNL     1       3.326   1.198   0.918  0.00  0.00    +0.000 A 
ATOM     12  C   UNL     1       2.553   0.282   0.266  0.00  0.00    +0.000 A 
ATOM     13  C   UNL     1       1.458   0.664  -0.494  0.00  0.00    +0.000 A 
ATOM     14  N   UNL     1       1.212   1.909  -0.552  0.00  0.00    +0.000 NA
ENDBRANCH   2   3
BRANCH   2  15
ATOM     15  C   UNL     1      -1.689   0.227  -0.827  0.00  0.00    +0.000 C 
ATOM     16  C   UNL     1      -1.162   0.780   0.399  0.00  0.00    +0.000 C 
ATOM     17  C   UNL     1      -2.213   0.772   1.435  0.00  0.00    +0.000 C 
ATOM     18  C   UNL     1      -3.381   1.625   0.922  0.00  0.00    +0.000 C 
ATOM     19  C   UNL     1      -3.893   1.109  -0.409  0.00  0.00    +0.000 C 
ATOM     20  C   UNL     1      -4.423  -0.304  -0.131  0.00  0.00    +0.000 C 
ATOM     21  C   UNL     1      -3.258  -1.198   0.311  0.00  0.00    +0.000 C 
ATOM     22  C   UNL     1      -2.681  -0.676   1.620  0.00  0.00    +0.000 C 
ATOM     23  C   UNL     1      -2.244  -1.167  -0.779  0.00  0.00    +0.000 C 
ATOM     24  C   UNL     1      -2.819   1.063  -1.447  0.00  0.00    +0.000 C 
ENDBRANCH   2  15
TORSDOF 2
