REMARK  Name = 
REMARK  2 active torsions:
REMARK  status: ('A' for Active; 'I' for Inactive)
REMARK    1  A    between atoms: C_2  and  C_3
REMARK    2  A    between atoms: C_3  and  C_6
REMARK                            x       y       z     vdW  Elec       q    Type
REMARK                         _______ _______ _______ _____ _____    ______ ____
ROOT
ATOM      1  C   UNL     1      -0.152   0.556  -0.201  0.00  0.00    +0.000 A 
ATOM      2  C   UNL     1       0.979  -0.220  -0.080  0.00  0.00    +0.000 A 
ATOM      3  C   UNL     1       0.833  -1.572   0.159  0.00  0.00    +0.000 A 
ATOM      4  C   UNL     1      -0.438  -2.091   0.266  0.00  0.00    +0.000 A 
ATOM      5  O   UNL     1      -0.602  -3.445   0.505  0.00  0.00    +0.000 OA
ATOM      6  C   UNL     1      -1.562  -1.292   0.140  0.00  0.00    +0.000 A 
ATOM      7  C   UNL     1      -2.835  -1.805   0.246  0.00  0.00    +0.000 A 
ATOM      8  C   UNL     1      -3.896  -0.935   0.107  0.00  0.00    +0.000 A 
ATOM      9  C   UNL     1      -3.727   0.413  -0.130  0.00  0.00    +0.000 A 
ATOM     10  O   UNL     1      -4.722   1.195  -0.255  0.00  0.00    +0.000 OA
ATOM     11  O   UNL     1      -2.496   0.856  -0.224  0.00  0.00    +0.000 OA
ATOM     12  C   UNL     1      -1.437   0.066  -0.099  0.00  0.00    +0.000 A 
ATOM     13  C   UNL     1       1.992  -2.446   0.297  0.00  0.00    +0.000 C 
ATOM     14  C   UNL     1       3.198  -1.891   0.184  0.00  0.00    +0.000 C 
ATOM     15  C   UNL     1       3.428  -0.467  -0.068  0.00  0.00    +0.000 C 
ATOM     16  C   UNL     1       4.206   0.085   1.129  0.00  0.00    +0.000 C 
ATOM     17  C   UNL     1       4.273  -0.223  -1.301  0.00  0.00    +0.000 C 
ATOM     18  O   UNL     1       2.267   0.300  -0.187  0.00  0.00    +0.000 OA
ENDROOT
BRANCH   1  19
ATOM     19  C   UNL     1       0.024   2.007  -0.457  0.00  0.00    +0.000 C 
ATOM     20  C   UNL     1       0.911   2.204  -1.684  0.00  0.00    +0.000 C 
ATOM     21  C   UNL     1      -1.278   2.729  -0.590  0.00  0.00    +0.000 C 
BRANCH  19  23
ATOM     22  C   UNL     1       0.228   3.429   1.531  0.00  0.00    +0.000 C 
ATOM     23  C   UNL     1       0.808   2.547   0.711  0.00  0.00    +0.000 C 
ENDBRANCH  19  23
ENDBRANCH   1  19
TORSDOF 2
