REMARK  Name = 
REMARK  0 active torsions:
REMARK  status: ('A' for Active; 'I' for Inactive)
REMARK                            x       y       z     vdW  Elec       q    Type
REMARK                         _______ _______ _______ _____ _____    ______ ____
ROOT
ATOM      1  C   UNL     1      -2.069  -2.937   0.592  0.00  0.00    +0.000 C 
ATOM      2  C   UNL     1      -1.895  -1.478   0.276  0.00  0.00    +0.000 C 
ATOM      3  C   UNL     1      -0.776  -0.888   0.010  0.00  0.00    +0.000 C 
ATOM      4  C   UNL     1       0.659  -0.992  -0.148  0.00  0.00    +0.000 A 
ATOM      5  C   UNL     1       1.516  -2.095  -0.115  0.00  0.00    +0.000 A 
ATOM      6  C   UNL     1       1.013  -3.463  -0.082  0.00  0.00    +0.000 C 
ATOM      7  C   UNL     1       2.871  -1.839  -0.112  0.00  0.00    +0.000 A 
ATOM      8  C   UNL     1       3.387  -0.532  -0.141  0.00  0.00    +0.000 A 
ATOM      9  C   UNL     1       2.502   0.539  -0.177  0.00  0.00    +0.000 A 
ATOM     10  C   UNL     1       2.949   1.864  -0.200  0.00  0.00    +0.000 A 
ATOM     11  C   UNL     1       1.952   2.847  -0.232  0.00  0.00    +0.000 A 
ATOM     12  C   UNL     1       0.587   2.530  -0.244  0.00  0.00    +0.000 A 
ATOM     13  C   UNL     1      -0.348   3.683  -0.282  0.00  0.00    +0.000 C 
ATOM     14  C   UNL     1       0.150   1.235  -0.224  0.00  0.00    +0.000 A 
ATOM     15  C   UNL     1       1.174   0.283  -0.183  0.00  0.00    +0.000 A 
ATOM     16  C   UNL     1      -1.074   0.529  -0.367  0.00  0.00    +0.000 C 
ATOM     17  O   UNL     1      -1.637   0.586  -1.649  0.00  0.00    +0.000 OA
ATOM     18  C   UNL     1      -2.249   0.901   0.645  0.00  0.00    +0.000 C 
ATOM     19  C   UNL     1      -1.500   0.379   1.999  0.00  0.00    +0.000 C 
ATOM     20  C   UNL     1      -2.994  -0.541   0.361  0.00  0.00    +0.000 C 
ATOM     21  O   UNL     1      -4.219  -0.613   0.273  0.00  0.00    +0.000 OA
ENDROOT
TORSDOF 0
