REMARK  Name = 
REMARK  2 active torsions:
REMARK  status: ('A' for Active; 'I' for Inactive)
REMARK    1  A    between atoms: O_2  and  C_3
REMARK    2  A    between atoms: C_5  and  C_6
REMARK                            x       y       z     vdW  Elec       q    Type
REMARK                         _______ _______ _______ _____ _____    ______ ____
ROOT
ATOM      1  C   UNL     1      -1.231   1.355  -0.014  0.00  0.00    +0.000 A 
ATOM      2  C   UNL     1       0.131   1.103   0.079  0.00  0.00    +0.000 A 
ATOM      3  C   UNL     1       0.813  -0.062  -0.139  0.00  0.00    +0.000 A 
ATOM      4  C   UNL     1       0.306  -1.270  -0.568  0.00  0.00    +0.000 A 
ATOM      5  C   UNL     1      -1.015  -1.696  -0.376  0.00  0.00    +0.000 A 
ATOM      6  O   UNL     1      -1.205  -2.946  -0.332  0.00  0.00    +0.000 OA
ATOM      7  C   UNL     1      -2.157  -0.939  -0.226  0.00  0.00    +0.000 A 
ATOM      8  C   UNL     1      -3.441  -1.436  -0.213  0.00  0.00    +0.000 A 
ATOM      9  C   UNL     1      -3.795  -2.891  -0.360  0.00  0.00    +0.000 C 
ATOM     10  O   UNL     1      -4.258  -0.434  -0.052  0.00  0.00    +0.000 OA
ATOM     11  C   UNL     1      -3.603   0.707   0.042  0.00  0.00    +0.000 A 
ATOM     12  C   UNL     1      -4.210   2.064   0.232  0.00  0.00    +0.000 C 
ATOM     13  C   UNL     1      -2.256   0.428  -0.064  0.00  0.00    +0.000 A 
ENDROOT
BRANCH   3  14
ATOM     14  C   UNL     1       2.255  -0.058   0.103  0.00  0.00    +0.000 A 
ATOM     15  C   UNL     1       3.004   1.081  -0.105  0.00  0.00    +0.000 A 
ATOM     16  C   UNL     1       4.366   1.080   0.124  0.00  0.00    +0.000 A 
ATOM     17  C   UNL     1       5.043  -0.037   0.566  0.00  0.00    +0.000 A 
ATOM     18  O   UNL     1       6.413  -0.049   0.801  0.00  0.00    +0.000 OA
ATOM     19  C   UNL     1       4.282  -1.178   0.773  0.00  0.00    +0.000 A 
ATOM     20  C   UNL     1       2.920  -1.183   0.545  0.00  0.00    +0.000 A 
ENDBRANCH   3  14
BRANCH   1  22
ATOM     21  C   UNL     1      -0.703   3.700  -0.023  0.00  0.00    +0.000 C 
ATOM     22  O   UNL     1      -1.658   2.661  -0.066  0.00  0.00    +0.000 OA
ENDBRANCH   1  22
TORSDOF 2
