REMARK  Name = 
REMARK  2 active torsions:
REMARK  status: ('A' for Active; 'I' for Inactive)
REMARK    1  A    between atoms: C_5  and  N_6
REMARK    2  A    between atoms: C_7  and  C_9
REMARK                            x       y       z     vdW  Elec       q    Type
REMARK                         _______ _______ _______ _____ _____    ______ ____
ROOT
ATOM      1  N   UNL     1      -0.614   0.476   0.046  0.00  0.00    +0.000 NA
ATOM      2  C   UNL     1      -0.029  -0.811   0.023  0.00  0.00    +0.000 C 
ATOM      3  O   UNL     1      -0.809  -1.780  -0.021  0.00  0.00    +0.000 OA
ENDROOT
BRANCH   2   4
ATOM      4  C   UNL     1       1.448  -1.019   0.049  0.00  0.00    +0.000 A 
ATOM      5  C   UNL     1       1.968  -2.284   0.025  0.00  0.00    +0.000 A 
ATOM      6  N   UNL     1       1.243  -3.539  -0.025  0.00  0.00    +0.000 NA
ATOM      7  S   UNL     1       3.649  -2.017   0.068  0.00  0.00    +0.000 S 
ATOM      8  C   UNL     1       3.655  -0.317   0.115  0.00  0.00    +0.000 A 
ATOM      9  C   UNL     1       2.328   0.004   0.096  0.00  0.00    +0.000 A 
ATOM     10  C   UNL     1       2.081   1.508   0.132  0.00  0.00    +0.000 C 
ATOM     11  C   UNL     1       2.872   2.023   1.305  0.00  0.00    +0.000 C 
ATOM     12  C   UNL     1       4.340   1.824   1.174  0.00  0.00    +0.000 C 
ATOM     13  C   UNL     1       4.714   0.761   0.168  0.00  0.00    +0.000 C 
ENDBRANCH   2   4
BRANCH   1  18
ATOM     14  C   UNL     1      -6.295   0.859  -0.065  0.00  0.00    +0.000 C 
ATOM     15  C   UNL     1      -4.807   0.801  -0.035  0.00  0.00    +0.000 A 
ATOM     16  C   UNL     1      -4.200  -0.446  -0.056  0.00  0.00    +0.000 A 
ATOM     17  C   UNL     1      -2.832  -0.490  -0.028  0.00  0.00    +0.000 A 
ATOM     18  C   UNL     1      -2.038   0.636   0.020  0.00  0.00    +0.000 A 
ATOM     19  C   UNL     1      -2.643   1.863   0.041  0.00  0.00    +0.000 A 
ATOM     20  C   UNL     1      -4.031   1.947   0.014  0.00  0.00    +0.000 A 
ENDBRANCH   1  18
TORSDOF 2
