REMARK  Name = 
REMARK  4 active torsions:
REMARK  status: ('A' for Active; 'I' for Inactive)
REMARK    1  A    between atoms: C_2  and  C_3
REMARK    2  A    between atoms: C_3  and  C_5
REMARK    3  A    between atoms: C_8  and  O_9
REMARK    4  A    between atoms: O_9  and  C_10
REMARK                            x       y       z     vdW  Elec       q    Type
REMARK                         _______ _______ _______ _____ _____    ______ ____
ROOT
ATOM      1  C   UNL     1       2.792  -0.455  -0.276  0.00  0.00    +0.000 A 
ATOM      2  C   UNL     1       2.202   0.007  -1.378  0.00  0.00    +0.000 A 
ATOM      3  C   UNL     1       1.017   0.706  -1.253  0.00  0.00    +0.000 A 
ATOM      4  C   UNL     1       0.461   0.918  -0.013  0.00  0.00    +0.000 A 
ATOM      5  C   UNL     1       1.118   0.416   1.091  0.00  0.00    +0.000 A 
ATOM      6  C   UNL     1       2.310  -0.290   0.996  0.00  0.00    +0.000 A 
ENDROOT
BRANCH   1   7
ATOM      7  C   UNL     1       4.173  -1.272  -0.388  0.00  0.00    +0.000 C 
ATOM      8  C   UNL     1       3.676  -2.226  -1.644  0.00  0.00    +0.000 C 
BRANCH   7  10
ATOM      9  C   UNL     1       5.440   0.845  -0.397  0.00  0.00    +0.000 C 
ATOM     10  C   UNL     1       4.892  -0.168  -1.385  0.00  0.00    +0.000 C 
ENDBRANCH   7  10
ENDBRANCH   1   7
BRANCH   4  11
ATOM     11  O   UNL     1      -0.746   1.627   0.139  0.00  0.00    +0.000 OA
BRANCH  11  12
ATOM     12  C   UNL     1      -1.929   0.872   0.101  0.00  0.00    +0.000 A 
ATOM     13  C   UNL     1      -1.919  -0.497  -0.075  0.00  0.00    +0.000 A 
ATOM     14  C   UNL     1      -3.126  -1.190  -0.103  0.00  0.00    +0.000 A 
ATOM     15  F   UNL     1      -3.098  -2.535  -0.277  0.00  0.00    +0.000 F 
ATOM     16  N   UNL     1      -4.291  -0.524   0.041  0.00  0.00    +0.000 NA
ATOM     17  C   UNL     1      -4.295   0.810   0.212  0.00  0.00    +0.000 A 
ATOM     18  N   UNL     1      -5.551   1.484   0.361  0.00  0.00    +0.000 NA
ATOM     19  N   UNL     1      -3.127   1.470   0.238  0.00  0.00    +0.000 NA
ENDBRANCH  11  12
ENDBRANCH   4  11
TORSDOF 4
