REMARK  Name = 
REMARK  3 active torsions:
REMARK  status: ('A' for Active; 'I' for Inactive)
REMARK    1  A    between atoms: C_7  and  N_8
REMARK    2  A    between atoms: N_8  and  N_9
REMARK    3  A    between atoms: C_10  and  C_12
REMARK                            x       y       z     vdW  Elec       q    Type
REMARK                         _______ _______ _______ _____ _____    ______ ____
ROOT
ATOM      1  N   UNL     1       0.004  -0.603   0.001  0.00  0.00    +0.000 NA
ATOM      2  C   UNL     1      -1.009  -0.503  -0.998  0.00  0.00    +0.000 C 
ATOM      3  O   UNL     1      -0.775  -0.757  -2.192  0.00  0.00    +0.000 OA
ENDROOT
BRANCH   2   4
ATOM      4  C   UNL     1      -2.356  -0.094  -0.620  0.00  0.00    +0.000 A 
ATOM      5  C   UNL     1      -2.683   1.238  -0.633  0.00  0.00    +0.000 A 
ATOM      6  C   UNL     1      -3.916   1.725  -0.296  0.00  0.00    +0.000 A 
ATOM      7  C   UNL     1      -4.892   0.805   0.081  0.00  0.00    +0.000 A 
ATOM      8  C   UNL     1      -4.573  -0.538   0.097  0.00  0.00    +0.000 A 
ATOM      9  C   UNL     1      -3.314  -1.001  -0.249  0.00  0.00    +0.000 A 
ATOM     10 CL   UNL     1      -2.929  -2.703  -0.218  0.00  0.00    +0.000 Cl
ENDBRANCH   2   4
BRANCH   1  11
ATOM     11  N   UNL     1       1.284  -0.992  -0.400  0.00  0.00    +0.000 NA
BRANCH  11  18
ATOM     12  C   UNL     1       4.710  -0.195  -0.815  0.00  0.00    +0.000 C 
ATOM     13  C   UNL     1       3.210   0.357  -1.212  0.00  0.00    +0.000 C 
ATOM     14  C   UNL     1       3.311   1.796  -0.406  0.00  0.00    +0.000 C 
ATOM     15  C   UNL     1       4.172   1.730   0.738  0.00  0.00    +0.000 C 
ATOM     16  C   UNL     1       4.291   0.416   1.456  0.00  0.00    +0.000 C 
ATOM     17  C   UNL     1       3.000  -0.308   1.180  0.00  0.00    +0.000 C 
ATOM     18  C   UNL     1       2.466  -0.373   0.015  0.00  0.00    +0.000 C 
ENDBRANCH  11  18
ENDBRANCH   1  11
TORSDOF 3
