REMARK  Name = 
REMARK  2 active torsions:
REMARK  status: ('A' for Active; 'I' for Inactive)
REMARK    1  A    between atoms: C_2  and  C_4
REMARK    2  A    between atoms: C_7  and  C_8
REMARK                            x       y       z     vdW  Elec       q    Type
REMARK                         _______ _______ _______ _____ _____    ______ ____
ROOT
ATOM      1  C   UNL     1      -0.297  -1.967  -0.060  0.00  0.00    +0.000 C 
ATOM      2  C   UNL     1      -1.513  -1.524  -0.093  0.00  0.00    +0.000 C 
ATOM      3  C   UNL     1      -2.763  -2.241  -0.377  0.00  0.00    +0.000 C 
ATOM      4  O   UNL     1      -2.860  -3.476  -0.633  0.00  0.00    +0.000 OA
ATOM      5  N   UNL     1      -3.796  -1.260  -0.300  0.00  0.00    +0.000 NA
ATOM      6  C   UNL     1      -3.256   0.001   0.011  0.00  0.00    +0.000 A 
ATOM      7  C   UNL     1      -3.855   1.230   0.182  0.00  0.00    +0.000 A 
ATOM      8  C   UNL     1      -3.119   2.348   0.481  0.00  0.00    +0.000 A 
ATOM      9  C   UNL     1      -1.751   2.239   0.614  0.00  0.00    +0.000 A 
ATOM     10  F   UNL     1      -0.940   3.275   0.906  0.00  0.00    +0.000 F 
ATOM     11  C   UNL     1      -1.190   1.008   0.438  0.00  0.00    +0.000 A 
ATOM     12  C   UNL     1      -1.880  -0.136   0.139  0.00  0.00    +0.000 A 
ENDROOT
BRANCH   1  16
ATOM     13  C   UNL     1       3.345   0.090   0.747  0.00  0.00    +0.000 A 
ATOM     14  C   UNL     1       3.235  -0.801  -0.295  0.00  0.00    +0.000 A 
ATOM     15  C   UNL     1       2.054  -1.461  -0.565  0.00  0.00    +0.000 A 
ATOM     16  C   UNL     1       0.917  -1.243   0.224  0.00  0.00    +0.000 A 
ATOM     17  C   UNL     1       1.069  -0.352   1.249  0.00  0.00    +0.000 A 
ATOM     18  C   UNL     1       2.242   0.320   1.536  0.00  0.00    +0.000 A 
BRANCH  13  20
ATOM     19  C   UNL     1       4.300   2.116   1.655  0.00  0.00    +0.000 C 
ATOM     20  C   UNL     1       4.615   0.791   1.025  0.00  0.00    +0.000 C 
ATOM     21  C   UNL     1       5.443   1.044  -0.208  0.00  0.00    +0.000 C 
ENDBRANCH  13  20
ENDBRANCH   1  16
TORSDOF 2
