REMARK  Name = 
REMARK  6 active torsions:
REMARK  status: ('A' for Active; 'I' for Inactive)
REMARK    1  A    between atoms: O_2  and  C_3
REMARK    2  A    between atoms: C_6  and  N_7
REMARK    3  A    between atoms: N_7  and  C_8
REMARK    4  A    between atoms: C_8  and  C_9
REMARK    5  A    between atoms: C_12  and  N_13
REMARK    6  A    between atoms: C_17  and  O_18
REMARK                            x       y       z     vdW  Elec       q    Type
REMARK                         _______ _______ _______ _____ _____    ______ ____
ROOT
ATOM      1  C   UNL     1      -2.675   1.147  -0.916  0.00  0.00    +0.000 A 
ATOM      2  C   UNL     1      -1.640   0.454  -1.503  0.00  0.00    +0.000 A 
ATOM      3  C   UNL     1      -0.964  -0.553  -0.856  0.00  0.00    +0.000 A 
ATOM      4  C   UNL     1      -1.336  -0.887   0.437  0.00  0.00    +0.000 A 
ATOM      5  C   UNL     1      -2.367  -0.217   1.061  0.00  0.00    +0.000 A 
ATOM      6  C   UNL     1      -3.013   0.782   0.375  0.00  0.00    +0.000 A 
ENDROOT
BRANCH   1   8
ATOM      7  C   UNL     1      -4.400   2.891  -1.033  0.00  0.00    +0.000 C 
ATOM      8  O   UNL     1      -3.345   2.168  -1.601  0.00  0.00    +0.000 OA
ENDBRANCH   1   8
BRANCH   5   9
ATOM      9  O   UNL     1      -2.703  -0.590   2.363  0.00  0.00    +0.000 OA
ATOM     10  C   UNL     1      -3.757   0.069   3.047  0.00  0.00    +0.000 C 
ENDBRANCH   5   9
BRANCH   4  11
ATOM     11  N   UNL     1      -0.644  -1.928   1.120  0.00  0.00    +0.000 NA
BRANCH  11  12
ATOM     12  C   UNL     1       0.444  -2.667   0.523  0.00  0.00    +0.000 C 
BRANCH  12  13
ATOM     13  C   UNL     1       1.573  -1.785   0.146  0.00  0.00    +0.000 A 
ATOM     14  C   UNL     1       2.734  -2.197  -0.434  0.00  0.00    +0.000 A 
ATOM     15  C   UNL     1       3.652  -1.277  -0.711  0.00  0.00    +0.000 A 
ATOM     16  C   UNL     1       3.379   0.024  -0.397  0.00  0.00    +0.000 A 
ATOM     17  S   UNL     1       1.819  -0.103   0.284  0.00  0.00    +0.000 S 
BRANCH  16  18
ATOM     18  N   UNL     1       4.158   1.196  -0.573  0.00  0.00    +0.000 N 
ATOM     19  O   UNL     1       3.684   2.278  -0.202  0.00  0.00    +0.000 OA
ATOM     20  O   UNL     1       5.402   1.196  -1.131  0.00  0.00    +0.000 OA
ENDBRANCH  16  18
ENDBRANCH  12  13
ENDBRANCH  11  12
ENDBRANCH   4  11
TORSDOF 6
