REMARK  Name = 
REMARK  2 active torsions:
REMARK  status: ('A' for Active; 'I' for Inactive)
REMARK    1  A    between atoms: C_13  and  C_14
REMARK    2  A    between atoms: C_14  and  C_15
REMARK                            x       y       z     vdW  Elec       q    Type
REMARK                         _______ _______ _______ _____ _____    ______ ____
ROOT
ATOM      1  C   UNL     1      -2.648   2.651   0.586  0.00  0.00    +0.000 C 
ATOM      2  N   UNL     1      -2.007   1.393   0.292  0.00  0.00    +0.000 N 
ATOM      3  C   UNL     1      -0.953   0.923   1.020  0.00  0.00    +0.000 A 
ATOM      4  C   UNL     1      -0.573  -0.270   0.508  0.00  0.00    +0.000 A 
ATOM      5  C   UNL     1      -1.416  -0.564  -0.581  0.00  0.00    +0.000 A 
ATOM      6  C   UNL     1      -1.450  -1.633  -1.426  0.00  0.00    +0.000 A 
ATOM      7  C   UNL     1      -2.417  -1.681  -2.456  0.00  0.00    +0.000 A 
ATOM      8  C   UNL     1      -3.287  -0.613  -2.542  0.00  0.00    +0.000 A 
ATOM      9  C   UNL     1      -3.235   0.458  -1.679  0.00  0.00    +0.000 A 
ATOM     10  C   UNL     1      -2.278   0.495  -0.666  0.00  0.00    +0.000 A 
ATOM     11  C   UNL     1       0.502  -0.992   1.088  0.00  0.00    +0.000 C 
ATOM     12  O   UNL     1       0.714  -2.172   0.731  0.00  0.00    +0.000 OA
ATOM     13  C   UNL     1       1.476  -0.406   2.183  0.00  0.00    +0.000 C 
ATOM     14  C   UNL     1       0.302   0.431   3.033  0.00  0.00    +0.000 C 
ATOM     15  C   UNL     1      -0.215   1.462   2.163  0.00  0.00    +0.000 C 
ENDROOT
BRANCH  13  16
ATOM     16  C   UNL     1       1.947   0.900   1.338  0.00  0.00    +0.000 C 
BRANCH  16  17
ATOM     17  C   UNL     1       2.592   0.313   0.134  0.00  0.00    +0.000 A 
ATOM     18  N   UNL     1       2.806  -0.966  -0.202  0.00  0.00    +0.000 NA
ATOM     19  C   UNL     1       3.423  -1.041  -1.381  0.00  0.00    +0.000 A 
ATOM     20  C   UNL     1       3.613   0.245  -1.821  0.00  0.00    +0.000 A 
ATOM     21  N   UNL     1       3.105   1.068  -0.894  0.00  0.00    +0.000 NA
ENDBRANCH  16  17
ENDBRANCH  13  16
TORSDOF 2
