REMARK  Name = 
REMARK  1 active torsions:
REMARK  status: ('A' for Active; 'I' for Inactive)
REMARK    1  A    between atoms: C_19  and  C_21
REMARK                            x       y       z     vdW  Elec       q    Type
REMARK                         _______ _______ _______ _____ _____    ______ ____
ROOT
ATOM      1  C   UNL     1       1.018  -0.664   0.987  0.00  0.00    +0.000 C 
ATOM      2  C   UNL     1       0.910  -0.543  -0.409  0.00  0.00    +0.000 C 
ATOM      3  C   UNL     1       1.507  -1.595  -1.286  0.00  0.00    +0.000 C 
ATOM      4  C   UNL     1       2.866  -1.914  -0.645  0.00  0.00    +0.000 C 
ATOM      5  C   UNL     1       3.501  -0.594  -0.395  0.00  0.00    +0.000 A 
ATOM      6  O   UNL     1       4.763  -0.421   0.005  0.00  0.00    +0.000 OA
ATOM      7  C   UNL     1       5.071   0.820   0.150  0.00  0.00    +0.000 A 
ATOM      8  C   UNL     1       3.905   1.547  -0.184  0.00  0.00    +0.000 A 
ATOM      9  C   UNL     1       2.967   0.623  -0.513  0.00  0.00    +0.000 A 
ATOM     10  C   UNL     1       1.502   0.892  -0.973  0.00  0.00    +0.000 C 
ATOM     11  C   UNL     1       1.044   1.742   0.333  0.00  0.00    +0.000 C 
ATOM     12  C   UNL     1      -0.217   1.436   0.815  0.00  0.00    +0.000 C 
ATOM     13  C   UNL     1      -1.158   0.453   0.341  0.00  0.00    +0.000 C 
ATOM     14  C   UNL     1      -1.685  -0.380   1.381  0.00  0.00    +0.000 C 
ATOM     15  C   UNL     1      -3.104  -0.945   0.818  0.00  0.00    +0.000 C 
ATOM     16  C   UNL     1      -2.495  -1.906  -0.348  0.00  0.00    +0.000 C 
ATOM     17  C   UNL     1      -1.063  -1.849  -0.443  0.00  0.00    +0.000 C 
ATOM     18  C   UNL     1      -0.611  -0.363  -0.941  0.00  0.00    +0.000 C 
ATOM     19  C   UNL     1      -3.439   0.309  -0.155  0.00  0.00    +0.000 C 
ATOM     20  O   UNL     1      -3.920  -0.159  -1.345  0.00  0.00    +0.000 OA
ATOM     21  C   UNL     1      -2.371   1.219  -0.107  0.00  0.00    +0.000 C 
ENDROOT
BRANCH  19  22
ATOM     22  C   UNL     1      -4.666   0.890   0.574  0.00  0.00    +0.000 C 
ATOM     23  O   UNL     1      -4.327   1.404   1.804  0.00  0.00    +0.000 OA
ENDBRANCH  19  22
TORSDOF 1
