REMARK  Name = 
REMARK  3 active torsions:
REMARK  status: ('A' for Active; 'I' for Inactive)
REMARK    1  A    between atoms: C_2  and  O_3
REMARK    2  A    between atoms: O_3  and  C_4
REMARK    3  A    between atoms: C_7  and  C_8
REMARK                            x       y       z     vdW  Elec       q    Type
REMARK                         _______ _______ _______ _____ _____    ______ ____
ROOT
ATOM      1  C   UNL     1      -0.707   0.786   0.391  0.00  0.00    +0.000 A 
ATOM      2  C   UNL     1      -0.891   2.031   0.933  0.00  0.00    +0.000 A 
ATOM      3  C   UNL     1      -2.102   2.666   1.071  0.00  0.00    +0.000 A 
ATOM      4  O   UNL     1      -2.221   3.925   1.627  0.00  0.00    +0.000 OA
ATOM      5  C   UNL     1      -3.235   2.024   0.641  0.00  0.00    +0.000 A 
ATOM      6  C   UNL     1      -3.082   0.751   0.082  0.00  0.00    +0.000 A 
ATOM      7  S   UNL     1      -4.147  -0.432  -0.585  0.00  0.00    +0.000 S 
ATOM      8  C   UNL     1      -2.967  -1.604  -0.971  0.00  0.00    +0.000 A 
ATOM      9  O   UNL     1      -3.083  -2.763  -1.510  0.00  0.00    +0.000 OA
ATOM     10  O   UNL     1      -1.884  -1.043  -0.583  0.00  0.00    +0.000 OA
ATOM     11  C   UNL     1      -1.877   0.115  -0.057  0.00  0.00    +0.000 A 
ENDROOT
BRANCH   1  15
ATOM     12  C   UNL     1       3.107  -1.062   0.113  0.00  0.00    +0.000 A 
ATOM     13  C   UNL     1       2.958   0.252  -0.254  0.00  0.00    +0.000 A 
ATOM     14  C   UNL     1       1.721   0.853  -0.165  0.00  0.00    +0.000 A 
ATOM     15  C   UNL     1       0.606   0.190   0.283  0.00  0.00    +0.000 A 
ATOM     16  C   UNL     1       0.787  -1.123   0.643  0.00  0.00    +0.000 A 
ATOM     17  C   UNL     1       2.011  -1.755   0.566  0.00  0.00    +0.000 A 
BRANCH  12  18
ATOM     18  O   UNL     1       4.344  -1.713   0.039  0.00  0.00    +0.000 OA
BRANCH  18  20
ATOM     19  C   UNL     1       5.186  -0.557  -1.842  0.00  0.00    +0.000 C 
ATOM     20  C   UNL     1       5.475  -1.022  -0.421  0.00  0.00    +0.000 C 
ENDBRANCH  18  20
ENDBRANCH  12  18
ENDBRANCH   1  15
TORSDOF 3
