REMARK  Name = 
REMARK  3 active torsions:
REMARK  status: ('A' for Active; 'I' for Inactive)
REMARK    1  A    between atoms: C_6  and  N_7
REMARK    2  A    between atoms: N_7  and  N_8
REMARK    3  A    between atoms: N_8  and  C_9
REMARK                            x       y       z     vdW  Elec       q    Type
REMARK                         _______ _______ _______ _____ _____    ______ ____
ROOT
ATOM      1 CL   UNL     1       4.002   3.410  -0.166  0.00  0.00    +0.000 Cl
ATOM      2  C   UNL     1       2.988   1.984  -0.058  0.00  0.00    +0.000 A 
ATOM      3  C   UNL     1       1.659   2.045   0.303  0.00  0.00    +0.000 A 
ATOM      4  C   UNL     1       0.893   0.904   0.379  0.00  0.00    +0.000 A 
ATOM      5  C   UNL     1       1.413  -0.360   0.098  0.00  0.00    +0.000 A 
ATOM      6  C   UNL     1       0.631  -1.492   0.175  0.00  0.00    +0.000 A 
ATOM      7  C   UNL     1       1.257  -2.699  -0.132  0.00  0.00    +0.000 A 
ATOM      8  C   UNL     1       2.562  -2.660  -0.477  0.00  0.00    +0.000 A 
ATOM      9  N   UNL     1       3.337  -1.579  -0.557  0.00  0.00    +0.000 NA
ATOM     10  C   UNL     1       2.750  -0.399  -0.264  0.00  0.00    +0.000 A 
ATOM     11  C   UNL     1       3.521   0.742  -0.340  0.00  0.00    +0.000 A 
ENDROOT
BRANCH   6  12
ATOM     12  N   UNL     1      -0.739  -1.427   0.540  0.00  0.00    +0.000 NA
BRANCH  12  13
ATOM     13  N   UNL     1      -1.760  -1.400  -0.415  0.00  0.00    +0.000 NA
BRANCH  13  14
ATOM     14  C   UNL     1      -2.904  -0.584  -0.281  0.00  0.00    +0.000 C 
ATOM     15  C   UNL     1      -3.517  -0.025  -1.319  0.00  0.00    +0.000 C 
ATOM     16  C   UNL     1      -4.714   0.805  -0.982  0.00  0.00    +0.000 C 
ATOM     17  C   UNL     1      -4.377   1.802   0.102  0.00  0.00    +0.000 C 
ATOM     18  C   UNL     1      -3.491   1.225   1.182  0.00  0.00    +0.000 C 
ATOM     19  C   UNL     1      -3.510  -0.293   1.044  0.00  0.00    +0.000 C 
ENDBRANCH  13  14
ENDBRANCH  12  13
ENDBRANCH   6  12
TORSDOF 3
