REMARK  Name = 
REMARK  2 active torsions:
REMARK  status: ('A' for Active; 'I' for Inactive)
REMARK    1  A    between atoms: C_5  and  C_6
REMARK    2  A    between atoms: N_8  and  C_9
REMARK                            x       y       z     vdW  Elec       q    Type
REMARK                         _______ _______ _______ _____ _____    ______ ____
ROOT
ATOM      1  C   UNL     1       0.984  -0.598  -0.508  0.00  0.00    +0.000 C 
ATOM      2  O   UNL     1       0.493  -1.420  -1.307  0.00  0.00    +0.000 OA
ATOM      3  N   UNL     1       0.087   0.307   0.125  0.00  0.00    +0.000 NA
ENDROOT
BRANCH   3   4
ATOM      4  C   UNL     1      -1.306   0.308  -0.112  0.00  0.00    +0.000 A 
ATOM      5  C   UNL     1      -1.826  -0.605  -0.995  0.00  0.00    +0.000 A 
ATOM      6  C   UNL     1      -3.198  -0.626  -1.247  0.00  0.00    +0.000 A 
ATOM      7  C   UNL     1      -3.758  -1.607  -2.195  0.00  0.00    +0.000 C 
ATOM      8  C   UNL     1      -3.979   0.293  -0.582  0.00  0.00    +0.000 A 
ATOM      9  O   UNL     1      -5.361   0.260  -0.847  0.00  0.00    +0.000 OA
ATOM     10  C   UNL     1      -3.461   1.211   0.304  0.00  0.00    +0.000 A 
ATOM     11 BR   UNL     1      -4.570   2.466   1.206  0.00  0.00    +0.000 Br
ATOM     12  C   UNL     1      -2.098   1.217   0.542  0.00  0.00    +0.000 A 
ATOM     13  C   UNL     1      -1.507   2.187   1.486  0.00  0.00    +0.000 C 
ENDBRANCH   3   4
BRANCH   1  18
ATOM     14  C   UNL     1       6.656  -0.401   0.632  0.00  0.00    +0.000 C 
ATOM     15  C   UNL     1       5.193  -0.449   0.340  0.00  0.00    +0.000 A 
ATOM     16  C   UNL     1       4.660  -1.365  -0.547  0.00  0.00    +0.000 A 
ATOM     17  C   UNL     1       3.308  -1.414  -0.820  0.00  0.00    +0.000 A 
ATOM     18  C   UNL     1       2.426  -0.547  -0.218  0.00  0.00    +0.000 A 
ATOM     19  C   UNL     1       2.953   0.367   0.666  0.00  0.00    +0.000 A 
ATOM     20  C   UNL     1       4.304   0.419   0.943  0.00  0.00    +0.000 A 
ENDBRANCH   1  18
TORSDOF 2
