REMARK  Name = 
REMARK  2 active torsions:
REMARK  status: ('A' for Active; 'I' for Inactive)
REMARK    1  A    between atoms: C_2  and  C_4
REMARK    2  A    between atoms: C_10  and  C_11
REMARK                            x       y       z     vdW  Elec       q    Type
REMARK                         _______ _______ _______ _____ _____    ______ ____
ROOT
ATOM      1  C   UNL     1       3.444  -0.219   0.248  0.00  0.00    +0.000 A 
ATOM      2  C   UNL     1       2.625   0.674  -0.330  0.00  0.00    +0.000 A 
ATOM      3  C   UNL     1       1.299   0.516  -0.234  0.00  0.00    +0.000 A 
ATOM      4  C   UNL     1       0.842  -0.564   0.458  0.00  0.00    +0.000 A 
ATOM      5  S   UNL     1       2.320  -1.319   0.949  0.00  0.00    +0.000 S 
ATOM      6  N   UNL     1      -0.560  -0.804   0.610  0.00  0.00    +0.000 NA
ATOM      7  C   UNL     1      -1.372  -0.449  -0.695  0.00  0.00    +0.000 C 
ATOM      8  N   UNL     1      -1.097   1.093  -0.580  0.00  0.00    +0.000 NA
ATOM      9  C   UNL     1       0.244   1.403  -0.790  0.00  0.00    +0.000 C 
ATOM     10  O   UNL     1       0.576   2.440  -1.455  0.00  0.00    +0.000 OA
ENDROOT
BRANCH   7  11
ATOM     11  C   UNL     1      -2.808  -0.414   0.014  0.00  0.00    +0.000 A 
ATOM     12  C   UNL     1      -3.841  -1.049  -0.634  0.00  0.00    +0.000 A 
ATOM     13  C   UNL     1      -5.092  -1.055  -0.079  0.00  0.00    +0.000 A 
ATOM     14  C   UNL     1      -5.263  -0.404   1.139  0.00  0.00    +0.000 A 
ATOM     15  C   UNL     1      -4.211   0.227   1.768  0.00  0.00    +0.000 A 
ATOM     16  C   UNL     1      -2.968   0.208   1.174  0.00  0.00    +0.000 A 
ENDBRANCH   7  11
BRANCH   1  18
ATOM     17  C   UNL     1       5.478  -1.231  -0.750  0.00  0.00    +0.000 C 
ATOM     18  C   UNL     1       4.931  -0.211   0.249  0.00  0.00    +0.000 C 
ATOM     19  C   UNL     1       5.453   1.157   0.019  0.00  0.00    +0.000 C 
ENDBRANCH   1  18
TORSDOF 2
