REMARK  Name = 
REMARK  4 active torsions:
REMARK  status: ('A' for Active; 'I' for Inactive)
REMARK    1  A    between atoms: C_2  and  C_3
REMARK    2  A    between atoms: C_3  and  C_4
REMARK    3  A    between atoms: C_4  and  C_5
REMARK    4  A    between atoms: C_5  and  N_6
REMARK                            x       y       z     vdW  Elec       q    Type
REMARK                         _______ _______ _______ _____ _____    ______ ____
ROOT
ATOM      1  N   UNL     1       1.498  -0.865   0.869  0.00  0.00    +0.000 N 
ATOM      2  C   UNL     1       0.879  -1.577  -0.100  0.00  0.00    +0.000 A 
ATOM      3  N   UNL     1      -0.344  -1.272  -0.565  0.00  0.00    +0.000 NA
ATOM      4  C   UNL     1      -0.988  -0.215  -0.049  0.00  0.00    +0.000 A 
ATOM      5  C   UNL     1      -0.398   0.554   0.951  0.00  0.00    +0.000 A 
ATOM      6  N   UNL     1      -1.271   1.529   1.262  0.00  0.00    +0.000 NA
ATOM      7  C   UNL     1      -2.371   1.394   0.497  0.00  0.00    +0.000 A 
ATOM      8  C   UNL     1      -3.523   2.123   0.435  0.00  0.00    +0.000 A 
ATOM      9  C   UNL     1      -4.536   1.791  -0.445  0.00  0.00    +0.000 A 
ATOM     10  C   UNL     1      -4.369   0.700  -1.272  0.00  0.00    +0.000 A 
ATOM     11  C   UNL     1      -3.233  -0.062  -1.246  0.00  0.00    +0.000 A 
ATOM     12 CL   UNL     1      -3.021  -1.450  -2.297  0.00  0.00    +0.000 Cl
ATOM     13  C   UNL     1      -2.238   0.308  -0.344  0.00  0.00    +0.000 A 
ATOM     14  C   UNL     1       0.859   0.197   1.392  0.00  0.00    +0.000 A 
ATOM     15  O   UNL     1       1.433   0.859   2.292  0.00  0.00    +0.000 OA
ENDROOT
BRANCH   1  16
ATOM     16  C   UNL     1       2.802  -1.263   1.302  0.00  0.00    +0.000 C 
BRANCH  16  17
ATOM     17  C   UNL     1       3.921  -0.612   0.518  0.00  0.00    +0.000 C 
BRANCH  17  18
ATOM     18  C   UNL     1       3.764  -1.004  -0.944  0.00  0.00    +0.000 C 
BRANCH  18  20
ATOM     19  C   UNL     1       6.250  -0.789  -1.206  0.00  0.00    +0.000 C 
ATOM     20  C   UNL     1       4.886  -0.346  -1.702  0.00  0.00    +0.000 C 
ENDBRANCH  18  20
ENDBRANCH  17  18
ENDBRANCH  16  17
ENDBRANCH   1  16
TORSDOF 4
