REMARK  Name = 
REMARK  3 active torsions:
REMARK  status: ('A' for Active; 'I' for Inactive)
REMARK    1  A    between atoms: C_2  and  C_10
REMARK    2  A    between atoms: N_3  and  C_4
REMARK    3  A    between atoms: C_4  and  C_5
REMARK                            x       y       z     vdW  Elec       q    Type
REMARK                         _______ _______ _______ _____ _____    ______ ____
ROOT
ATOM      1  C   UNL     1       0.340  -0.096  -0.813  0.00  0.00    +0.000 A 
ATOM      2  C   UNL     1       0.127  -1.168  -1.645  0.00  0.00    +0.000 A 
ATOM      3  C   UNL     1      -1.111  -1.756  -1.690  0.00  0.00    +0.000 A 
ATOM      4  C   UNL     1      -2.133  -1.269  -0.901  0.00  0.00    +0.000 A 
ATOM      5  N   UNL     1      -3.410  -1.667  -0.770  0.00  0.00    +0.000 NA
ATOM      6  C   UNL     1      -4.030  -0.897   0.111  0.00  0.00    +0.000 A 
ATOM      7  C   UNL     1      -3.156   0.052   0.597  0.00  0.00    +0.000 A 
ATOM      8  C   UNL     1      -1.956  -0.180  -0.042  0.00  0.00    +0.000 A 
ATOM      9  C   UNL     1      -0.690   0.382  -0.029  0.00  0.00    +0.000 A 
ATOM     10  C   UNL     1      -3.500   1.078   1.593  0.00  0.00    +0.000 C 
ATOM     11  C   UNL     1      -4.965   1.236   1.819  0.00  0.00    +0.000 C 
ATOM     12  C   UNL     1      -5.825   0.551   0.811  0.00  0.00    +0.000 C 
ATOM     13  C   UNL     1      -5.424  -0.906   0.615  0.00  0.00    +0.000 C 
ENDROOT
BRANCH   1  15
ATOM     14  O   UNL     1       1.904   1.481  -0.048  0.00  0.00    +0.000 OA
ATOM     15  C   UNL     1       1.670   0.497  -0.797  0.00  0.00    +0.000 C 
ATOM     16  N   UNL     1       2.717  -0.001  -1.605  0.00  0.00    +0.000 NA
BRANCH  16  17
ATOM     17  C   UNL     1       4.041   0.568  -1.608  0.00  0.00    +0.000 C 
BRANCH  17  18
ATOM     18  C   UNL     1       4.643   0.494  -0.258  0.00  0.00    +0.000 A 
ATOM     19  C   UNL     1       5.897   0.933   0.148  0.00  0.00    +0.000 A 
ATOM     20  C   UNL     1       6.005   0.645   1.503  0.00  0.00    +0.000 A 
ATOM     21  C   UNL     1       4.806   0.043   1.850  0.00  0.00    +0.000 A 
ATOM     22  O   UNL     1       4.049  -0.020   0.791  0.00  0.00    +0.000 OA
ENDBRANCH  17  18
ENDBRANCH  16  17
ENDBRANCH   1  15
TORSDOF 3
