REMARK  Name = 
REMARK  3 active torsions:
REMARK  status: ('A' for Active; 'I' for Inactive)
REMARK    1  A    between atoms: C_2  and  C_12
REMARK    2  A    between atoms: N_3  and  N_4
REMARK    3  A    between atoms: N_4  and  C_5
REMARK                            x       y       z     vdW  Elec       q    Type
REMARK                         _______ _______ _______ _____ _____    ______ ____
ROOT
ATOM      1  O   UNL     1      -0.551  -0.245  -1.001  0.00  0.00    +0.000 OA
ATOM      2  C   UNL     1      -1.132   0.213   0.015  0.00  0.00    +0.000 C 
ATOM      3  N   UNL     1      -0.299   0.678   1.068  0.00  0.00    +0.000 NA
ENDROOT
BRANCH   2   4
ATOM      4  C   UNL     1      -2.588   0.259   0.091  0.00  0.00    +0.000 A 
ATOM      5  C   UNL     1      -3.245   0.757   1.194  0.00  0.00    +0.000 A 
ATOM      6  C   UNL     1      -4.622   0.804   1.276  0.00  0.00    +0.000 A 
ATOM      7  C   UNL     1      -5.366   0.336   0.214  0.00  0.00    +0.000 A 
ATOM      8  C   UNL     1      -4.749  -0.172  -0.910  0.00  0.00    +0.000 A 
ATOM      9  C   UNL     1      -3.351  -0.204  -0.958  0.00  0.00    +0.000 A 
ATOM     10  O   UNL     1      -2.679  -0.704  -2.066  0.00  0.00    +0.000 OA
ENDBRANCH   2   4
BRANCH   3  11
ATOM     11  N   UNL     1       1.101   0.634   0.994  0.00  0.00    +0.000 NA
BRANCH  11  12
ATOM     12  C   UNL     1       1.696  -0.392   0.239  0.00  0.00    +0.000 C 
ATOM     13  C   UNL     1       3.007  -0.478   0.194  0.00  0.00    +0.000 C 
ATOM     14  C   UNL     1       3.873   0.481   0.920  0.00  0.00    +0.000 C 
ATOM     15  C   UNL     1       5.295   0.265   0.488  0.00  0.00    +0.000 C 
ATOM     16  C   UNL     1       5.339   0.247  -1.021  0.00  0.00    +0.000 C 
ATOM     17  C   UNL     1       4.606  -0.934  -1.606  0.00  0.00    +0.000 C 
ATOM     18  C   UNL     1       3.664  -1.545  -0.591  0.00  0.00    +0.000 C 
ENDBRANCH  11  12
ENDBRANCH   3  11
TORSDOF 3
