REMARK  Name = 
REMARK  2 active torsions:
REMARK  status: ('A' for Active; 'I' for Inactive)
REMARK    1  A    between atoms: C_5  and  N_6
REMARK    2  A    between atoms: N_11  and  C_12
REMARK                            x       y       z     vdW  Elec       q    Type
REMARK                         _______ _______ _______ _____ _____    ______ ____
ROOT
ATOM      1  N   UNL     1      -0.485   1.194   0.937  0.00  0.00    +0.000 N 
ATOM      2  N   UNL     1      -0.800   2.230   1.721  0.00  0.00    +0.000 NA
ATOM      3  C   UNL     1       0.331   2.714   2.245  0.00  0.00    +0.000 A 
ATOM      4  O   UNL     1       0.474   3.801   3.126  0.00  0.00    +0.000 OA
ATOM      5  N   UNL     1       1.341   1.964   1.774  0.00  0.00    +0.000 NA
ATOM      6  N   UNL     1       0.829   1.024   0.964  0.00  0.00    +0.000 N 
ENDROOT
BRANCH   1  11
ATOM      7  C   UNL     1      -4.387  -1.884  -1.942  0.00  0.00    +0.000 C 
ATOM      8  C   UNL     1      -3.373  -1.085  -1.193  0.00  0.00    +0.000 A 
ATOM      9  C   UNL     1      -2.724  -1.588  -0.085  0.00  0.00    +0.000 A 
ATOM     10  C   UNL     1      -1.787  -0.846   0.604  0.00  0.00    +0.000 A 
ATOM     11  C   UNL     1      -1.457   0.436   0.215  0.00  0.00    +0.000 A 
ATOM     12  C   UNL     1      -2.105   0.940  -0.894  0.00  0.00    +0.000 A 
ATOM     13  C   UNL     1      -3.042   0.197  -1.583  0.00  0.00    +0.000 A 
ENDBRANCH   1  11
BRANCH   6  14
ATOM     14  C   UNL     1       1.546   0.018   0.253  0.00  0.00    +0.000 A 
ATOM     15  C   UNL     1       2.127   0.236  -0.979  0.00  0.00    +0.000 A 
ATOM     16  C   UNL     1       2.816  -0.753  -1.649  0.00  0.00    +0.000 A 
ATOM     17  C   UNL     1       2.953  -2.014  -1.105  0.00  0.00    +0.000 A 
ATOM     18  C   UNL     1       3.686  -3.107  -1.790  0.00  0.00    +0.000 C 
ATOM     19  C   UNL     1       2.373  -2.236   0.128  0.00  0.00    +0.000 A 
ATOM     20  C   UNL     1       1.684  -1.243   0.795  0.00  0.00    +0.000 A 
ENDBRANCH   6  14
TORSDOF 2
