REMARK  Name = 
REMARK  1 active torsions:
REMARK  status: ('A' for Active; 'I' for Inactive)
REMARK    1  A    between atoms: C_4  and  C_5
REMARK                            x       y       z     vdW  Elec       q    Type
REMARK                         _______ _______ _______ _____ _____    ______ ____
ROOT
ATOM      1  C   UNL     1       0.826  -0.217   0.043  0.00  0.00    +0.000 A 
ATOM      2  N   UNL     1      -0.139   0.739  -0.092  0.00  0.00    +0.000 NA
ATOM      3  C   UNL     1      -1.370   0.172   0.001  0.00  0.00    +0.000 A 
ATOM      4  C   UNL     1      -2.651   0.744  -0.069  0.00  0.00    +0.000 A 
ATOM      5  C   UNL     1      -2.982   2.033  -0.240  0.00  0.00    +0.000 A 
ATOM      6  C   UNL     1      -4.285   2.381  -0.265  0.00  0.00    +0.000 A 
ATOM      7  S   UNL     1      -5.068   0.883  -0.044  0.00  0.00    +0.000 S 
ATOM      8  C   UNL     1      -3.698  -0.135   0.070  0.00  0.00    +0.000 A 
ATOM      9  C   UNL     1      -3.479  -1.501   0.266  0.00  0.00    +0.000 A 
ATOM     10  C   UNL     1      -2.203  -2.037   0.329  0.00  0.00    +0.000 A 
ATOM     11  N   UNL     1      -1.198  -1.135   0.190  0.00  0.00    +0.000 N 
ATOM     12  C   UNL     1       0.148  -1.387   0.219  0.00  0.00    +0.000 A 
ATOM     13  N   UNL     1       0.692  -2.683   0.384  0.00  0.00    +0.000 NA
ENDROOT
BRANCH   1  17
ATOM     14  C   UNL     1       5.078   2.426  -0.275  0.00  0.00    +0.000 C 
ATOM     15  C   UNL     1       4.171   1.245  -0.175  0.00  0.00    +0.000 A 
ATOM     16  C   UNL     1       2.782   1.377  -0.082  0.00  0.00    +0.000 A 
ATOM     17  C   UNL     1       2.258   0.079  -0.014  0.00  0.00    +0.000 A 
ATOM     18  C   UNL     1       3.338  -0.728  -0.066  0.00  0.00    +0.000 A 
ATOM     19  C   UNL     1       3.308  -2.229  -0.018  0.00  0.00    +0.000 C 
ATOM     20  O   UNL     1       4.473  -0.027  -0.163  0.00  0.00    +0.000 OA
ENDBRANCH   1  17
TORSDOF 1
