REMARK  Name = 
REMARK  3 active torsions:
REMARK  status: ('A' for Active; 'I' for Inactive)
REMARK    1  A    between atoms: N_4  and  C_5
REMARK    2  A    between atoms: C_8  and  C_9
REMARK    3  A    between atoms: C_17  and  C_18
REMARK                            x       y       z     vdW  Elec       q    Type
REMARK                         _______ _______ _______ _____ _____    ______ ____
ROOT
ATOM      1  C   UNL     1      -2.016   0.272  -0.974  0.00  0.00    +0.000 A 
ATOM      2  S   UNL     1      -1.333   0.887  -2.498  0.00  0.00    +0.000 S 
ATOM      3  C   UNL     1       0.285   0.754  -2.138  0.00  0.00    +0.000 A 
ATOM      4  C   UNL     1       0.311   0.252  -0.878  0.00  0.00    +0.000 A 
ATOM      5  C   UNL     1      -0.885  -0.002  -0.268  0.00  0.00    +0.000 A 
ENDROOT
BRANCH   4   6
ATOM      6  C   UNL     1       1.636  -0.047  -0.234  0.00  0.00    +0.000 A 
ATOM      7  C   UNL     1       2.257  -1.268  -0.337  0.00  0.00    +0.000 A 
ATOM      8  C   UNL     1       3.495  -1.476   0.258  0.00  0.00    +0.000 A 
ATOM      9  C   UNL     1       4.138  -0.482   0.960  0.00  0.00    +0.000 A 
ATOM     10  C   UNL     1       5.477  -0.696   1.605  0.00  0.00    +0.000 C 
ATOM     11  C   UNL     1       3.506   0.752   1.062  0.00  0.00    +0.000 A 
ATOM     12  C   UNL     1       2.281   0.944   0.470  0.00  0.00    +0.000 A 
ATOM     13  C   UNL     1       1.627   2.295   0.618  0.00  0.00    +0.000 C 
ENDBRANCH   4   6
BRANCH   1  17
ATOM     14  C   UNL     1      -5.858   0.191  -0.903  0.00  0.00    +0.000 C 
ATOM     15  C   UNL     1      -4.511  -0.055  -0.266  0.00  0.00    +0.000 C 
ATOM     16  O   UNL     1      -4.501  -0.544   0.917  0.00  0.00    +0.000 OA
ATOM     17  N   UNL     1      -3.359   0.187  -0.812  0.00  0.00    +0.000 NA
ENDBRANCH   1  17
BRANCH   5  18
ATOM     18  C   UNL     1      -0.866  -0.506   1.158  0.00  0.00    +0.000 C 
ATOM     19  N   UNL     1       0.280  -0.817   1.846  0.00  0.00    +0.000 NA
ATOM     20  O   UNL     1      -1.963  -0.643   1.740  0.00  0.00    +0.000 OA
ENDBRANCH   5  18
TORSDOF 3
