REMARK  Name = 
REMARK  3 active torsions:
REMARK  status: ('A' for Active; 'I' for Inactive)
REMARK    1  A    between atoms: C_4  and  N_5
REMARK    2  A    between atoms: C_6  and  C_8
REMARK    3  A    between atoms: C_12  and  N_13
REMARK                            x       y       z     vdW  Elec       q    Type
REMARK                         _______ _______ _______ _____ _____    ______ ____
ROOT
ATOM      1  N   UNL     1      -0.969  -0.128  -0.223  0.00  0.00    +0.000 NA
ATOM      2  C   UNL     1       0.339  -0.359   0.292  0.00  0.00    +0.000 C 
ATOM      3  O   UNL     1       0.553  -1.522   0.726  0.00  0.00    +0.000 OA
ENDROOT
BRANCH   1   7
ATOM      4  C   UNL     1      -2.952   0.629  -1.494  0.00  0.00    +0.000 C 
ATOM      5  C   UNL     1      -3.025  -0.757  -1.256  0.00  0.00    +0.000 C 
ATOM      6  C   UNL     1      -2.807  -1.604  -2.503  0.00  0.00    +0.000 C 
ATOM      7  C   UNL     1      -1.948  -1.368  -0.194  0.00  0.00    +0.000 C 
ATOM      8  C   UNL     1      -2.811  -0.837   1.113  0.00  0.00    +0.000 C 
ATOM      9  C   UNL     1      -2.020  -1.067   2.297  0.00  0.00    +0.000 C 
ATOM     10  C   UNL     1      -3.359   0.457   0.810  0.00  0.00    +0.000 C 
ATOM     11  C   UNL     1      -4.705   0.185   0.220  0.00  0.00    +0.000 C 
ATOM     12  C   UNL     1      -4.420  -1.250  -0.584  0.00  0.00    +0.000 C 
ATOM     13  C   UNL     1      -3.770  -1.927   0.777  0.00  0.00    +0.000 C 
ENDBRANCH   1   7
BRANCH   2  14
ATOM     14  C   UNL     1       1.399   0.604   0.352  0.00  0.00    +0.000 A 
ATOM     15  C   UNL     1       1.266   1.982   0.344  0.00  0.00    +0.000 A 
ATOM     16  C   UNL     1       2.362   2.842   0.368  0.00  0.00    +0.000 A 
ATOM     17  C   UNL     1       3.625   2.313   0.401  0.00  0.00    +0.000 A 
ATOM     18  C   UNL     1       3.827   0.928   0.412  0.00  0.00    +0.000 A 
ATOM     19  C   UNL     1       2.725   0.172   0.390  0.00  0.00    +0.000 A 
BRANCH  18  20
ATOM     20  N   UNL     1       5.148   0.390   0.454  0.00  0.00    +0.000 N 
ATOM     21  O   UNL     1       5.261  -0.840   0.532  0.00  0.00    +0.000 OA
ATOM     22  O   UNL     1       6.283   1.156   0.426  0.00  0.00    +0.000 OA
ENDBRANCH  18  20
ENDBRANCH   2  14
TORSDOF 3
