REMARK  Name = 
REMARK  4 active torsions:
REMARK  status: ('A' for Active; 'I' for Inactive)
REMARK    1  A    between atoms: C_8  and  N_9
REMARK    2  A    between atoms: C_10  and  O_12
REMARK    3  A    between atoms: O_12  and  C_13
REMARK    4  A    between atoms: C_13  and  C_14
REMARK                            x       y       z     vdW  Elec       q    Type
REMARK                         _______ _______ _______ _____ _____    ______ ____
ROOT
ATOM      1  N   UNL     1      -1.587  -0.885   0.047  0.00  0.00    +0.000 NA
ATOM      2  C   UNL     1      -0.578   0.102   0.078  0.00  0.00    +0.000 C 
ATOM      3  O   UNL     1      -0.969   1.301   0.189  0.00  0.00    +0.000 OA
ENDROOT
BRANCH   1  11
ATOM      4  C   UNL     1      -2.886  -0.709   2.622  0.00  0.00    +0.000 C 
ATOM      5  C   UNL     1      -3.608  -0.434   1.355  0.00  0.00    +0.000 A 
ATOM      6  C   UNL     1      -4.932  -0.087   1.432  0.00  0.00    +0.000 A 
ATOM      7  C   UNL     1      -5.631   0.174   0.280  0.00  0.00    +0.000 A 
ATOM      8  C   UNL     1      -5.017   0.092  -0.951  0.00  0.00    +0.000 A 
ATOM      9  C   UNL     1      -3.689  -0.258  -0.994  0.00  0.00    +0.000 A 
ATOM     10  C   UNL     1      -3.054  -0.338  -2.359  0.00  0.00    +0.000 C 
ATOM     11  C   UNL     1      -2.982  -0.521   0.139  0.00  0.00    +0.000 A 
ENDBRANCH   1  11
BRANCH   2  12
ATOM     12  O   UNL     1       0.780  -0.169  -0.005  0.00  0.00    +0.000 OA
BRANCH  12  13
ATOM     13  C   UNL     1       1.670   0.929   0.040  0.00  0.00    +0.000 C 
BRANCH  13  14
ATOM     14  C   UNL     1       3.059   0.390  -0.065  0.00  0.00    +0.000 A 
ATOM     15  C   UNL     1       3.256  -0.959  -0.179  0.00  0.00    +0.000 A 
ATOM     16  C   UNL     1       4.522  -1.475  -0.277  0.00  0.00    +0.000 A 
ATOM     17  C   UNL     1       5.594  -0.620  -0.259  0.00  0.00    +0.000 A 
ATOM     18  N   UNL     1       5.389   0.705  -0.147  0.00  0.00    +0.000 N 
ATOM     19  O   UNL     1       6.505   1.543  -0.133  0.00  0.00    +0.000 OA
ATOM     20  C   UNL     1       4.159   1.220  -0.051  0.00  0.00    +0.000 A 
ENDBRANCH  13  14
ENDBRANCH  12  13
ENDBRANCH   2  12
TORSDOF 4
