REMARK  Name = 
REMARK  3 active torsions:
REMARK  status: ('A' for Active; 'I' for Inactive)
REMARK    1  A    between atoms: C_2  and  C_11
REMARK    2  A    between atoms: N_3  and  C_4
REMARK    3  A    between atoms: C_4  and  C_5
REMARK                            x       y       z     vdW  Elec       q    Type
REMARK                         _______ _______ _______ _____ _____    ______ ____
ROOT
ATOM      1  O   UNL     1       0.878   0.558   1.250  0.00  0.00    +0.000 OA
ATOM      2  C   UNL     1       0.222   0.519   0.153  0.00  0.00    +0.000 C 
ATOM      3  N   UNL     1       0.969   0.878  -1.003  0.00  0.00    +0.000 NA
ENDROOT
BRANCH   2   4
ATOM      4  C   UNL     1      -1.174   0.137   0.111  0.00  0.00    +0.000 A 
ATOM      5  C   UNL     1      -1.817   0.117  -1.100  0.00  0.00    +0.000 A 
ATOM      6  C   UNL     1      -3.117  -0.219  -1.286  0.00  0.00    +0.000 A 
ATOM      7  C   UNL     1      -3.902  -0.584  -0.168  0.00  0.00    +0.000 A 
ATOM      8  N   UNL     1      -5.158  -0.929  -0.195  0.00  0.00    +0.000 NA
ATOM      9  C   UNL     1      -5.780  -1.248   0.926  0.00  0.00    +0.000 A 
ATOM     10  S   UNL     1      -4.547  -1.058   2.093  0.00  0.00    +0.000 S 
ATOM     11  C   UNL     1      -3.283  -0.572   1.056  0.00  0.00    +0.000 A 
ATOM     12  C   UNL     1      -1.929  -0.216   1.207  0.00  0.00    +0.000 A 
ENDBRANCH   2   4
BRANCH   3  13
ATOM     13  C   UNL     1       2.347   1.256  -0.964  0.00  0.00    +0.000 C 
BRANCH  13  14
ATOM     14  C   UNL     1       3.261   0.206  -0.421  0.00  0.00    +0.000 C 
ATOM     15  C   UNL     1       3.266  -1.070  -1.174  0.00  0.00    +0.000 C 
ATOM     16  C   UNL     1       4.055  -2.078  -0.407  0.00  0.00    +0.000 C 
ATOM     17  C   UNL     1       5.478  -1.629  -0.282  0.00  0.00    +0.000 C 
ATOM     18  C   UNL     1       5.682  -0.236   0.120  0.00  0.00    +0.000 C 
ATOM     19  C   UNL     1       4.551   0.687   0.081  0.00  0.00    +0.000 C 
ENDBRANCH  13  14
ENDBRANCH   3  13
TORSDOF 3
