REMARK  Name = 
REMARK  2 active torsions:
REMARK  status: ('A' for Active; 'I' for Inactive)
REMARK    1  A    between atoms: C_6  and  C_7
REMARK    2  A    between atoms: N_9  and  C_10
REMARK                            x       y       z     vdW  Elec       q    Type
REMARK                         _______ _______ _______ _____ _____    ______ ____
ROOT
ATOM      1  N   UNL     1       0.905   3.594   0.182  0.00  0.00    +0.000 NA
ATOM      2  C   UNL     1       1.490   2.323   0.562  0.00  0.00    +0.000 A 
ATOM      3  S   UNL     1       3.045   2.001   1.183  0.00  0.00    +0.000 S 
ATOM      4  C   UNL     1       2.926   0.315   1.354  0.00  0.00    +0.000 A 
ATOM      5  C   UNL     1       1.660   0.043   0.916  0.00  0.00    +0.000 A 
ATOM      6  C   UNL     1       0.912   1.081   0.505  0.00  0.00    +0.000 A 
ATOM      7  C   UNL     1       1.133  -1.382   0.901  0.00  0.00    +0.000 C 
ATOM      8  C   UNL     1       1.876  -2.201  -0.118  0.00  0.00    +0.000 C 
ATOM      9  C   UNL     1       3.328  -1.774  -0.203  0.00  0.00    +0.000 C 
ATOM     10  C   UNL     1       3.952  -1.934   1.174  0.00  0.00    +0.000 C 
ATOM     11  C   UNL     1       4.022  -0.580   1.876  0.00  0.00    +0.000 C 
ENDROOT
BRANCH   6  12
ATOM     12  C   UNL     1      -0.480   0.920   0.007  0.00  0.00    +0.000 C 
ATOM     13  O   UNL     1      -1.132   1.915  -0.363  0.00  0.00    +0.000 OA
ATOM     14  N   UNL     1      -1.122  -0.340  -0.072  0.00  0.00    +0.000 NA
BRANCH  14  15
ATOM     15  C   UNL     1      -2.459  -0.466  -0.555  0.00  0.00    +0.000 A 
ATOM     16  C   UNL     1      -3.211   0.594  -0.970  0.00  0.00    +0.000 A 
ATOM     17  C   UNL     1      -4.485   0.405  -1.421  0.00  0.00    +0.000 A 
ATOM     18  C   UNL     1      -5.043  -0.859  -1.468  0.00  0.00    +0.000 A 
ATOM     19  C   UNL     1      -4.294  -1.925  -1.054  0.00  0.00    +0.000 A 
ATOM     20  C   UNL     1      -3.024  -1.728  -0.605  0.00  0.00    +0.000 A 
ENDBRANCH  14  15
ENDBRANCH   6  12
TORSDOF 2
