REMARK  Name = 
REMARK  4 active torsions:
REMARK  status: ('A' for Active; 'I' for Inactive)
REMARK    1  A    between atoms: C_2  and  C_3
REMARK    2  A    between atoms: C_4  and  C_5
REMARK    3  A    between atoms: N_7  and  C_8
REMARK    4  A    between atoms: C_13  and  C_14
REMARK                            x       y       z     vdW  Elec       q    Type
REMARK                         _______ _______ _______ _____ _____    ______ ____
ROOT
ATOM      1  C   UNL     1      -0.586  -0.559  -1.049  0.00  0.00    +0.000 C 
ATOM      2  O   UNL     1      -0.197  -1.460  -1.815  0.00  0.00    +0.000 OA
ATOM      3  N   UNL     1       0.336  -0.095  -0.073  0.00  0.00    +0.000 NA
ENDROOT
BRANCH   1   5
ATOM      4  C   UNL     1      -2.565   0.882  -0.375  0.00  0.00    +0.000 A 
ATOM      5  C   UNL     1      -1.970  -0.029  -1.199  0.00  0.00    +0.000 A 
ATOM      6  C   UNL     1      -2.740  -0.461  -2.253  0.00  0.00    +0.000 A 
ATOM      7  S   UNL     1      -4.206   0.372  -2.082  0.00  0.00    +0.000 S 
ATOM      8  C   UNL     1      -3.838   1.258  -0.683  0.00  0.00    +0.000 A 
ATOM      9  C   UNL     1      -4.702   2.245   0.071  0.00  0.00    +0.000 C 
BRANCH   4  11
ATOM     10  C   UNL     1      -1.853   0.378   1.945  0.00  0.00    +0.000 C 
ATOM     11  C   UNL     1      -1.842   1.443   0.842  0.00  0.00    +0.000 C 
ENDBRANCH   4  11
ENDBRANCH   1   5
BRANCH   3  12
ATOM     12  C   UNL     1       1.665  -0.676  -0.004  0.00  0.00    +0.000 A 
ATOM     13  C   UNL     1       1.985  -1.713  -0.892  0.00  0.00    +0.000 A 
ATOM     14  C   UNL     1       3.227  -2.282  -0.842  0.00  0.00    +0.000 A 
ATOM     15  C   UNL     1       4.168  -1.853   0.067  0.00  0.00    +0.000 A 
ATOM     16  C   UNL     1       3.825  -0.835   0.925  0.00  0.00    +0.000 A 
ATOM     17  C   UNL     1       2.566  -0.220   0.911  0.00  0.00    +0.000 A 
BRANCH  17  18
ATOM     18  C   UNL     1       2.262   0.855   1.832  0.00  0.00    +0.000 C 
ATOM     19  N   UNL     1       3.279   1.268   2.770  0.00  0.00    +0.000 NA
ATOM     20  O   UNL     1       1.187   1.481   1.905  0.00  0.00    +0.000 OA
ENDBRANCH  17  18
ENDBRANCH   3  12
TORSDOF 4
