REMARK  Name = 
REMARK  4 active torsions:
REMARK  status: ('A' for Active; 'I' for Inactive)
REMARK    1  A    between atoms: C_5  and  C_6
REMARK    2  A    between atoms: C_7  and  C_8
REMARK    3  A    between atoms: N_10  and  C_11
REMARK    4  A    between atoms: C_15  and  N_16
REMARK                            x       y       z     vdW  Elec       q    Type
REMARK                         _______ _______ _______ _____ _____    ______ ____
ROOT
ATOM      1  C   UNL     1       0.601   1.306   0.217  0.00  0.00    +0.000 C 
ATOM      2  O   UNL     1       0.246   2.477   0.528  0.00  0.00    +0.000 OA
ATOM      3  N   UNL     1      -0.432   0.331   0.134  0.00  0.00    +0.000 NA
ENDROOT
BRANCH   3   4
ATOM      4  C   UNL     1      -1.799   0.639   0.383  0.00  0.00    +0.000 A 
ATOM      5  C   UNL     1      -2.207   1.929   0.726  0.00  0.00    +0.000 A 
ATOM      6  C   UNL     1      -3.558   2.101   0.942  0.00  0.00    +0.000 A 
ATOM      7  C   UNL     1      -4.476   1.078   0.833  0.00  0.00    +0.000 A 
ATOM      8  C   UNL     1      -4.058  -0.178   0.497  0.00  0.00    +0.000 A 
ATOM      9  C   UNL     1      -2.711  -0.397   0.271  0.00  0.00    +0.000 A 
ATOM     10  C   UNL     1      -2.276  -1.783  -0.097  0.00  0.00    +0.000 C 
BRANCH   8  11
ATOM     11  N   UNL     1      -4.972  -1.283   0.369  0.00  0.00    +0.000 N 
ATOM     12  O   UNL     1      -4.744  -2.197  -0.452  0.00  0.00    +0.000 OA
ATOM     13  O   UNL     1      -6.081  -1.315   1.151  0.00  0.00    +0.000 OA
ENDBRANCH   8  11
ENDBRANCH   3   4
BRANCH   1  15
ATOM     14  C   UNL     1       2.447  -0.181  -0.361  0.00  0.00    +0.000 C 
ATOM     15  C   UNL     1       2.007   1.008  -0.035  0.00  0.00    +0.000 C 
BRANCH  14  20
ATOM     16  C   UNL     1       7.383   0.119  -0.942  0.00  0.00    +0.000 C 
ATOM     17  C   UNL     1       5.992  -0.407  -0.879  0.00  0.00    +0.000 A 
ATOM     18  C   UNL     1       5.612  -1.719  -1.127  0.00  0.00    +0.000 A 
ATOM     19  C   UNL     1       4.264  -1.770  -0.961  0.00  0.00    +0.000 A 
ATOM     20  C   UNL     1       3.853  -0.480  -0.614  0.00  0.00    +0.000 A 
ATOM     21  O   UNL     1       4.908   0.267  -0.583  0.00  0.00    +0.000 OA
ENDBRANCH  14  20
ENDBRANCH   1  15
TORSDOF 4
