REMARK  Name = 
REMARK  4 active torsions:
REMARK  status: ('A' for Active; 'I' for Inactive)
REMARK    1  A    between atoms: C_2  and  C_4
REMARK    2  A    between atoms: C_4  and  C_5
REMARK    3  A    between atoms: N_9  and  C_10
REMARK    4  A    between atoms: C_10  and  C_11
REMARK                            x       y       z     vdW  Elec       q    Type
REMARK                         _______ _______ _______ _____ _____    ______ ____
ROOT
ATOM      1  C   UNL     1       3.119  -0.682   0.669  0.00  0.00    +0.000 C 
ATOM      2  N   UNL     1       2.857  -0.917  -0.882  0.00  0.00    +0.000 NA
ATOM      3  C   UNL     1       1.526  -1.352  -0.928  0.00  0.00    +0.000 C 
ATOM      4  O   UNL     1       1.073  -2.085  -1.849  0.00  0.00    +0.000 OA
ATOM      5  N   UNL     1       0.817  -0.850   0.182  0.00  0.00    +0.000 N 
ATOM      6  C   UNL     1       1.679  -0.079   0.969  0.00  0.00    +0.000 C 
ATOM      7  O   UNL     1       1.558   0.856   1.751  0.00  0.00    +0.000 OA
ENDROOT
BRANCH   1   8
ATOM      8  C   UNL     1       3.837   0.790   0.385  0.00  0.00    +0.000 C 
BRANCH   8  10
ATOM      9  C   UNL     1       5.946  -0.439   0.223  0.00  0.00    +0.000 C 
ATOM     10  C   UNL     1       5.017   0.500  -0.495  0.00  0.00    +0.000 C 
ATOM     11  C   UNL     1       4.673   0.086  -1.885  0.00  0.00    +0.000 C 
ENDBRANCH   8  10
ENDBRANCH   1   8
BRANCH   5  12
ATOM     12  C   UNL     1      -0.588  -1.052   0.526  0.00  0.00    +0.000 C 
BRANCH  12  13
ATOM     13  C   UNL     1      -1.413   0.036  -0.104  0.00  0.00    +0.000 A 
ATOM     14  C   UNL     1      -0.785   1.000  -0.861  0.00  0.00    +0.000 A 
ATOM     15  C   UNL     1      -1.587   1.979  -1.419  0.00  0.00    +0.000 A 
ATOM     16  C   UNL     1      -2.959   2.012  -1.242  0.00  0.00    +0.000 A 
ATOM     17  C   UNL     1      -3.570   1.048  -0.487  0.00  0.00    +0.000 A 
ATOM     18  C   UNL     1      -4.932   1.001  -0.256  0.00  0.00    +0.000 A 
ATOM     19  C   UNL     1      -5.472   0.001   0.513  0.00  0.00    +0.000 A 
ATOM     20  C   UNL     1      -4.684  -0.975   1.072  0.00  0.00    +0.000 A 
ATOM     21  C   UNL     1      -3.340  -0.941   0.852  0.00  0.00    +0.000 A 
ATOM     22  C   UNL     1      -2.772   0.061   0.077  0.00  0.00    +0.000 A 
ENDBRANCH  12  13
ENDBRANCH   5  12
TORSDOF 4
