REMARK  Name = 
REMARK  4 active torsions:
REMARK  status: ('A' for Active; 'I' for Inactive)
REMARK    1  A    between atoms: O_2  and  C_3
REMARK    2  A    between atoms: C_3  and  C_5
REMARK    3  A    between atoms: C_12  and  C_13
REMARK    4  A    between atoms: C_14  and  O_15
REMARK                            x       y       z     vdW  Elec       q    Type
REMARK                         _______ _______ _______ _____ _____    ______ ____
ROOT
ATOM      1  C   UNL     1       1.627  -0.533  -0.108  0.00  0.00    +0.000 C 
ATOM      2  C   UNL     1       2.549  -1.331   0.324  0.00  0.00    +0.000 C 
ATOM      3  C   UNL     1       3.924  -0.659   0.422  0.00  0.00    +0.000 C 
ATOM      4  N   UNL     1       2.402  -2.645   0.861  0.00  0.00    +0.000 NA
ATOM      5  C   UNL     1       1.037  -3.065   0.925  0.00  0.00    +0.000 C 
ATOM      6  O   UNL     1       0.798  -4.264   1.390  0.00  0.00    +0.000 OA
ATOM      7  N   UNL     1       0.025  -2.233   0.512  0.00  0.00    +0.000 NA
ATOM      8  C   UNL     1       0.239  -1.159  -0.469  0.00  0.00    +0.000 C 
ENDROOT
BRANCH   8   9
ATOM      9  C   UNL     1      -0.765  -0.043  -0.013  0.00  0.00    +0.000 A 
ATOM     10  C   UNL     1      -0.658   0.597   1.173  0.00  0.00    +0.000 A 
ATOM     11  C   UNL     1      -1.555   1.586   1.568  0.00  0.00    +0.000 A 
ATOM     12  C   UNL     1      -2.573   1.903   0.707  0.00  0.00    +0.000 A 
ATOM     13  C   UNL     1      -2.710   1.271  -0.507  0.00  0.00    +0.000 A 
ATOM     14  C   UNL     1      -3.748   1.621  -1.342  0.00  0.00    +0.000 A 
ATOM     15  C   UNL     1      -3.906   1.011  -2.548  0.00  0.00    +0.000 A 
ATOM     16  C   UNL     1      -3.023   0.038  -2.935  0.00  0.00    +0.000 A 
ATOM     17  C   UNL     1      -1.988  -0.301  -2.088  0.00  0.00    +0.000 A 
ATOM     18  C   UNL     1      -1.772   0.270  -0.867  0.00  0.00    +0.000 A 
BRANCH  10  19
ATOM     19  O   UNL     1       0.356   0.277   2.025  0.00  0.00    +0.000 OA
ATOM     20  C   UNL     1       0.515   0.914   3.275  0.00  0.00    +0.000 C 
ENDBRANCH  10  19
ENDBRANCH   8   9
BRANCH   1  21
ATOM     21  C   UNL     1       1.886   0.853  -0.438  0.00  0.00    +0.000 C 
ATOM     22  O   UNL     1       0.938   1.567  -0.853  0.00  0.00    +0.000 OA
BRANCH  21  24
ATOM     23  C   UNL     1       3.295   2.842  -0.677  0.00  0.00    +0.000 C 
ATOM     24  O   UNL     1       3.108   1.484  -0.338  0.00  0.00    +0.000 OA
ENDBRANCH  21  24
ENDBRANCH   1  21
TORSDOF 4
