REMARK  Name = 
REMARK  5 active torsions:
REMARK  status: ('A' for Active; 'I' for Inactive)
REMARK    1  A    between atoms: C_2  and  C_3
REMARK    2  A    between atoms: C_3  and  C_4
REMARK    3  A    between atoms: C_4  and  C_5
REMARK    4  A    between atoms: C_5  and  C_6
REMARK    5  A    between atoms: N_12  and  C_13
REMARK                            x       y       z     vdW  Elec       q    Type
REMARK                         _______ _______ _______ _____ _____    ______ ____
ROOT
ATOM      1  C   UNL     1       1.394  -0.891   0.431  0.00  0.00    +0.000 C 
ATOM      2  C   UNL     1       1.174  -2.010  -0.705  0.00  0.00    +0.000 C 
ATOM      3  O   UNL     1       1.799  -3.066  -0.415  0.00  0.00    +0.000 OA
ATOM      4  N   UNL     1       0.394  -1.743  -1.791  0.00  0.00    +0.000 NA
ATOM      5  C   UNL     1      -0.727  -0.873  -1.708  0.00  0.00    +0.000 C 
ATOM      6  S   UNL     1      -1.663  -0.550  -2.987  0.00  0.00    +0.000 S 
ATOM      7  N   UNL     1      -0.991  -0.292  -0.433  0.00  0.00    +0.000 N 
ATOM      8  C   UNL     1      -0.168  -0.585   0.643  0.00  0.00    +0.000 C 
ATOM      9  O   UNL     1      -0.550  -0.638   1.851  0.00  0.00    +0.000 OA
ENDROOT
BRANCH   7  10
ATOM     10  C   UNL     1      -2.103   0.582  -0.192  0.00  0.00    +0.000 A 
ATOM     11  C   UNL     1      -3.167   0.188   0.578  0.00  0.00    +0.000 A 
ATOM     12  C   UNL     1      -4.216   1.081   0.808  0.00  0.00    +0.000 A 
ATOM     13  C   UNL     1      -4.180   2.345   0.262  0.00  0.00    +0.000 A 
ATOM     14  C   UNL     1      -3.122   2.720  -0.496  0.00  0.00    +0.000 A 
ATOM     15  C   UNL     1      -2.100   1.838  -0.714  0.00  0.00    +0.000 A 
ENDBRANCH   7  10
BRANCH   1  16
ATOM     16  C   UNL     1       1.708   0.329  -0.618  0.00  0.00    +0.000 C 
BRANCH  16  17
ATOM     17  C   UNL     1       2.933  -0.141  -1.361  0.00  0.00    +0.000 C 
BRANCH  17  18
ATOM     18  C   UNL     1       4.045  -0.336  -0.316  0.00  0.00    +0.000 C 
BRANCH  18  20
ATOM     19  C   UNL     1       5.306   1.015   1.385  0.00  0.00    +0.000 C 
ATOM     20  C   UNL     1       4.234   1.028   0.321  0.00  0.00    +0.000 C 
ENDBRANCH  18  20
ENDBRANCH  17  18
ENDBRANCH  16  17
ENDBRANCH   1  16
TORSDOF 5
