REMARK  Name = 
REMARK  3 active torsions:
REMARK  status: ('A' for Active; 'I' for Inactive)
REMARK    1  A    between atoms: C_9  and  O_10
REMARK    2  A    between atoms: O_10  and  C_11
REMARK    3  A    between atoms: C_11  and  C_13
REMARK                            x       y       z     vdW  Elec       q    Type
REMARK                         _______ _______ _______ _____ _____    ______ ____
ROOT
ATOM      1  C   UNL     1      -3.902  -0.223   0.336  0.00  0.00    +0.000 C 
ATOM      2  C   UNL     1      -2.468   0.199  -0.173  0.00  0.00    +0.000 C 
ATOM      3  C   UNL     1      -1.569  -0.745   0.475  0.00  0.00    +0.000 C 
ATOM      4  C   UNL     1      -2.422   1.646   0.562  0.00  0.00    +0.000 C 
ATOM      5  C   UNL     1      -3.731   2.175  -0.274  0.00  0.00    +0.000 C 
ATOM      6  C   UNL     1      -3.456   1.678  -1.666  0.00  0.00    +0.000 C 
ATOM      7  C   UNL     1      -2.451   0.562  -1.536  0.00  0.00    +0.000 C 
ATOM      8  C   UNL     1      -2.483  -0.440  -2.602  0.00  0.00    +0.000 C 
ATOM      9  C   UNL     1      -1.006   1.236  -1.483  0.00  0.00    +0.000 C 
ATOM     10  C   UNL     1      -1.350   2.371  -0.400  0.00  0.00    +0.000 C 
ENDROOT
BRANCH   9  11
ATOM     11  O   UNL     1      -0.239   0.233  -0.686  0.00  0.00    +0.000 OA
BRANCH  11  12
ATOM     12  C   UNL     1       1.078   0.420  -0.399  0.00  0.00    +0.000 C 
ATOM     13  O   UNL     1       1.486   1.524  -0.898  0.00  0.00    +0.000 OA
BRANCH  12  14
ATOM     14  C   UNL     1       1.970  -0.433   0.348  0.00  0.00    +0.000 A 
ATOM     15  C   UNL     1       3.276  -0.002   0.501  0.00  0.00    +0.000 A 
ATOM     16  C   UNL     1       4.231  -0.715   1.186  0.00  0.00    +0.000 A 
ATOM     17  C   UNL     1       3.880  -1.910   1.745  0.00  0.00    +0.000 A 
ATOM     18  O   UNL     1       4.892  -2.597   2.432  0.00  0.00    +0.000 OA
ATOM     19  C   UNL     1       2.610  -2.369   1.618  0.00  0.00    +0.000 A 
ATOM     20  C   UNL     1       1.654  -1.623   0.914  0.00  0.00    +0.000 A 
ENDBRANCH  12  14
ENDBRANCH  11  12
ENDBRANCH   9  11
TORSDOF 3
