REMARK  Name = 
REMARK  3 active torsions:
REMARK  status: ('A' for Active; 'I' for Inactive)
REMARK    1  A    between atoms: C_2  and  C_4
REMARK    2  A    between atoms: C_4  and  N_5
REMARK    3  A    between atoms: C_8  and  C_9
REMARK                            x       y       z     vdW  Elec       q    Type
REMARK                         _______ _______ _______ _____ _____    ______ ____
ROOT
ATOM      1  N   UNL     1       3.528  -1.727  -0.061  0.00  0.00    +0.000 NA
ATOM      2  C   UNL     1       2.133  -1.508  -0.387  0.00  0.00    +0.000 A 
ATOM      3  N   UNL     1       1.262  -0.722   0.208  0.00  0.00    +0.000 NA
ATOM      4  C   UNL     1       0.035  -0.664  -0.245  0.00  0.00    +0.000 A 
ATOM      5  C   UNL     1      -0.264  -1.444  -1.332  0.00  0.00    +0.000 A 
ATOM      6  S   UNL     1       1.225  -2.212  -1.641  0.00  0.00    +0.000 S 
ENDROOT
BRANCH   4   7
ATOM      7  C   UNL     1      -0.986   0.205   0.390  0.00  0.00    +0.000 A 
ATOM      8  C   UNL     1      -0.844   1.046   1.484  0.00  0.00    +0.000 A 
ATOM      9  N   UNL     1      -2.016   1.656   1.735  0.00  0.00    +0.000 NA
ATOM     10  C   UNL     1      -2.953   1.257   0.844  0.00  0.00    +0.000 A 
ATOM     11  C   UNL     1      -4.295   1.576   0.664  0.00  0.00    +0.000 A 
ATOM     12  C   UNL     1      -4.947   0.954  -0.380  0.00  0.00    +0.000 A 
ATOM     13  C   UNL     1      -4.330   0.056  -1.222  0.00  0.00    +0.000 A 
ATOM     14  C   UNL     1      -3.004  -0.241  -1.021  0.00  0.00    +0.000 A 
ATOM     15  C   UNL     1      -2.304   0.362   0.020  0.00  0.00    +0.000 A 
ENDBRANCH   4   7
BRANCH   1  16
ATOM     16  C   UNL     1       4.165  -1.062   1.030  0.00  0.00    +0.000 C 
BRANCH  16  18
ATOM     17  C   UNL     1       4.806   1.126   2.027  0.00  0.00    +0.000 C 
ATOM     18  C   UNL     1       4.132   0.444   0.870  0.00  0.00    +0.000 C 
ATOM     19  C   UNL     1       4.655   0.899  -0.456  0.00  0.00    +0.000 C 
ENDBRANCH  16  18
ENDBRANCH   1  16
TORSDOF 3
