REMARK  Name = 
REMARK  1 active torsions:
REMARK  status: ('A' for Active; 'I' for Inactive)
REMARK    1  A    between atoms: C_11  and  C_12
REMARK                            x       y       z     vdW  Elec       q    Type
REMARK                         _______ _______ _______ _____ _____    ______ ____
ROOT
ATOM      1  O   UNL     1       0.001  -1.494   1.472  0.00  0.00    +0.000 OA
ATOM      2  C   UNL     1      -1.121  -1.025   1.066  0.00  0.00    +0.000 C 
ATOM      3  N   UNL     1      -2.410  -1.376   1.561  0.00  0.00    +0.000 NA
ATOM      4  C   UNL     1      -3.392  -0.626   0.846  0.00  0.00    +0.000 A 
ATOM      5  N   UNL     1      -4.758  -0.594   0.933  0.00  0.00    +0.000 NA
ATOM      6  C   UNL     1      -5.511   0.191   0.157  0.00  0.00    +0.000 A 
ATOM      7  C   UNL     1      -4.921   1.020  -0.785  0.00  0.00    +0.000 A 
ATOM      8  C   UNL     1      -3.530   1.021  -0.910  0.00  0.00    +0.000 A 
ATOM      9  C   UNL     1      -2.794   0.180  -0.073  0.00  0.00    +0.000 A 
ATOM     10  C   UNL     1      -1.338  -0.043   0.032  0.00  0.00    +0.000 C 
ATOM     11  C   UNL     1      -0.458   0.565  -0.705  0.00  0.00    +0.000 C 
ENDROOT
BRANCH  11  12
ATOM     12  C   UNL     1       0.967   0.336  -0.591  0.00  0.00    +0.000 A 
ATOM     13  C   UNL     1       1.694  -0.815  -0.489  0.00  0.00    +0.000 A 
ATOM     14  C   UNL     1       3.034  -0.447  -0.403  0.00  0.00    +0.000 A 
ATOM     15  C   UNL     1       3.110   0.916  -0.452  0.00  0.00    +0.000 A 
ATOM     16  N   UNL     1       1.868   1.366  -0.563  0.00  0.00    +0.000 NA
ATOM     17  C   UNL     1       4.382   1.701  -0.384  0.00  0.00    +0.000 C 
ATOM     18  C   UNL     1       5.582   0.795  -0.512  0.00  0.00    +0.000 C 
ATOM     19  C   UNL     1       5.328  -0.410   0.386  0.00  0.00    +0.000 C 
ATOM     20  C   UNL     1       4.270  -1.262  -0.283  0.00  0.00    +0.000 C 
ENDBRANCH  11  12
TORSDOF 1
