REMARK  Name = 
REMARK  2 active torsions:
REMARK  status: ('A' for Active; 'I' for Inactive)
REMARK    1  A    between atoms: C_5  and  N_6
REMARK    2  A    between atoms: C_8  and  N_9
REMARK                            x       y       z     vdW  Elec       q    Type
REMARK                         _______ _______ _______ _____ _____    ______ ____
ROOT
ATOM      1  N   UNL     1       0.221  -1.228  -0.209  0.00  0.00    +0.000 NA
ATOM      2  C   UNL     1      -0.795  -0.470  -0.106  0.00  0.00    +0.000 C 
ATOM      3  C   UNL     1      -0.766   0.955   0.124  0.00  0.00    +0.000 C 
ATOM      4  C   UNL     1      -2.061   1.346   0.162  0.00  0.00    +0.000 C 
ATOM      5  O   UNL     1      -2.487   2.657   0.365  0.00  0.00    +0.000 OA
ATOM      6  C   UNL     1      -2.947   0.231  -0.035  0.00  0.00    +0.000 A 
ATOM      7  C   UNL     1      -4.321   0.077  -0.087  0.00  0.00    +0.000 A 
ATOM      8  C   UNL     1      -4.904  -1.145  -0.296  0.00  0.00    +0.000 A 
ATOM      9  C   UNL     1      -4.130  -2.271  -0.463  0.00  0.00    +0.000 A 
ATOM     10  C   UNL     1      -2.765  -2.126  -0.412  0.00  0.00    +0.000 A 
ATOM     11  C   UNL     1      -2.180  -0.888  -0.201  0.00  0.00    +0.000 A 
ENDROOT
BRANCH   1  16
ATOM     12  C   UNL     1       5.720   0.383   0.078  0.00  0.00    +0.000 C 
ATOM     13  C   UNL     1       4.288  -0.033   0.005  0.00  0.00    +0.000 A 
ATOM     14  C   UNL     1       3.490  -0.053   1.130  0.00  0.00    +0.000 A 
ATOM     15  C   UNL     1       2.166  -0.436   1.064  0.00  0.00    +0.000 A 
ATOM     16  C   UNL     1       1.572  -0.817  -0.117  0.00  0.00    +0.000 A 
ATOM     17  C   UNL     1       2.377  -0.798  -1.257  0.00  0.00    +0.000 A 
ATOM     18  C   UNL     1       1.730  -1.211  -2.529  0.00  0.00    +0.000 C 
ATOM     19  C   UNL     1       3.700  -0.413  -1.183  0.00  0.00    +0.000 A 
ENDBRANCH   1  16
BRANCH   3  20
ATOM     20  N   UNL     1       0.358   1.809   0.285  0.00  0.00    +0.000 N 
ATOM     21  O   UNL     1       1.082   2.077  -0.681  0.00  0.00    +0.000 OA
ATOM     22  O   UNL     1       0.651   2.357   1.503  0.00  0.00    +0.000 OA
ENDBRANCH   3  20
TORSDOF 2
