REMARK  Name = 
REMARK  3 active torsions:
REMARK  status: ('A' for Active; 'I' for Inactive)
REMARK    1  A    between atoms: O_2  and  C_3
REMARK    2  A    between atoms: C_9  and  C_10
REMARK    3  A    between atoms: N_12  and  C_13
REMARK                            x       y       z     vdW  Elec       q    Type
REMARK                         _______ _______ _______ _____ _____    ______ ____
ROOT
ATOM      1  C   UNL     1      -0.532  -0.450   0.411  0.00  0.00    +0.000 C 
ATOM      2  O   UNL     1      -0.246  -1.133   1.427  0.00  0.00    +0.000 OA
ATOM      3  N   UNL     1       0.499   0.092  -0.362  0.00  0.00    +0.000 NA
ENDROOT
BRANCH   3   4
ATOM      4  C   UNL     1       1.884  -0.065  -0.091  0.00  0.00    +0.000 A 
ATOM      5  C   UNL     1       2.390  -0.776   0.972  0.00  0.00    +0.000 A 
ATOM      6  C   UNL     1       3.759  -0.897   1.189  0.00  0.00    +0.000 A 
ATOM      7  C   UNL     1       4.661  -0.301   0.334  0.00  0.00    +0.000 A 
ATOM      8  C   UNL     1       6.139  -0.425   0.557  0.00  0.00    +0.000 C 
ATOM      9  C   UNL     1       4.149   0.409  -0.729  0.00  0.00    +0.000 A 
ATOM     10  C   UNL     1       2.778   0.533  -0.949  0.00  0.00    +0.000 A 
ATOM     11  O   UNL     1       2.291   1.252  -2.024  0.00  0.00    +0.000 OA
ENDBRANCH   3   4
BRANCH   1  18
ATOM     12  C   UNL     1      -2.247   0.532  -1.085  0.00  0.00    +0.000 A 
ATOM     13  C   UNL     1      -3.538   0.762  -1.460  0.00  0.00    +0.000 A 
ATOM     14  C   UNL     1      -4.576   0.241  -0.720  0.00  0.00    +0.000 A 
ATOM     15  C   UNL     1      -4.300  -0.521   0.413  0.00  0.00    +0.000 A 
ATOM     16 CL   UNL     1      -5.647  -1.151   1.306  0.00  0.00    +0.000 Cl
ATOM     17  C   UNL     1      -2.978  -0.741   0.773  0.00  0.00    +0.000 A 
ATOM     18  C   UNL     1      -1.942  -0.218   0.031  0.00  0.00    +0.000 A 
BRANCH  12  20
ATOM     19  C   UNL     1      -1.376   1.818  -2.960  0.00  0.00    +0.000 C 
ATOM     20  O   UNL     1      -1.166   1.041  -1.807  0.00  0.00    +0.000 OA
ENDBRANCH  12  20
ENDBRANCH   1  18
TORSDOF 3
