REMARK  Name = 
REMARK  3 active torsions:
REMARK  status: ('A' for Active; 'I' for Inactive)
REMARK    1  A    between atoms: C_2  and  C_14
REMARK    2  A    between atoms: N_3  and  N_4
REMARK    3  A    between atoms: C_5  and  C_7
REMARK                            x       y       z     vdW  Elec       q    Type
REMARK                         _______ _______ _______ _____ _____    ______ ____
ROOT
ATOM      1  C   UNL     1       1.204  -3.996  -0.425  0.00  0.00    +0.000 C 
ATOM      2  C   UNL     1       0.530  -2.676  -0.159  0.00  0.00    +0.000 C 
ATOM      3  N   UNL     1      -0.744  -2.576  -0.060  0.00  0.00    +0.000 NA
ENDROOT
BRANCH   2   4
ATOM      4  C   UNL     1       1.310  -1.456  -0.005  0.00  0.00    +0.000 A 
ATOM      5  C   UNL     1       0.743  -0.231   0.238  0.00  0.00    +0.000 A 
ATOM      6  C   UNL     1       1.547   0.900   0.376  0.00  0.00    +0.000 A 
ATOM      7  C   UNL     1       2.915   0.843   0.278  0.00  0.00    +0.000 A 
ATOM      8  C   UNL     1       3.489  -0.395   0.032  0.00  0.00    +0.000 A 
ATOM      9  C   UNL     1       2.691  -1.514  -0.104  0.00  0.00    +0.000 A 
ATOM     10  O   UNL     1       4.869  -0.429  -0.063  0.00  0.00    +0.000 OA
ATOM     11  C   UNL     1       5.646   0.668  -0.487  0.00  0.00    +0.000 C 
ATOM     12  C   UNL     1       5.041   1.995  -0.174  0.00  0.00    +0.000 C 
ATOM     13  O   UNL     1       3.758   1.918   0.404  0.00  0.00    +0.000 OA
ENDBRANCH   2   4
BRANCH   3  14
ATOM     14  N   UNL     1      -1.286  -1.314   0.188  0.00  0.00    +0.000 NA
ATOM     15  C   UNL     1      -2.438  -0.816  -0.469  0.00  0.00    +0.000 C 
ATOM     16  O   UNL     1      -2.993  -1.554  -1.316  0.00  0.00    +0.000 OA
BRANCH  15  17
ATOM     17  C   UNL     1      -3.017   0.495  -0.225  0.00  0.00    +0.000 A 
ATOM     18  C   UNL     1      -2.476   1.384   0.691  0.00  0.00    +0.000 A 
ATOM     19  C   UNL     1      -3.033   2.621   0.913  0.00  0.00    +0.000 A 
ATOM     20  C   UNL     1      -4.162   2.998   0.209  0.00  0.00    +0.000 A 
ATOM     21  C   UNL     1      -4.730   2.149  -0.707  0.00  0.00    +0.000 A 
ATOM     22  C   UNL     1      -4.140   0.917  -0.900  0.00  0.00    +0.000 A 
ATOM     23  O   UNL     1      -4.722   0.067  -1.829  0.00  0.00    +0.000 OA
ENDBRANCH  15  17
ENDBRANCH   3  14
TORSDOF 3
