REMARK  Name = 
REMARK  2 active torsions:
REMARK  status: ('A' for Active; 'I' for Inactive)
REMARK    1  A    between atoms: O_2  and  C_3
REMARK    2  A    between atoms: C_7  and  C_8
REMARK                            x       y       z     vdW  Elec       q    Type
REMARK                         _______ _______ _______ _____ _____    ______ ____
ROOT
ATOM      1  C   UNL     1      -0.447  -0.804   0.206  0.00  0.00    +0.000 A 
ATOM      2  N   UNL     1      -1.149  -1.879   0.602  0.00  0.00    +0.000 NA
ATOM      3  C   UNL     1      -2.491  -1.889   0.679  0.00  0.00    +0.000 A 
ATOM      4  S   UNL     1      -3.310  -3.238   1.172  0.00  0.00    +0.000 S 
ATOM      5  N   UNL     1      -3.167  -0.799   0.355  0.00  0.00    +0.000 NA
ATOM      6  C   UNL     1      -2.500   0.317  -0.052  0.00  0.00    +0.000 A 
ATOM      7  C   UNL     1      -1.128   0.343  -0.137  0.00  0.00    +0.000 A 
ATOM      8  C   UNL     1      -0.209   1.394  -0.537  0.00  0.00    +0.000 C 
ATOM      9  C   UNL     1      -0.750   2.766  -0.660  0.00  0.00    +0.000 C 
ATOM     10  C   UNL     1      -1.902   3.095   0.218  0.00  0.00    +0.000 C 
ATOM     11  C   UNL     1      -3.240   2.777  -0.412  0.00  0.00    +0.000 C 
ATOM     12  N   UNL     1      -3.428   1.346  -0.342  0.00  0.00    +0.000 NA
ENDROOT
BRANCH   1  17
ATOM     13  C   UNL     1       3.164   0.121  -0.300  0.00  0.00    +0.000 A 
ATOM     14  C   UNL     1       3.781  -1.051   0.055  0.00  0.00    +0.000 A 
ATOM     15  C   UNL     1       3.034  -2.139   0.457  0.00  0.00    +0.000 A 
ATOM     16  C   UNL     1       1.660  -2.032   0.497  0.00  0.00    +0.000 A 
ATOM     17  C   UNL     1       1.020  -0.862   0.145  0.00  0.00    +0.000 A 
ATOM     18  C   UNL     1       1.788   0.189  -0.246  0.00  0.00    +0.000 A 
BRANCH  13  20
ATOM     19  C   UNL     1       5.337   1.123  -0.752  0.00  0.00    +0.000 C 
ATOM     20  O   UNL     1       3.936   1.221  -0.708  0.00  0.00    +0.000 OA
ENDBRANCH  13  20
ENDBRANCH   1  17
TORSDOF 2
