REMARK  Name = 
REMARK  3 active torsions:
REMARK  status: ('A' for Active; 'I' for Inactive)
REMARK    1  A    between atoms: O_2  and  C_3
REMARK    2  A    between atoms: C_3  and  C_5
REMARK    3  A    between atoms: C_16  and  C_17
REMARK                            x       y       z     vdW  Elec       q    Type
REMARK                         _______ _______ _______ _____ _____    ______ ____
ROOT
ATOM      1  C   UNL     1       1.512   0.178  -0.243  0.00  0.00    +0.000 C 
ATOM      2  C   UNL     1       1.523   0.996  -1.272  0.00  0.00    +0.000 C 
ATOM      3  N   UNL     1       2.631   0.820  -2.207  0.00  0.00    +0.000 NA
ATOM      4  O   UNL     1       0.600   1.980  -1.488  0.00  0.00    +0.000 OA
ATOM      5  C   UNL     1      -0.410   2.132  -0.544  0.00  0.00    +0.000 C 
ATOM      6  C   UNL     1      -0.536   1.410   0.502  0.00  0.00    +0.000 C 
ATOM      7  C   UNL     1      -1.607   1.608   1.503  0.00  0.00    +0.000 C 
ATOM      8  O   UNL     1      -1.336   1.075   2.573  0.00  0.00    +0.000 OA
ATOM      9  C   UNL     1      -2.780   2.381   1.089  0.00  0.00    +0.000 C 
ATOM     10  C   UNL     1      -2.171   3.619   0.404  0.00  0.00    +0.000 C 
ATOM     11  C   UNL     1      -1.413   3.239  -0.813  0.00  0.00    +0.000 C 
ATOM     12  C   UNL     1       0.333   0.156   0.723  0.00  0.00    +0.000 C 
ENDROOT
BRANCH  12  13
ATOM     13  C   UNL     1      -0.632  -0.992   0.258  0.00  0.00    +0.000 A 
ATOM     14  C   UNL     1      -1.838  -0.914   0.871  0.00  0.00    +0.000 A 
ATOM     15  C   UNL     1      -2.844  -1.830   0.646  0.00  0.00    +0.000 A 
ATOM     16  C   UNL     1      -2.573  -2.849  -0.244  0.00  0.00    +0.000 A 
ATOM     17  C   UNL     1      -1.344  -2.927  -0.868  0.00  0.00    +0.000 A 
ATOM     18  C   UNL     1      -0.346  -1.954  -0.597  0.00  0.00    +0.000 A 
ATOM     19  F   UNL     1       0.787  -2.151  -1.308  0.00  0.00    +0.000 F 
ENDBRANCH  12  13
BRANCH   1  20
ATOM     20  C   UNL     1       2.587  -0.804  -0.089  0.00  0.00    +0.000 C 
ATOM     21  O   UNL     1       3.464  -0.827  -0.944  0.00  0.00    +0.000 OA
BRANCH  20  23
ATOM     22  C   UNL     1       3.709  -2.647   1.107  0.00  0.00    +0.000 C 
ATOM     23  O   UNL     1       2.684  -1.700   0.944  0.00  0.00    +0.000 OA
ENDBRANCH  20  23
ENDBRANCH   1  20
TORSDOF 3
