REMARK  Name = 
REMARK  3 active torsions:
REMARK  status: ('A' for Active; 'I' for Inactive)
REMARK    1  A    between atoms: C_2  and  C_5
REMARK    2  A    between atoms: C_8  and  C_9
REMARK    3  A    between atoms: C_9  and  N_10
REMARK                            x       y       z     vdW  Elec       q    Type
REMARK                         _______ _______ _______ _____ _____    ______ ____
ROOT
ATOM      1  C   UNL     1       0.801  -1.211  -1.067  0.00  0.00    +0.000 C 
ENDROOT
BRANCH   1   2
ATOM      2  N   UNL     1       1.836  -1.017  -0.110  0.00  0.00    +0.000 N 
ATOM      3  C   UNL     1       2.379  -1.903   0.743  0.00  0.00    +0.000 A 
ATOM      4  N   UNL     1       1.972  -3.282   0.788  0.00  0.00    +0.000 NA
ATOM      5  N   UNL     1       3.313  -1.270   1.468  0.00  0.00    +0.000 NA
ATOM      6  C   UNL     1       3.346  -0.007   1.065  0.00  0.00    +0.000 A 
ATOM      7  C   UNL     1       4.166   1.016   1.535  0.00  0.00    +0.000 A 
ATOM      8  C   UNL     1       4.012   2.259   0.949  0.00  0.00    +0.000 A 
ATOM      9  C   UNL     1       3.100   2.458  -0.034  0.00  0.00    +0.000 A 
ATOM     10  C   UNL     1       2.300   1.435  -0.485  0.00  0.00    +0.000 A 
ATOM     11  C   UNL     1       2.436   0.187   0.084  0.00  0.00    +0.000 A 
ENDBRANCH   1   2
BRANCH   1  15
ATOM     12  C   UNL     1      -3.043   0.204   0.172  0.00  0.00    +0.000 A 
ATOM     13  C   UNL     1      -2.528  -0.921   0.758  0.00  0.00    +0.000 A 
ATOM     14  C   UNL     1      -1.267  -1.421   0.403  0.00  0.00    +0.000 A 
ATOM     15  C   UNL     1      -0.512  -0.792  -0.546  0.00  0.00    +0.000 A 
ATOM     16  C   UNL     1      -1.071   0.382  -1.138  0.00  0.00    +0.000 A 
ATOM     17  C   UNL     1      -2.301   0.853  -0.781  0.00  0.00    +0.000 A 
BRANCH  12  19
ATOM     18  C   UNL     1      -4.934   1.688  -0.423  0.00  0.00    +0.000 C 
ATOM     19  C   UNL     1      -4.400   0.657   0.561  0.00  0.00    +0.000 C 
ATOM     20  C   UNL     1      -5.294  -0.554   0.593  0.00  0.00    +0.000 C 
ATOM     21  C   UNL     1      -4.312   1.240   1.967  0.00  0.00    +0.000 C 
ENDBRANCH  12  19
ENDBRANCH   1  15
TORSDOF 3
