REMARK  Name = 
REMARK  2 active torsions:
REMARK  status: ('A' for Active; 'I' for Inactive)
REMARK    1  A    between atoms: N_12  and  N_13
REMARK    2  A    between atoms: C_14  and  C_16
REMARK                            x       y       z     vdW  Elec       q    Type
REMARK                         _______ _______ _______ _____ _____    ______ ____
ROOT
ATOM      1  C   UNL     1       5.191  -1.778  -0.303  0.00  0.00    +0.000 C 
ATOM      2  C   UNL     1       4.437  -0.509  -0.192  0.00  0.00    +0.000 A 
ATOM      3  C   UNL     1       5.146   0.662  -0.296  0.00  0.00    +0.000 A 
ATOM      4  C   UNL     1       4.514   1.881  -0.203  0.00  0.00    +0.000 A 
ATOM      5  C   UNL     1       3.150   1.921  -0.001  0.00  0.00    +0.000 A 
ATOM      6  C   UNL     1       2.400   0.759   0.109  0.00  0.00    +0.000 A 
ATOM      7  C   UNL     1       3.082  -0.457   0.008  0.00  0.00    +0.000 A 
ATOM      8  N   UNL     1       2.131  -1.500   0.148  0.00  0.00    +0.000 NA
ATOM      9  C   UNL     1       0.813  -0.944   0.343  0.00  0.00    +0.000 C 
ATOM     10  O   UNL     1      -0.266  -1.562   0.502  0.00  0.00    +0.000 OA
ATOM     11  C   UNL     1       0.989   0.494   0.317  0.00  0.00    +0.000 C 
ATOM     12  N   UNL     1       0.071   1.364   0.453  0.00  0.00    +0.000 NA
ENDROOT
BRANCH  12  13
ATOM     13  N   UNL     1      -1.283   1.042   0.653  0.00  0.00    +0.000 NA
ATOM     14  C   UNL     1      -2.079   0.544  -0.429  0.00  0.00    +0.000 C 
ATOM     15  O   UNL     1      -1.498   0.418  -1.540  0.00  0.00    +0.000 OA
BRANCH  14  16
ATOM     16  C   UNL     1      -3.494   0.203  -0.241  0.00  0.00    +0.000 A 
ATOM     17  C   UNL     1      -4.440   0.834   0.543  0.00  0.00    +0.000 A 
ATOM     18  C   UNL     1      -5.628   0.167   0.409  0.00  0.00    +0.000 A 
ATOM     19  O   UNL     1      -5.419  -0.828  -0.419  0.00  0.00    +0.000 OA
ATOM     20  C   UNL     1      -4.175  -0.848  -0.830  0.00  0.00    +0.000 A 
ATOM     21  C   UNL     1      -3.644  -1.863  -1.776  0.00  0.00    +0.000 C 
ENDBRANCH  14  16
ENDBRANCH  12  13
TORSDOF 2
