REMARK  Name = 
REMARK  3 active torsions:
REMARK  status: ('A' for Active; 'I' for Inactive)
REMARK    1  A    between atoms: S_2  and  N_4
REMARK    2  A    between atoms: S_2  and  C_14
REMARK    3  A    between atoms: N_4  and  N_5
REMARK                            x       y       z     vdW  Elec       q    Type
REMARK                         _______ _______ _______ _____ _____    ______ ____
ROOT
ATOM      1  N   UNL     1      -0.039  -0.940  -0.807  0.00  0.00    +0.000 NA
ENDROOT
BRANCH   1   2
ATOM      2  N   UNL     1       0.764  -0.904   0.309  0.00  0.00    +0.000 NA
ATOM      3  C   UNL     1       2.057  -0.721   0.250  0.00  0.00    +0.000 C 
ATOM      4  C   UNL     1       2.604  -0.738   1.631  0.00  0.00    +0.000 C 
ATOM      5  C   UNL     1       2.391   0.630   2.240  0.00  0.00    +0.000 C 
ATOM      6  C   UNL     1       3.269   1.600   1.465  0.00  0.00    +0.000 C 
ATOM      7  C   UNL     1       4.452   0.871   0.834  0.00  0.00    +0.000 C 
ATOM      8  C   UNL     1       4.385   0.996  -0.689  0.00  0.00    +0.000 C 
ATOM      9  C   UNL     1       3.966  -0.332  -1.259  0.00  0.00    +0.000 C 
ATOM     10  C   UNL     1       2.475  -0.569  -1.147  0.00  0.00    +0.000 C 
ENDBRANCH   1   2
BRANCH   1  12
ATOM     11  O   UNL     1      -2.043  -2.074  -2.014  0.00  0.00    +0.000 OA
ATOM     12  S   UNL     1      -1.664  -1.444  -0.683  0.00  0.00    +0.000 S 
ATOM     13  O   UNL     1      -1.852  -2.493   0.389  0.00  0.00    +0.000 OA
BRANCH  12  14
ATOM     14  C   UNL     1      -2.668  -0.068  -0.361  0.00  0.00    +0.000 A 
ATOM     15  C   UNL     1      -3.209   0.649  -1.388  0.00  0.00    +0.000 A 
ATOM     16  C   UNL     1      -4.019   1.760  -1.134  0.00  0.00    +0.000 A 
ATOM     17  C   UNL     1      -4.246   2.097   0.194  0.00  0.00    +0.000 A 
ATOM     18  C   UNL     1      -3.706   1.382   1.242  0.00  0.00    +0.000 A 
ATOM     19  C   UNL     1      -2.917   0.298   0.930  0.00  0.00    +0.000 A 
ENDBRANCH  12  14
ENDBRANCH   1  12
TORSDOF 3
