REMARK  Name = 
REMARK  2 active torsions:
REMARK  status: ('A' for Active; 'I' for Inactive)
REMARK    1  A    between atoms: C_4  and  S_6
REMARK    2  A    between atoms: S_6  and  C_7
REMARK                            x       y       z     vdW  Elec       q    Type
REMARK                         _______ _______ _______ _____ _____    ______ ____
ROOT
ATOM      1  O   UNL     1      -1.857   2.557   0.421  0.00  0.00    +0.000 OA
ATOM      2  C   UNL     1      -1.493   1.446  -0.078  0.00  0.00    +0.000 C 
ATOM      3  N   UNL     1      -0.646   1.217  -1.186  0.00  0.00    +0.000 NA
ATOM      4  C   UNL     1      -0.504  -0.200  -1.397  0.00  0.00    +0.000 C 
ATOM      5  O   UNL     1      -1.027  -0.476  -2.669  0.00  0.00    +0.000 OA
ATOM      6  C   UNL     1      -1.319  -0.834  -0.358  0.00  0.00    +0.000 A 
ATOM      7  C   UNL     1      -1.608  -2.148  -0.016  0.00  0.00    +0.000 A 
ATOM      8  C   UNL     1      -2.426  -2.489   1.036  0.00  0.00    +0.000 A 
ATOM      9  C   UNL     1      -2.996  -1.497   1.802  0.00  0.00    +0.000 A 
ATOM     10  C   UNL     1      -2.730  -0.192   1.489  0.00  0.00    +0.000 A 
ATOM     11  C   UNL     1      -1.899   0.139   0.419  0.00  0.00    +0.000 A 
ENDROOT
BRANCH   4  12
ATOM     12  S   UNL     1       1.234  -0.711  -1.320  0.00  0.00    +0.000 S 
BRANCH  12  13
ATOM     13  C   UNL     1       1.824  -0.458   0.367  0.00  0.00    +0.000 C 
ATOM     14  C   UNL     1       3.269  -0.863   0.532  0.00  0.00    +0.000 C 
ATOM     15  C   UNL     1       4.157   0.121  -0.196  0.00  0.00    +0.000 C 
ATOM     16  C   UNL     1       3.945   1.504   0.329  0.00  0.00    +0.000 C 
ATOM     17  C   UNL     1       2.523   1.949   0.318  0.00  0.00    +0.000 C 
ATOM     18  C   UNL     1       1.552   0.934   0.868  0.00  0.00    +0.000 C 
ENDBRANCH  12  13
ENDBRANCH   4  12
TORSDOF 2
