REMARK  Name = 
REMARK  2 active torsions:
REMARK  status: ('A' for Active; 'I' for Inactive)
REMARK    1  A    between atoms: N_13  and  C_14
REMARK    2  A    between atoms: C_14  and  C_15
REMARK                            x       y       z     vdW  Elec       q    Type
REMARK                         _______ _______ _______ _____ _____    ______ ____
ROOT
ATOM      1  O   UNL     1       0.070   1.808   1.816  0.00  0.00    +0.000 OA
ATOM      2  C   UNL     1       0.557   0.920   1.034  0.00  0.00    +0.000 C 
ATOM      3  N   UNL     1       1.784   0.922   0.348  0.00  0.00    +0.000 NA
ATOM      4  C   UNL     1       2.067  -0.426  -0.102  0.00  0.00    +0.000 C 
ATOM      5  C   UNL     1       2.916  -1.189   0.881  0.00  0.00    +0.000 C 
ATOM      6  C   UNL     1       4.260  -1.439   0.239  0.00  0.00    +0.000 C 
ATOM      7  C   UNL     1       5.101  -0.192   0.148  0.00  0.00    +0.000 C 
ATOM      8  C   UNL     1       4.290   1.015  -0.286  0.00  0.00    +0.000 C 
ATOM      9  C   UNL     1       3.640   0.775  -1.634  0.00  0.00    +0.000 C 
ATOM     10  C   UNL     1       2.665  -0.365  -1.477  0.00  0.00    +0.000 C 
ATOM     11  C   UNL     1       0.696  -1.044  -0.172  0.00  0.00    +0.000 C 
ATOM     12  O   UNL     1       0.446  -2.022  -0.899  0.00  0.00    +0.000 OA
ATOM     13  N   UNL     1      -0.109  -0.285   0.714  0.00  0.00    +0.000 N 
ENDROOT
BRANCH  13  14
ATOM     14  C   UNL     1      -1.411  -0.728   1.188  0.00  0.00    +0.000 C 
BRANCH  14  15
ATOM     15  C   UNL     1      -2.511  -0.286   0.303  0.00  0.00    +0.000 A 
ATOM     16  C   UNL     1      -3.113   0.925   0.553  0.00  0.00    +0.000 A 
ATOM     17  C   UNL     1      -4.142   1.395  -0.231  0.00  0.00    +0.000 A 
ATOM     18  C   UNL     1      -4.612   0.664  -1.304  0.00  0.00    +0.000 A 
ATOM     19  F   UNL     1      -5.636   1.126  -2.090  0.00  0.00    +0.000 F 
ATOM     20  C   UNL     1      -3.994  -0.541  -1.531  0.00  0.00    +0.000 A 
ATOM     21  C   UNL     1      -2.963  -1.032  -0.760  0.00  0.00    +0.000 A 
ENDBRANCH  14  15
ENDBRANCH  13  14
TORSDOF 2
