REMARK  Name = 
REMARK  2 active torsions:
REMARK  status: ('A' for Active; 'I' for Inactive)
REMARK    1  A    between atoms: C_12  and  N_13
REMARK    2  A    between atoms: N_13  and  C_14
REMARK                            x       y       z     vdW  Elec       q    Type
REMARK                         _______ _______ _______ _____ _____    ______ ____
ROOT
ATOM      1  O   UNL     1      -1.465   1.286  -1.955  0.00  0.00    +0.000 OA
ATOM      2  C   UNL     1      -1.429   1.353  -0.399  0.00  0.00    +0.000 C 
ATOM      3  C   UNL     1      -2.806   0.483  -0.243  0.00  0.00    +0.000 A 
ATOM      4  C   UNL     1      -4.054   1.070  -0.297  0.00  0.00    +0.000 A 
ATOM      5  C   UNL     1      -5.136   0.227  -0.152  0.00  0.00    +0.000 A 
ATOM      6  C   UNL     1      -4.922  -1.134   0.035  0.00  0.00    +0.000 A 
ATOM      7  C   UNL     1      -3.634  -1.624   0.075  0.00  0.00    +0.000 A 
ATOM      8  C   UNL     1      -2.513  -0.769  -0.073  0.00  0.00    +0.000 A 
ATOM      9  C   UNL     1      -1.115  -1.014  -0.071  0.00  0.00    +0.000 A 
ATOM     10  C   UNL     1      -0.372  -2.209   0.081  0.00  0.00    +0.000 A 
ATOM     11  C   UNL     1       0.996  -2.138   0.039  0.00  0.00    +0.000 A 
ATOM     12  C   UNL     1       1.663  -0.965  -0.143  0.00  0.00    +0.000 A 
ATOM     13  C   UNL     1       0.898   0.206  -0.291  0.00  0.00    +0.000 A 
ATOM     14  C   UNL     1      -0.468   0.090  -0.242  0.00  0.00    +0.000 A 
ENDROOT
BRANCH  12  15
ATOM     15  N   UNL     1       3.062  -0.883  -0.188  0.00  0.00    +0.000 NA
BRANCH  15  16
ATOM     16  C   UNL     1       3.757   0.374  -0.382  0.00  0.00    +0.000 C 
ATOM     17  C   UNL     1       3.344   1.271   0.787  0.00  0.00    +0.000 C 
ATOM     18  C   UNL     1       3.914   0.511   1.988  0.00  0.00    +0.000 C 
ATOM     19  C   UNL     1       5.058  -0.310   1.447  0.00  0.00    +0.000 C 
ATOM     20  C   UNL     1       5.221   0.105  -0.015  0.00  0.00    +0.000 C 
ENDBRANCH  15  16
ENDBRANCH  12  15
TORSDOF 2
