REMARK  Name = 
REMARK  4 active torsions:
REMARK  status: ('A' for Active; 'I' for Inactive)
REMARK    1  A    between atoms: O_2  and  C_3
REMARK    2  A    between atoms: C_9  and  N_10
REMARK    3  A    between atoms: N_10  and  C_11
REMARK    4  A    between atoms: C_11  and  C_12
REMARK                            x       y       z     vdW  Elec       q    Type
REMARK                         _______ _______ _______ _____ _____    ______ ____
ROOT
ATOM      1  C   UNL     1       3.872   0.511  -0.356  0.00  0.00    +0.000 A 
ATOM      2  C   UNL     1       3.560   1.733   0.195  0.00  0.00    +0.000 A 
ATOM      3  C   UNL     1       2.267   2.005   0.581  0.00  0.00    +0.000 A 
ATOM      4  C   UNL     1       1.248   1.088   0.436  0.00  0.00    +0.000 A 
ATOM      5  N   UNL     1      -0.051   1.075   0.710  0.00  0.00    +0.000 NA
ATOM      6  C   UNL     1      -0.617  -0.105   0.364  0.00  0.00    +0.000 A 
ATOM      7  C   UNL     1      -1.927  -0.583   0.457  0.00  0.00    +0.000 A 
ATOM      8  N   UNL     1      -2.174  -1.813   0.022  0.00  0.00    +0.000 NA
ATOM      9  C   UNL     1      -1.204  -2.569  -0.486  0.00  0.00    +0.000 A 
ATOM     10  N   UNL     1       0.071  -2.110  -0.578  0.00  0.00    +0.000 NA
ATOM     11  C   UNL     1       0.382  -0.866  -0.151  0.00  0.00    +0.000 A 
ATOM     12  C   UNL     1       1.544  -0.138  -0.113  0.00  0.00    +0.000 A 
ATOM     13  C   UNL     1       2.844  -0.397  -0.495  0.00  0.00    +0.000 A 
ENDROOT
BRANCH   1  15
ATOM     14  C   UNL     1       6.274   0.949  -0.698  0.00  0.00    +0.000 C 
ATOM     15  O   UNL     1       5.121   0.142  -0.770  0.00  0.00    +0.000 OA
ENDBRANCH   1  15
BRANCH   7  16
ATOM     16  N   UNL     1      -2.846   0.310   1.035  0.00  0.00    +0.000 NA
BRANCH  16  17
ATOM     17  C   UNL     1      -4.221   0.022   1.190  0.00  0.00    +0.000 C 
BRANCH  17  18
ATOM     18  C   UNL     1      -4.955   0.104  -0.102  0.00  0.00    +0.000 C 
ATOM     19  C   UNL     1      -4.415  -0.870  -1.096  0.00  0.00    +0.000 C 
ATOM     20  C   UNL     1      -4.773   1.513  -0.656  0.00  0.00    +0.000 C 
ENDBRANCH  17  18
ENDBRANCH  16  17
ENDBRANCH   7  16
TORSDOF 4
