REMARK  Name = 
REMARK  4 active torsions:
REMARK  status: ('A' for Active; 'I' for Inactive)
REMARK    1  A    between atoms: C_2  and  C_3
REMARK    2  A    between atoms: C_3  and  O_4
REMARK    3  A    between atoms: O_4  and  C_5
REMARK    4  A    between atoms: C_5  and  C_7
REMARK                            x       y       z     vdW  Elec       q    Type
REMARK                         _______ _______ _______ _____ _____    ______ ____
ROOT
ATOM      1  C   UNL     1       1.133  -0.303   0.602  0.00  0.00    +0.000 A 
ATOM      2  C   UNL     1       0.927  -1.178   1.646  0.00  0.00    +0.000 A 
ATOM      3  C   UNL     1       2.063  -1.767   2.386  0.00  0.00    +0.000 C 
ATOM      4  N   UNL     1      -0.341  -1.480   1.971  0.00  0.00    +0.000 NA
ATOM      5  C   UNL     1      -1.397  -0.938   1.289  0.00  0.00    +0.000 A 
ATOM      6  S   UNL     1      -3.079  -1.119   1.457  0.00  0.00    +0.000 S 
ATOM      7  C   UNL     1      -3.593  -0.080   0.195  0.00  0.00    +0.000 A 
ATOM      8  C   UNL     1      -2.418   0.379  -0.322  0.00  0.00    +0.000 A 
ATOM      9  C   UNL     1      -1.275  -0.064   0.244  0.00  0.00    +0.000 A 
ATOM     10  C   UNL     1       0.068   0.236  -0.077  0.00  0.00    +0.000 A 
ATOM     11  N   UNL     1       0.416   1.124  -1.133  0.00  0.00    +0.000 NA
ATOM     12  C   UNL     1      -2.498   1.359  -1.503  0.00  0.00    +0.000 C 
ATOM     13  C   UNL     1      -3.773   1.126  -2.233  0.00  0.00    +0.000 C 
ATOM     14  C   UNL     1      -4.889   1.435  -1.239  0.00  0.00    +0.000 C 
ATOM     15  C   UNL     1      -4.959   0.295  -0.301  0.00  0.00    +0.000 C 
ENDROOT
BRANCH   1  16
ATOM     16  C   UNL     1       2.517   0.033   0.239  0.00  0.00    +0.000 C 
ATOM     17  O   UNL     1       3.457  -0.482   0.885  0.00  0.00    +0.000 OA
BRANCH  16  18
ATOM     18  O   UNL     1       2.859   0.892  -0.783  0.00  0.00    +0.000 OA
BRANCH  18  19
ATOM     19  C   UNL     1       4.160   1.233  -1.154  0.00  0.00    +0.000 C 
BRANCH  19  21
ATOM     20  C   UNL     1       5.647  -0.805  -1.922  0.00  0.00    +0.000 C 
ATOM     21  C   UNL     1       4.976   0.105  -1.568  0.00  0.00    +0.000 C 
ENDBRANCH  19  21
ENDBRANCH  18  19
ENDBRANCH  16  18
ENDBRANCH   1  16
TORSDOF 4
