REMARK  Name = 
REMARK  3 active torsions:
REMARK  status: ('A' for Active; 'I' for Inactive)
REMARK    1  A    between atoms: N_4  and  C_5
REMARK    2  A    between atoms: C_8  and  N_9
REMARK    3  A    between atoms: C_10  and  C_11
REMARK                            x       y       z     vdW  Elec       q    Type
REMARK                         _______ _______ _______ _____ _____    ______ ____
ROOT
ATOM      1  C   UNL     1       3.507   0.392  -0.071  0.00  0.00    +0.000 A 
ATOM      2  C   UNL     1       2.858   1.335   0.704  0.00  0.00    +0.000 A 
ATOM      3  C   UNL     1       1.478   1.357   0.820  0.00  0.00    +0.000 A 
ATOM      4  C   UNL     1       0.732   0.407   0.142  0.00  0.00    +0.000 A 
ATOM      5  C   UNL     1       1.346  -0.535  -0.629  0.00  0.00    +0.000 A 
ATOM      6  C   UNL     1       2.735  -0.527  -0.723  0.00  0.00    +0.000 A 
ENDROOT
BRANCH   1  10
ATOM      7  C   UNL     1       7.202  -0.402  -0.949  0.00  0.00    +0.000 C 
ATOM      8  C   UNL     1       5.714  -0.452  -0.880  0.00  0.00    +0.000 C 
ATOM      9  O   UNL     1       5.144  -1.361  -1.540  0.00  0.00    +0.000 OA
ATOM     10  N   UNL     1       4.926   0.439  -0.137  0.00  0.00    +0.000 NA
ENDBRANCH   1  10
BRANCH   4  11
ATOM     11  N   UNL     1      -0.686   0.486   0.306  0.00  0.00    +0.000 NA
ATOM     12  C   UNL     1      -1.519  -0.272  -0.276  0.00  0.00    +0.000 C 
BRANCH  12  13
ATOM     13  C   UNL     1      -2.966  -0.187  -0.105  0.00  0.00    +0.000 A 
ATOM     14  C   UNL     1      -3.771  -1.070  -0.794  0.00  0.00    +0.000 A 
ATOM     15  C   UNL     1      -5.149  -1.010  -0.649  0.00  0.00    +0.000 A 
ATOM     16  C   UNL     1      -5.774  -0.090   0.168  0.00  0.00    +0.000 A 
ATOM     17  C   UNL     1      -7.252  -0.032   0.319  0.00  0.00    +0.000 C 
ATOM     18  C   UNL     1      -4.949   0.785   0.849  0.00  0.00    +0.000 A 
ATOM     19  C   UNL     1      -3.578   0.737   0.715  0.00  0.00    +0.000 A 
ENDBRANCH  12  13
ENDBRANCH   4  11
TORSDOF 3
