REMARK  Name = 
REMARK  3 active torsions:
REMARK  status: ('A' for Active; 'I' for Inactive)
REMARK    1  A    between atoms: C_2  and  C_11
REMARK    2  A    between atoms: N_3  and  C_4
REMARK    3  A    between atoms: C_14  and  N_15
REMARK                            x       y       z     vdW  Elec       q    Type
REMARK                         _______ _______ _______ _____ _____    ______ ____
ROOT
ATOM      1  O   UNL     1       0.595  -2.192  -0.324  0.00  0.00    +0.000 OA
ATOM      2  C   UNL     1       0.283  -0.997  -0.251  0.00  0.00    +0.000 C 
ATOM      3  N   UNL     1       1.302  -0.029  -0.283  0.00  0.00    +0.000 NA
ENDROOT
BRANCH   3   4
ATOM      4  C   UNL     1       2.681  -0.145  -0.401  0.00  0.00    +0.000 C 
ATOM      5  C   UNL     1       3.303   1.201  -0.013  0.00  0.00    +0.000 C 
ATOM      6  C   UNL     1       4.364   1.568  -1.048  0.00  0.00    +0.000 C 
ATOM      7  C   UNL     1       4.992   0.193  -1.420  0.00  0.00    +0.000 C 
ATOM      8  C   UNL     1       5.592  -0.346  -0.159  0.00  0.00    +0.000 C 
ATOM      9  C   UNL     1       4.721  -1.186   0.682  0.00  0.00    +0.000 C 
ATOM     10  C   UNL     1       3.323  -1.299   0.219  0.00  0.00    +0.000 C 
ENDBRANCH   3   4
BRANCH   2  11
ATOM     11  C   UNL     1      -1.117  -0.518  -0.130  0.00  0.00    +0.000 A 
ATOM     12  C   UNL     1      -1.794  -0.195  -1.289  0.00  0.00    +0.000 A 
ATOM     13  C   UNL     1      -3.079   0.287  -1.249  0.00  0.00    +0.000 A 
ATOM     14  C   UNL     1      -3.759   0.474  -0.048  0.00  0.00    +0.000 A 
ATOM     15  C   UNL     1      -3.077   0.150   1.103  0.00  0.00    +0.000 A 
ATOM     16  C   UNL     1      -1.759  -0.344   1.067  0.00  0.00    +0.000 A 
BRANCH  14  17
ATOM     17  N   UNL     1      -5.104   0.970  -0.066  0.00  0.00    +0.000 N 
ATOM     18  O   UNL     1      -5.629   1.253  -1.159  0.00  0.00    +0.000 OA
ATOM     19  O   UNL     1      -5.840   1.155   1.064  0.00  0.00    +0.000 OA
ENDBRANCH  14  17
ENDBRANCH   2  11
TORSDOF 3
