REMARK  Name = 
REMARK  4 active torsions:
REMARK  status: ('A' for Active; 'I' for Inactive)
REMARK    1  A    between atoms: C_2  and  O_3
REMARK    2  A    between atoms: O_3  and  C_4
REMARK    3  A    between atoms: C_4  and  C_6
REMARK    4  A    between atoms: C_7  and  C_8
REMARK                            x       y       z     vdW  Elec       q    Type
REMARK                         _______ _______ _______ _____ _____    ______ ____
ROOT
ATOM      1  C   UNL     1       2.042  -1.115   0.401  0.00  0.00    +0.000 A 
ATOM      2  C   UNL     1       0.683  -1.179   0.249  0.00  0.00    +0.000 A 
ATOM      3  C   UNL     1       0.093  -2.382   0.474  0.00  0.00    +0.000 A 
ATOM      4  S   UNL     1       1.350  -3.447   0.900  0.00  0.00    +0.000 S 
ATOM      5  C   UNL     1       2.615  -2.331   0.770  0.00  0.00    +0.000 A 
ATOM      6  N   UNL     1       4.021  -2.596   0.991  0.00  0.00    +0.000 NA
ENDROOT
BRANCH   2   7
ATOM      7  C   UNL     1      -0.137   0.145   0.006  0.00  0.00    +0.000 C 
ATOM      8  C   UNL     1      -0.688  -0.385  -1.542  0.00  0.00    +0.000 C 
ATOM      9  O   UNL     1      -1.449   0.863  -1.851  0.00  0.00    +0.000 OA
ATOM     10  C   UNL     1      -2.660   0.936  -1.092  0.00  0.00    +0.000 A 
ATOM     11  C   UNL     1      -3.741   1.579  -1.567  0.00  0.00    +0.000 A 
ATOM     12  C   UNL     1      -4.907   1.624  -0.796  0.00  0.00    +0.000 A 
ATOM     13  C   UNL     1      -4.942   1.014   0.426  0.00  0.00    +0.000 A 
ATOM     14  C   UNL     1      -3.818   0.362   0.895  0.00  0.00    +0.000 A 
ATOM     15  C   UNL     1      -2.633   0.316   0.122  0.00  0.00    +0.000 A 
ATOM     16  O   UNL     1      -1.534  -0.325   0.583  0.00  0.00    +0.000 OA
ENDBRANCH   2   7
BRANCH   1  17
ATOM     17  C   UNL     1       2.970  -0.017   0.080  0.00  0.00    +0.000 C 
ATOM     18  O   UNL     1       4.192  -0.067   0.113  0.00  0.00    +0.000 OA
BRANCH  17  19
ATOM     19  O   UNL     1       2.385   1.222  -0.328  0.00  0.00    +0.000 OA
BRANCH  19  21
ATOM     20  C   UNL     1       2.802   3.537  -1.100  0.00  0.00    +0.000 C 
ATOM     21  C   UNL     1       3.357   2.244  -0.670  0.00  0.00    +0.000 C 
ENDBRANCH  19  21
ENDBRANCH  17  19
ENDBRANCH   1  17
TORSDOF 4
