REMARK  Name = 
REMARK  2 active torsions:
REMARK  status: ('A' for Active; 'I' for Inactive)
REMARK    1  A    between atoms: C_6  and  C_7
REMARK    2  A    between atoms: N_11  and  C_12
REMARK                            x       y       z     vdW  Elec       q    Type
REMARK                         _______ _______ _______ _____ _____    ______ ____
ROOT
ATOM      1  C   UNL     1      -1.133  -1.556  -3.080  0.00  0.00    +0.000 C 
ATOM      2  C   UNL     1      -1.431  -0.731  -1.865  0.00  0.00    +0.000 A 
ATOM      3  C   UNL     1      -2.681  -0.184  -1.665  0.00  0.00    +0.000 A 
ATOM      4  C   UNL     1      -3.004   0.581  -0.566  0.00  0.00    +0.000 A 
ATOM      5  C   UNL     1      -4.347   1.174  -0.342  0.00  0.00    +0.000 C 
ATOM      6  C   UNL     1      -1.991   0.797   0.380  0.00  0.00    +0.000 A 
ATOM      7  C   UNL     1      -0.743   0.253   0.183  0.00  0.00    +0.000 A 
ATOM      8  N   UNL     1       0.269   0.485   1.153  0.00  0.00    +0.000 NA
ATOM      9  N   UNL     1      -0.505  -0.485  -0.920  0.00  0.00    +0.000 NA
ENDROOT
BRANCH   8  10
ATOM     10  C   UNL     1       1.552  -0.082   0.938  0.00  0.00    +0.000 A 
ATOM     11  C   UNL     1       1.818  -0.840  -0.183  0.00  0.00    +0.000 A 
ATOM     12  C   UNL     1       3.041  -1.387  -0.398  0.00  0.00    +0.000 A 
ATOM     13  C   UNL     1       4.093  -1.219   0.489  0.00  0.00    +0.000 A 
ATOM     14 CL   UNL     1       5.614  -1.960   0.118  0.00  0.00    +0.000 Cl
ATOM     15  C   UNL     1       3.846  -0.467   1.611  0.00  0.00    +0.000 A 
ATOM     16  C   UNL     1       2.599   0.085   1.821  0.00  0.00    +0.000 A 
ENDBRANCH   8  10
BRANCH   6  17
ATOM     17  C   UNL     1      -2.226   1.587   1.571  0.00  0.00    +0.000 C 
ATOM     18  N   UNL     1      -3.477   2.191   1.867  0.00  0.00    +0.000 NA
ATOM     19  O   UNL     1      -1.296   1.756   2.390  0.00  0.00    +0.000 OA
ENDBRANCH   6  17
TORSDOF 2
