REMARK  Name = 
REMARK  4 active torsions:
REMARK  status: ('A' for Active; 'I' for Inactive)
REMARK    1  A    between atoms: C_2  and  C_12
REMARK    2  A    between atoms: N_3  and  C_4
REMARK    3  A    between atoms: C_4  and  N_6
REMARK    4  A    between atoms: C_17  and  N_18
REMARK                            x       y       z     vdW  Elec       q    Type
REMARK                         _______ _______ _______ _____ _____    ______ ____
ROOT
ATOM      1  O   UNL     1      -0.613  -2.392  -0.755  0.00  0.00    +0.000 OA
ATOM      2  C   UNL     1      -0.816  -1.186  -0.346  0.00  0.00    +0.000 C 
ATOM      3  N   UNL     1       0.336  -0.468  -0.061  0.00  0.00    +0.000 NA
ENDROOT
BRANCH   2   4
ATOM      4  C   UNL     1      -2.176  -0.714  -0.221  0.00  0.00    +0.000 A 
ATOM      5  C   UNL     1      -3.151  -1.730  -0.194  0.00  0.00    +0.000 A 
ATOM      6  C   UNL     1      -4.458  -1.439  -0.072  0.00  0.00    +0.000 A 
ATOM      7  C   UNL     1      -4.855  -0.135   0.025  0.00  0.00    +0.000 A 
ATOM      8  C   UNL     1      -3.935   0.859   0.002  0.00  0.00    +0.000 A 
ATOM      9  C   UNL     1      -2.552   0.595  -0.124  0.00  0.00    +0.000 A 
BRANCH   9  10
ATOM     10  N   UNL     1      -1.678   1.691  -0.175  0.00  0.00    +0.000 N 
ATOM     11  O   UNL     1      -2.156   2.751  -0.703  0.00  0.00    +0.000 OA
ATOM     12  O   UNL     1      -0.421   1.787   0.239  0.00  0.00    +0.000 OA
ENDBRANCH   9  10
ENDBRANCH   2   4
BRANCH   3  13
ATOM     13  C   UNL     1       1.655  -1.003  -0.208  0.00  0.00    +0.000 C 
ATOM     14  S   UNL     1       1.875  -2.544  -0.746  0.00  0.00    +0.000 S 
BRANCH  13  15
ATOM     15  N   UNL     1       2.778  -0.231   0.116  0.00  0.00    +0.000 N 
ATOM     16  C   UNL     1       4.116  -0.811  -0.056  0.00  0.00    +0.000 C 
ATOM     17  C   UNL     1       5.106   0.257   0.345  0.00  0.00    +0.000 C 
ATOM     18  C   UNL     1       4.855   1.555  -0.377  0.00  0.00    +0.000 C 
ATOM     19  C   UNL     1       3.447   2.048  -0.254  0.00  0.00    +0.000 C 
ATOM     20  C   UNL     1       2.644   1.111   0.622  0.00  0.00    +0.000 C 
ENDBRANCH  13  15
ENDBRANCH   3  13
TORSDOF 4
