REMARK  Name = 
REMARK  3 active torsions:
REMARK  status: ('A' for Active; 'I' for Inactive)
REMARK    1  A    between atoms: O_2  and  C_3
REMARK    2  A    between atoms: C_7  and  C_8
REMARK    3  A    between atoms: N_12  and  C_13
REMARK                            x       y       z     vdW  Elec       q    Type
REMARK                         _______ _______ _______ _____ _____    ______ ____
ROOT
ATOM      1  C   UNL     1      -0.097  -0.704   0.459  0.00  0.00    +0.000 C 
ATOM      2  C   UNL     1       0.423  -1.702   1.150  0.00  0.00    +0.000 C 
ATOM      3  S   UNL     1       2.196  -1.827   1.204  0.00  0.00    +0.000 S 
ATOM      4  C   UNL     1       2.837  -0.473   0.240  0.00  0.00    +0.000 C 
ATOM      5  N   UNL     1       4.200  -0.254   0.060  0.00  0.00    +0.000 NA
ATOM      6  N   UNL     1       2.018   0.344  -0.317  0.00  0.00    +0.000 NA
ATOM      7  N   UNL     1       0.640   0.271  -0.239  0.00  0.00    +0.000 NA
ENDROOT
BRANCH   1  12
ATOM      8  C   UNL     1      -3.579   0.536  -0.343  0.00  0.00    +0.000 A 
ATOM      9  C   UNL     1      -4.370  -0.380   0.315  0.00  0.00    +0.000 A 
ATOM     10  C   UNL     1      -3.745  -1.390   1.012  0.00  0.00    +0.000 A 
ATOM     11  C   UNL     1      -2.370  -1.492   1.057  0.00  0.00    +0.000 A 
ATOM     12  C   UNL     1      -1.575  -0.578   0.400  0.00  0.00    +0.000 A 
ATOM     13  C   UNL     1      -2.200   0.426  -0.292  0.00  0.00    +0.000 A 
BRANCH   8  15
ATOM     14  C   UNL     1      -5.503   1.774  -1.175  0.00  0.00    +0.000 C 
ATOM     15  O   UNL     1      -4.111   1.594  -1.076  0.00  0.00    +0.000 OA
ENDBRANCH   8  15
ENDBRANCH   1  12
BRANCH   5  16
ATOM     16  C   UNL     1       4.717   0.915  -0.615  0.00  0.00    +0.000 C 
ATOM     17  C   UNL     1       4.337   2.202   0.040  0.00  0.00    +0.000 C 
ATOM     18  C   UNL     1       6.181   0.739  -0.839  0.00  0.00    +0.000 C 
ENDBRANCH   5  16
TORSDOF 3
