REMARK  Name = 
REMARK  0 active torsions:
REMARK  status: ('A' for Active; 'I' for Inactive)
REMARK                            x       y       z     vdW  Elec       q    Type
REMARK                         _______ _______ _______ _____ _____    ______ ____
ROOT
ATOM      1  C   UNL     1      -0.129  -2.340  -0.630  0.00  0.00    +0.000 C 
ATOM      2  C   UNL     1      -0.462  -0.979  -0.081  0.00  0.00    +0.000 C 
ATOM      3  C   UNL     1       0.525  -0.191   0.181  0.00  0.00    +0.000 C 
ATOM      4  C   UNL     1       1.997  -0.264   0.064  0.00  0.00    +0.000 A 
ATOM      5  C   UNL     1       2.841  -1.322   0.208  0.00  0.00    +0.000 A 
ATOM      6  C   UNL     1       4.217  -1.149  -0.006  0.00  0.00    +0.000 A 
ATOM      7  O   UNL     1       5.103  -2.211   0.134  0.00  0.00    +0.000 OA
ATOM      8  C   UNL     1       4.632   0.110  -0.357  0.00  0.00    +0.000 A 
ATOM      9  C   UNL     1       3.736   1.185  -0.498  0.00  0.00    +0.000 A 
ATOM     10  C   UNL     1       2.404   1.019  -0.290  0.00  0.00    +0.000 A 
ATOM     11  N   UNL     1       1.236   1.869  -0.314  0.00  0.00    +0.000 NA
ATOM     12  C   UNL     1       0.354   1.254   0.729  0.00  0.00    +0.000 C 
ATOM     13  C   UNL     1      -1.023   1.632   0.660  0.00  0.00    +0.000 C 
ATOM     14  C   UNL     1      -1.466   3.064   0.948  0.00  0.00    +0.000 C 
ATOM     15  C   UNL     1      -2.063   0.864   0.356  0.00  0.00    +0.000 C 
ATOM     16  C   UNL     1      -3.449   1.376   0.364  0.00  0.00    +0.000 C 
ATOM     17  C   UNL     1      -4.393   0.502   0.027  0.00  0.00    +0.000 C 
ATOM     18  N   UNL     1      -4.132  -0.849  -0.330  0.00  0.00    +0.000 N 
ATOM     19  C   UNL     1      -5.284  -1.700  -0.668  0.00  0.00    +0.000 C 
ATOM     20  C   UNL     1      -2.804  -1.357  -0.359  0.00  0.00    +0.000 C 
ATOM     21  C   UNL     1      -1.841  -0.513  -0.029  0.00  0.00    +0.000 C 
ENDROOT
TORSDOF 0
