REMARK  Name = 
REMARK  2 active torsions:
REMARK  status: ('A' for Active; 'I' for Inactive)
REMARK    1  A    between atoms: C_5  and  C_6
REMARK    2  A    between atoms: C_11  and  C_12
REMARK                            x       y       z     vdW  Elec       q    Type
REMARK                         _______ _______ _______ _____ _____    ______ ____
ROOT
ATOM      1  C   UNL     1       0.571   1.525   0.117  0.00  0.00    +0.000 A 
ATOM      2  N   UNL     1       0.926   2.831   0.227  0.00  0.00    +0.000 NA
ATOM      3  C   UNL     1      -0.240   3.500   0.239  0.00  0.00    +0.000 A 
ATOM      4  N   UNL     1      -0.395   4.910   0.341  0.00  0.00    +0.000 NA
ATOM      5  O   UNL     1      -1.241   2.660   0.142  0.00  0.00    +0.000 OA
ATOM      6  C   UNL     1      -0.809   1.429   0.064  0.00  0.00    +0.000 A 
ENDROOT
BRANCH   1  11
ATOM      7  C   UNL     1       4.230  -2.886  -0.179  0.00  0.00    +0.000 C 
ATOM      8  C   UNL     1       3.249  -1.763  -0.044  0.00  0.00    +0.000 A 
ATOM      9  C   UNL     1       2.353  -1.671   0.980  0.00  0.00    +0.000 A 
ATOM     10  C   UNL     1       1.494  -0.602   1.016  0.00  0.00    +0.000 A 
ATOM     11  C   UNL     1       1.490   0.395   0.060  0.00  0.00    +0.000 A 
ATOM     12  C   UNL     1       2.419   0.258  -0.961  0.00  0.00    +0.000 A 
ATOM     13  C   UNL     1       3.305  -0.798  -1.044  0.00  0.00    +0.000 A 
ENDBRANCH   1  11
BRANCH   6  14
ATOM     14  C   UNL     1      -1.552   0.175  -0.054  0.00  0.00    +0.000 A 
ATOM     15  C   UNL     1      -1.414  -0.657  -1.151  0.00  0.00    +0.000 A 
ATOM     16  C   UNL     1      -2.109  -1.843  -1.275  0.00  0.00    +0.000 A 
ATOM     17  C   UNL     1      -2.984  -2.259  -0.297  0.00  0.00    +0.000 A 
ATOM     18  C   UNL     1      -3.732  -3.533  -0.428  0.00  0.00    +0.000 C 
ATOM     19  C   UNL     1      -3.130  -1.427   0.813  0.00  0.00    +0.000 A 
ATOM     20  C   UNL     1      -2.430  -0.244   0.925  0.00  0.00    +0.000 A 
ENDBRANCH   6  14
TORSDOF 2
