REMARK  Name = 
REMARK  2 active torsions:
REMARK  status: ('A' for Active; 'I' for Inactive)
REMARK    1  A    between atoms: C_7  and  N_8
REMARK    2  A    between atoms: C_9  and  C_11
REMARK                            x       y       z     vdW  Elec       q    Type
REMARK                         _______ _______ _______ _____ _____    ______ ____
ROOT
ATOM      1  N   UNL     1      -0.642  -0.279  -0.661  0.00  0.00    +0.000 NA
ATOM      2  C   UNL     1      -0.511   0.711   0.337  0.00  0.00    +0.000 C 
ATOM      3  O   UNL     1      -1.547   1.338   0.652  0.00  0.00    +0.000 OA
ENDROOT
BRANCH   2   4
ATOM      4  C   UNL     1       0.795   1.014   0.999  0.00  0.00    +0.000 A 
ATOM      5  C   UNL     1       0.880   1.980   1.961  0.00  0.00    +0.000 A 
ATOM      6  N   UNL     1      -0.196   2.811   2.464  0.00  0.00    +0.000 NA
ATOM      7  S   UNL     1       2.525   1.954   2.400  0.00  0.00    +0.000 S 
ATOM      8  C   UNL     1       3.071   0.724   1.360  0.00  0.00    +0.000 A 
ATOM      9  C   UNL     1       1.940   0.358   0.686  0.00  0.00    +0.000 A 
ATOM     10  C   UNL     1       2.179  -0.758  -0.329  0.00  0.00    +0.000 C 
ATOM     11  C   UNL     1       2.855  -1.858   0.494  0.00  0.00    +0.000 C 
ATOM     12  C   UNL     1       4.244  -1.408   0.799  0.00  0.00    +0.000 C 
ATOM     13  C   UNL     1       4.398   0.047   1.079  0.00  0.00    +0.000 C 
ENDBRANCH   2   4
BRANCH   1  20
ATOM     14  C   UNL     1      -0.914  -2.267  -2.667  0.00  0.00    +0.000 C 
ATOM     15  C   UNL     1      -2.094  -1.474  -2.231  0.00  0.00    +0.000 A 
ATOM     16  C   UNL     1      -3.349  -1.665  -2.771  0.00  0.00    +0.000 A 
ATOM     17  C   UNL     1      -4.440  -0.927  -2.364  0.00  0.00    +0.000 A 
ATOM     18  C   UNL     1      -4.265   0.028  -1.387  0.00  0.00    +0.000 A 
ATOM     19  C   UNL     1      -3.015   0.203  -0.864  0.00  0.00    +0.000 A 
ATOM     20  C   UNL     1      -1.913  -0.533  -1.267  0.00  0.00    +0.000 A 
ENDBRANCH   1  20
TORSDOF 2
