REMARK  Name = 
REMARK  2 active torsions:
REMARK  status: ('A' for Active; 'I' for Inactive)
REMARK    1  A    between atoms: C_11  and  C_12
REMARK    2  A    between atoms: N_15  and  C_16
REMARK                            x       y       z     vdW  Elec       q    Type
REMARK                         _______ _______ _______ _____ _____    ______ ____
ROOT
ATOM      1  C   UNL     1      -2.923  -2.364  -1.200  0.00  0.00    +0.000 C 
ATOM      2  C   UNL     1      -1.863  -1.329  -1.067  0.00  0.00    +0.000 C 
ATOM      3  C   UNL     1      -1.056  -1.151  -2.325  0.00  0.00    +0.000 C 
ATOM      4  C   UNL     1      -2.637   0.106  -0.836  0.00  0.00    +0.000 C 
ATOM      5  C   UNL     1      -3.182  -0.262   0.615  0.00  0.00    +0.000 C 
ATOM      6  C   UNL     1      -2.225  -1.229   1.192  0.00  0.00    +0.000 C 
ATOM      7  C   UNL     1      -1.089  -1.331   0.169  0.00  0.00    +0.000 C 
ATOM      8  C   UNL     1      -0.179  -2.455   0.421  0.00  0.00    +0.000 C 
ATOM      9  C   UNL     1      -0.448  -0.004   0.132  0.00  0.00    +0.000 A 
ATOM     10  C   UNL     1      -1.323   0.849  -0.380  0.00  0.00    +0.000 A 
ATOM     11  C   UNL     1      -0.739   2.094  -0.371  0.00  0.00    +0.000 A 
ATOM     12  N   UNL     1       0.503   1.933   0.158  0.00  0.00    +0.000 NA
ATOM     13  N   UNL     1       0.708   0.670   0.472  0.00  0.00    +0.000 N 
ENDROOT
BRANCH  13  14
ATOM     14  C   UNL     1       1.843   0.031   1.046  0.00  0.00    +0.000 A 
ATOM     15  C   UNL     1       1.831  -0.691   2.193  0.00  0.00    +0.000 A 
ATOM     16  C   UNL     1       2.986  -1.274   2.671  0.00  0.00    +0.000 A 
ATOM     17  C   UNL     1       4.179  -1.138   1.996  0.00  0.00    +0.000 A 
ATOM     18  C   UNL     1       4.205  -0.407   0.830  0.00  0.00    +0.000 A 
ATOM     19  C   UNL     1       3.059   0.156   0.379  0.00  0.00    +0.000 A 
ENDBRANCH  13  14
BRANCH  11  20
ATOM     20  C   UNL     1      -1.284   3.389  -0.827  0.00  0.00    +0.000 C 
ATOM     21  O   UNL     1      -0.369   4.407  -0.644  0.00  0.00    +0.000 OA
ENDBRANCH  11  20
TORSDOF 2
