REMARK  Name = 
REMARK  4 active torsions:
REMARK  status: ('A' for Active; 'I' for Inactive)
REMARK    1  A    between atoms: C_2  and  N_3
REMARK    2  A    between atoms: C_2  and  C_14
REMARK    3  A    between atoms: N_3  and  N_4
REMARK    4  A    between atoms: C_5  and  C_7
REMARK                            x       y       z     vdW  Elec       q    Type
REMARK                         _______ _______ _______ _____ _____    ______ ____
ROOT
ATOM      1  N   UNL     1       0.734   0.165  -0.377  0.00  0.00    +0.000 NA
ENDROOT
BRANCH   1   2
ATOM      2  N   UNL     1      -0.567  -0.322  -0.190  0.00  0.00    +0.000 NA
ATOM      3  C   UNL     1      -1.593   0.617   0.033  0.00  0.00    +0.000 C 
ATOM      4  O   UNL     1      -1.284   1.834   0.051  0.00  0.00    +0.000 OA
BRANCH   3   5
ATOM      5  C   UNL     1      -2.987   0.243   0.243  0.00  0.00    +0.000 A 
ATOM      6  C   UNL     1      -4.056   1.065   0.512  0.00  0.00    +0.000 A 
ATOM      7  C   UNL     1      -5.165   0.222   0.639  0.00  0.00    +0.000 A 
ATOM      8  C   UNL     1      -6.522   0.744   0.939  0.00  0.00    +0.000 C 
ATOM      9  O   UNL     1      -4.788  -1.022   0.457  0.00  0.00    +0.000 OA
ATOM     10  C   UNL     1      -3.490  -1.049   0.218  0.00  0.00    +0.000 A 
ATOM     11  C   UNL     1      -2.627  -2.260  -0.050  0.00  0.00    +0.000 C 
ENDBRANCH   3   5
ENDBRANCH   1   2
BRANCH   1  13
ATOM     12  C   UNL     1       1.595  -2.076  -0.526  0.00  0.00    +0.000 C 
ATOM     13  C   UNL     1       1.807  -0.773  -0.339  0.00  0.00    +0.000 C 
BRANCH  13  14
ATOM     14  C   UNL     1       3.167  -0.324  -0.075  0.00  0.00    +0.000 A 
ATOM     15  C   UNL     1       4.215  -1.241  -0.015  0.00  0.00    +0.000 A 
ATOM     16  C   UNL     1       5.494  -0.792   0.230  0.00  0.00    +0.000 A 
ATOM     17  C   UNL     1       5.676   0.544   0.408  0.00  0.00    +0.000 A 
ATOM     18  C   UNL     1       4.659   1.472   0.357  0.00  0.00    +0.000 A 
ATOM     19  C   UNL     1       3.391   1.040   0.114  0.00  0.00    +0.000 A 
ATOM     20  F   UNL     1       2.343   1.912   0.050  0.00  0.00    +0.000 F 
ENDBRANCH  13  14
ENDBRANCH   1  13
TORSDOF 4
