REMARK  Name = 
REMARK  5 active torsions:
REMARK  status: ('A' for Active; 'I' for Inactive)
REMARK    1  A    between atoms: C_2  and  N_3
REMARK    2  A    between atoms: C_2  and  C_12
REMARK    3  A    between atoms: N_3  and  N_4
REMARK    4  A    between atoms: C_5  and  O_7
REMARK    5  A    between atoms: O_7  and  C_8
REMARK                            x       y       z     vdW  Elec       q    Type
REMARK                         _______ _______ _______ _____ _____    ______ ____
ROOT
ATOM      1  C   UNL     1       0.723   0.403  -1.260  0.00  0.00    +0.000 C 
ATOM      2  C   UNL     1       1.135  -0.253  -0.175  0.00  0.00    +0.000 C 
ENDROOT
BRANCH   2   3
ATOM      3  C   UNL     1       2.526  -0.223   0.211  0.00  0.00    +0.000 A 
ATOM      4  C   UNL     1       2.946  -0.903   1.337  0.00  0.00    +0.000 A 
ATOM      5  C   UNL     1       4.261  -0.870   1.694  0.00  0.00    +0.000 A 
ATOM      6  C   UNL     1       5.173  -0.174   0.957  0.00  0.00    +0.000 A 
ATOM      7  C   UNL     1       4.744   0.502  -0.165  0.00  0.00    +0.000 A 
ATOM      8  C   UNL     1       3.435   0.493  -0.557  0.00  0.00    +0.000 A 
ATOM      9 BR   UNL     1       2.787   1.408  -2.097  0.00  0.00    +0.000 Br
ENDBRANCH   2   3
BRANCH   2  10
ATOM     10  N   UNL     1       0.191  -0.991   0.609  0.00  0.00    +0.000 NA
BRANCH  10  11
ATOM     11  N   UNL     1      -0.958  -0.313   1.097  0.00  0.00    +0.000 NA
ATOM     12  C   UNL     1      -2.153  -0.266   0.350  0.00  0.00    +0.000 C 
ATOM     13  O   UNL     1      -2.162  -0.850  -0.769  0.00  0.00    +0.000 OA
BRANCH  12  14
ATOM     14  O   UNL     1      -3.310   0.361   0.735  0.00  0.00    +0.000 OA
BRANCH  14  15
ATOM     15  C   UNL     1      -4.486   0.377  -0.056  0.00  0.00    +0.000 C 
ATOM     16  C   UNL     1      -4.242   1.031  -1.398  0.00  0.00    +0.000 C 
ATOM     17  C   UNL     1      -5.516   1.250   0.664  0.00  0.00    +0.000 C 
ATOM     18  C   UNL     1      -5.095  -0.981  -0.226  0.00  0.00    +0.000 C 
ENDBRANCH  14  15
ENDBRANCH  12  14
ENDBRANCH  10  11
ENDBRANCH   2  10
TORSDOF 5
