REMARK  Name = 
REMARK  4 active torsions:
REMARK  status: ('A' for Active; 'I' for Inactive)
REMARK    1  A    between atoms: O_2  and  C_3
REMARK    2  A    between atoms: C_6  and  C_7
REMARK    3  A    between atoms: C_8  and  C_9
REMARK    4  A    between atoms: C_20  and  O_21
REMARK                            x       y       z     vdW  Elec       q    Type
REMARK                         _______ _______ _______ _____ _____    ______ ____
ROOT
ATOM      1  C   UNL     1      -0.496  -1.520   0.208  0.00  0.00    +0.000 A 
ATOM      2  C   UNL     1      -1.795  -1.394  -0.264  0.00  0.00    +0.000 A 
ATOM      3  N   UNL     1      -2.363  -2.611  -0.213  0.00  0.00    +0.000 NA
ATOM      4  O   UNL     1      -1.503  -3.466   0.254  0.00  0.00    +0.000 OA
ATOM      5  C   UNL     1      -0.352  -2.853   0.526  0.00  0.00    +0.000 A 
ATOM      6  N   UNL     1       0.817  -3.460   1.049  0.00  0.00    +0.000 NA
ENDROOT
BRANCH   1  10
ATOM      7  C   UNL     1       2.454   1.560   0.475  0.00  0.00    +0.000 A 
ATOM      8  C   UNL     1       1.292   1.631   1.199  0.00  0.00    +0.000 A 
ATOM      9  C   UNL     1       0.309   0.641   1.135  0.00  0.00    +0.000 A 
ATOM     10  C   UNL     1       0.487  -0.451   0.327  0.00  0.00    +0.000 A 
ATOM     11  C   UNL     1       1.664  -0.529  -0.410  0.00  0.00    +0.000 A 
ATOM     12  C   UNL     1       2.621   0.441  -0.344  0.00  0.00    +0.000 A 
BRANCH   7  14
ATOM     13  C   UNL     1       3.507   3.671   1.218  0.00  0.00    +0.000 C 
ATOM     14  O   UNL     1       3.466   2.479   0.476  0.00  0.00    +0.000 OA
ENDBRANCH   7  14
BRANCH  12  15
ATOM     15  O   UNL     1       3.777   0.307  -1.106  0.00  0.00    +0.000 OA
ATOM     16  C   UNL     1       3.922  -0.832  -1.924  0.00  0.00    +0.000 C 
ENDBRANCH  12  15
ENDBRANCH   1  10
BRANCH   2  17
ATOM     17  C   UNL     1      -2.364  -0.135  -0.711  0.00  0.00    +0.000 A 
ATOM     18  C   UNL     1      -1.888   0.586  -1.768  0.00  0.00    +0.000 A 
ATOM     19  C   UNL     1      -2.483   1.787  -2.138  0.00  0.00    +0.000 A 
ATOM     20  C   UNL     1      -3.556   2.255  -1.440  0.00  0.00    +0.000 A 
ATOM     21  C   UNL     1      -4.067   1.544  -0.354  0.00  0.00    +0.000 A 
ATOM     22  C   UNL     1      -3.449   0.350  -0.013  0.00  0.00    +0.000 A 
ENDBRANCH   2  17
TORSDOF 4
