REMARK  Name = 
REMARK  1 active torsions:
REMARK  status: ('A' for Active; 'I' for Inactive)
REMARK    1  A    between atoms: C_2  and  C_3
REMARK                            x       y       z     vdW  Elec       q    Type
REMARK                         _______ _______ _______ _____ _____    ______ ____
ROOT
ATOM      1  C   UNL     1       2.098  -1.275   0.013  0.00  0.00    +0.000 A 
ATOM      2  C   UNL     1       0.772  -1.597  -0.276  0.00  0.00    +0.000 A 
ATOM      3  O   UNL     1       0.333  -2.906  -0.416  0.00  0.00    +0.000 OA
ATOM      4  N   UNL     1      -0.118  -0.606  -0.425  0.00  0.00    +0.000 N 
ATOM      5  C   UNL     1      -1.442  -0.536  -0.699  0.00  0.00    +0.000 A 
ATOM      6  C   UNL     1      -1.857   0.774  -0.738  0.00  0.00    +0.000 A 
ATOM      7  C   UNL     1      -0.731   1.527  -0.474  0.00  0.00    +0.000 A 
ATOM      8  C   UNL     1      -0.398   2.858  -0.355  0.00  0.00    +0.000 A 
ATOM      9  C   UNL     1       0.882   3.289  -0.072  0.00  0.00    +0.000 A 
ATOM     10  C   UNL     1       1.911   2.370   0.109  0.00  0.00    +0.000 A 
ATOM     11  C   UNL     1       1.584   1.028  -0.009  0.00  0.00    +0.000 A 
ATOM     12  C   UNL     1       2.517   0.025   0.148  0.00  0.00    +0.000 A 
ATOM     13  O   UNL     1       3.701   0.274   0.405  0.00  0.00    +0.000 OA
ATOM     14  C   UNL     1       0.302   0.634  -0.292  0.00  0.00    +0.000 A 
ATOM     15  C   UNL     1      -3.209   1.256  -1.002  0.00  0.00    +0.000 C 
ATOM     16  C   UNL     1      -4.272   0.116  -0.488  0.00  0.00    +0.000 C 
ATOM     17  C   UNL     1      -3.455  -0.266   0.891  0.00  0.00    +0.000 C 
ATOM     18  C   UNL     1      -3.661  -1.065  -1.447  0.00  0.00    +0.000 C 
ATOM     19  C   UNL     1      -2.424  -1.603  -0.944  0.00  0.00    +0.000 C 
ENDROOT
BRANCH   1  21
ATOM     20  C   UNL     1       4.433  -1.884   0.478  0.00  0.00    +0.000 C 
ATOM     21  C   UNL     1       3.035  -2.412   0.166  0.00  0.00    +0.000 C 
ENDBRANCH   1  21
TORSDOF 1
