REMARK  Name = 
REMARK  3 active torsions:
REMARK  status: ('A' for Active; 'I' for Inactive)
REMARK    1  A    between atoms: C_3  and  C_5
REMARK    2  A    between atoms: C_5  and  N_6
REMARK    3  A    between atoms: C_7  and  C_9
REMARK                            x       y       z     vdW  Elec       q    Type
REMARK                         _______ _______ _______ _____ _____    ______ ____
ROOT
ATOM      1  C   UNL     1      -0.634   0.601  -0.780  0.00  0.00    +0.000 C 
ATOM      2  C   UNL     1      -1.854   0.127  -0.646  0.00  0.00    +0.000 C 
ATOM      3  C   UNL     1      -2.984   0.834  -1.385  0.00  0.00    +0.000 C 
ATOM      4  C   UNL     1      -4.079   1.148  -0.388  0.00  0.00    +0.000 C 
ATOM      5  C   UNL     1      -4.619  -0.177   0.109  0.00  0.00    +0.000 C 
ATOM      6  C   UNL     1      -3.539  -0.840   0.906  0.00  0.00    +0.000 C 
ATOM      7  C   UNL     1      -2.261  -1.027   0.149  0.00  0.00    +0.000 C 
ENDROOT
BRANCH   1  10
ATOM      8  C   UNL     1      -1.555   3.485  -3.120  0.00  0.00    +0.000 C 
ATOM      9  N   UNL     1      -1.582   2.341  -2.263  0.00  0.00    +0.000 NA
ATOM     10  C   UNL     1      -0.460   1.790  -1.644  0.00  0.00    +0.000 C 
ATOM     11  O   UNL     1       0.663   2.273  -1.802  0.00  0.00    +0.000 OA
ENDBRANCH   1  10
BRANCH   1  12
ATOM     12  N   UNL     1       0.555   0.140  -0.215  0.00  0.00    +0.000 NA
ATOM     13  C   UNL     1       0.898  -0.884   0.619  0.00  0.00    +0.000 C 
ATOM     14  O   UNL     1       0.006  -1.648   1.032  0.00  0.00    +0.000 OA
BRANCH  13  15
ATOM     15  C   UNL     1       2.267  -1.175   1.089  0.00  0.00    +0.000 A 
ATOM     16  C   UNL     1       3.257  -0.331   0.633  0.00  0.00    +0.000 A 
ATOM     17  C   UNL     1       4.574  -0.514   1.012  0.00  0.00    +0.000 A 
ATOM     18  C   UNL     1       4.887  -1.552   1.851  0.00  0.00    +0.000 A 
ATOM     19  C   UNL     1       3.892  -2.389   2.300  0.00  0.00    +0.000 A 
ATOM     20  C   UNL     1       2.568  -2.200   1.916  0.00  0.00    +0.000 A 
ENDBRANCH  13  15
ENDBRANCH   1  12
TORSDOF 3
