REMARK  Name = 
REMARK  3 active torsions:
REMARK  status: ('A' for Active; 'I' for Inactive)
REMARK    1  A    between atoms: C_6  and  C_7
REMARK    2  A    between atoms: N_9  and  C_10
REMARK    3  A    between atoms: C_16  and  C_17
REMARK                            x       y       z     vdW  Elec       q    Type
REMARK                         _______ _______ _______ _____ _____    ______ ____
ROOT
ATOM      1  C   UNL     1       1.173  -0.268  -0.555  0.00  0.00    +0.000 C 
ATOM      2  O   UNL     1       1.022  -0.661  -1.746  0.00  0.00    +0.000 OA
ATOM      3  N   UNL     1       0.072   0.007   0.109  0.00  0.00    +0.000 NA
ENDROOT
BRANCH   1   9
ATOM      4  C   UNL     1       4.463   0.792   3.052  0.00  0.00    +0.000 C 
ATOM      5  C   UNL     1       4.194   0.336   1.659  0.00  0.00    +0.000 A 
ATOM      6  C   UNL     1       5.201   0.001   0.801  0.00  0.00    +0.000 A 
ATOM      7  C   UNL     1       4.904  -0.412  -0.470  0.00  0.00    +0.000 A 
ATOM      8  C   UNL     1       3.574  -0.494  -0.897  0.00  0.00    +0.000 A 
ATOM      9  C   UNL     1       2.560  -0.161  -0.045  0.00  0.00    +0.000 A 
ATOM     10  C   UNL     1       2.886   0.248   1.216  0.00  0.00    +0.000 A 
ENDBRANCH   1   9
BRANCH   3  11
ATOM     11  C   UNL     1      -1.274   0.120   0.259  0.00  0.00    +0.000 A 
ATOM     12  S   UNL     1      -1.902   0.678   1.829  0.00  0.00    +0.000 S 
ATOM     13  C   UNL     1      -3.534   0.642   1.499  0.00  0.00    +0.000 A 
ATOM     14  C   UNL     1      -4.688   0.996   2.390  0.00  0.00    +0.000 C 
ATOM     15  C   UNL     1      -3.594   0.213   0.215  0.00  0.00    +0.000 A 
ATOM     16  C   UNL     1      -4.981   0.060  -0.433  0.00  0.00    +0.000 C 
ATOM     17  C   UNL     1      -2.439  -0.058  -0.430  0.00  0.00    +0.000 A 
BRANCH  17  18
ATOM     18  C   UNL     1      -2.441  -0.532  -1.841  0.00  0.00    +0.000 C 
ATOM     19  N   UNL     1      -3.716  -0.697  -2.505  0.00  0.00    +0.000 NA
ATOM     20  O   UNL     1      -1.483  -0.811  -2.535  0.00  0.00    +0.000 OA
ENDBRANCH  17  18
ENDBRANCH   3  11
TORSDOF 3
