REMARK  Name = 
REMARK  5 active torsions:
REMARK  status: ('A' for Active; 'I' for Inactive)
REMARK    1  A    between atoms: C_6  and  N_7
REMARK    2  A    between atoms: C_10  and  N_11
REMARK    3  A    between atoms: N_11  and  C_12
REMARK    4  A    between atoms: C_12  and  C_13
REMARK    5  A    between atoms: C_16  and  N_17
REMARK                            x       y       z     vdW  Elec       q    Type
REMARK                         _______ _______ _______ _____ _____    ______ ____
ROOT
ATOM      1  N   UNL     1      -1.158  -0.753   0.583  0.00  0.00    +0.000 NA
ENDROOT
BRANCH   1   8
ATOM      2  C   UNL     1      -2.884  -3.103   0.244  0.00  0.00    +0.000 C 
ATOM      3  C   UNL     1      -3.294  -1.741  -0.123  0.00  0.00    +0.000 A 
ATOM      4  C   UNL     1      -4.548  -1.544  -0.676  0.00  0.00    +0.000 A 
ATOM      5  C   UNL     1      -4.975  -0.285  -1.046  0.00  0.00    +0.000 A 
ATOM      6  C   UNL     1      -4.173   0.843  -0.874  0.00  0.00    +0.000 A 
ATOM      7  C   UNL     1      -2.927   0.604  -0.315  0.00  0.00    +0.000 A 
ATOM      8  C   UNL     1      -2.495  -0.653   0.049  0.00  0.00    +0.000 A 
BRANCH   7   9
ATOM      9  N   UNL     1      -2.064   1.719  -0.066  0.00  0.00    +0.000 N 
ATOM     10  O   UNL     1      -1.317   1.654   0.958  0.00  0.00    +0.000 OA
ATOM     11  O   UNL     1      -2.033   2.823  -0.865  0.00  0.00    +0.000 OA
ENDBRANCH   7   9
ENDBRANCH   1   8
BRANCH   1  12
ATOM     12  C   UNL     1      -0.186  -1.152  -0.415  0.00  0.00    +0.000 C 
BRANCH  12  13
ATOM     13  C   UNL     1       1.174  -0.655  -0.173  0.00  0.00    +0.000 A 
ATOM     14  C   UNL     1       1.563   0.231   0.798  0.00  0.00    +0.000 A 
ATOM     15  C   UNL     1       2.840   0.709   0.952  0.00  0.00    +0.000 A 
ATOM     16  C   UNL     1       3.848   0.298   0.087  0.00  0.00    +0.000 A 
ATOM     17  C   UNL     1       3.488  -0.591  -0.895  0.00  0.00    +0.000 A 
ATOM     18  C   UNL     1       2.203  -1.062  -1.035  0.00  0.00    +0.000 A 
BRANCH  16  19
ATOM     19  N   UNL     1       5.181   0.734   0.116  0.00  0.00    +0.000 N 
ATOM     20  C   UNL     1       5.713   1.639  -0.912  0.00  0.00    +0.000 C 
ATOM     21  C   UNL     1       6.041   0.287   1.209  0.00  0.00    +0.000 C 
ENDBRANCH  16  19
ENDBRANCH  12  13
ENDBRANCH   1  12
TORSDOF 5
