REMARK  Name = 
REMARK  2 active torsions:
REMARK  status: ('A' for Active; 'I' for Inactive)
REMARK    1  A    between atoms: C_4  and  N_5
REMARK    2  A    between atoms: N_5  and  C_6
REMARK                            x       y       z     vdW  Elec       q    Type
REMARK                         _______ _______ _______ _____ _____    ______ ____
ROOT
ATOM      1  C   UNL     1       0.523  -3.920  -0.022  0.00  0.00    +0.000 C 
ATOM      2  C   UNL     1      -0.229  -2.656  -0.121  0.00  0.00    +0.000 A 
ATOM      3  N   UNL     1       0.366  -1.481  -0.002  0.00  0.00    +0.000 NA
ATOM      4  C   UNL     1      -0.241  -0.304  -0.079  0.00  0.00    +0.000 A 
ATOM      5  C   UNL     1      -1.630  -0.230  -0.304  0.00  0.00    +0.000 A 
ATOM      6  C   UNL     1      -2.419   0.882  -0.412  0.00  0.00    +0.000 A 
ATOM      7  C   UNL     1      -3.748   0.672  -0.632  0.00  0.00    +0.000 A 
ATOM      8  S   UNL     1      -3.875  -1.026  -0.685  0.00  0.00    +0.000 S 
ATOM      9  C   UNL     1      -2.243  -1.438  -0.427  0.00  0.00    +0.000 A 
ATOM     10  N   UNL     1      -1.565  -2.626  -0.339  0.00  0.00    +0.000 NA
ATOM     11  C   UNL     1      -4.499   1.991  -0.721  0.00  0.00    +0.000 C 
ATOM     12  C   UNL     1      -3.578   2.846   0.157  0.00  0.00    +0.000 C 
ATOM     13  C   UNL     1      -2.248   2.405  -0.368  0.00  0.00    +0.000 C 
ENDROOT
BRANCH   4  14
ATOM     14  N   UNL     1       0.557   0.844   0.072  0.00  0.00    +0.000 NA
BRANCH  14  15
ATOM     15  C   UNL     1       1.938   0.851   0.297  0.00  0.00    +0.000 A 
ATOM     16  C   UNL     1       2.590   2.061   0.427  0.00  0.00    +0.000 A 
ATOM     17  C   UNL     1       3.967   2.119   0.652  0.00  0.00    +0.000 A 
ATOM     18  C   UNL     1       4.718   0.967   0.753  0.00  0.00    +0.000 A 
ATOM     19  C   UNL     1       4.071  -0.244   0.625  0.00  0.00    +0.000 A 
ATOM     20  O   UNL     1       4.835  -1.422   0.727  0.00  0.00    +0.000 OA
ATOM     21  C   UNL     1       2.711  -0.290   0.402  0.00  0.00    +0.000 A 
ENDBRANCH  14  15
ENDBRANCH   4  14
TORSDOF 2
