REMARK  Name = 
REMARK  5 active torsions:
REMARK  status: ('A' for Active; 'I' for Inactive)
REMARK    1  A    between atoms: C_2  and  C_3
REMARK    2  A    between atoms: C_3  and  S_4
REMARK    3  A    between atoms: S_4  and  C_5
REMARK    4  A    between atoms: C_7  and  C_8
REMARK    5  A    between atoms: C_11  and  C_12
REMARK                            x       y       z     vdW  Elec       q    Type
REMARK                         _______ _______ _______ _____ _____    ______ ____
ROOT
ATOM      1  C   UNL     1      -0.548  -0.014   0.104  0.00  0.00    +0.000 A 
ATOM      2  C   UNL     1      -1.173   0.782  -0.843  0.00  0.00    +0.000 A 
ATOM      3  C   UNL     1      -2.517   1.137  -0.747  0.00  0.00    +0.000 A 
ATOM      4  C   UNL     1      -3.290   0.708   0.291  0.00  0.00    +0.000 A 
ATOM      5  C   UNL     1      -2.673  -0.088   1.240  0.00  0.00    +0.000 A 
ATOM      6  C   UNL     1      -1.352  -0.435   1.149  0.00  0.00    +0.000 A 
ENDROOT
BRANCH   1   9
ATOM      7  C   UNL     1       2.874  -1.221   0.155  0.00  0.00    +0.000 A 
ATOM      8  N   UNL     1       1.672  -1.101   0.749  0.00  0.00    +0.000 NA
ATOM      9  C   UNL     1       0.853  -0.386  -0.039  0.00  0.00    +0.000 A 
ATOM     10  N   UNL     1       1.609  -0.067  -1.146  0.00  0.00    +0.000 NA
ATOM     11  N   UNL     1       2.814  -0.571  -1.020  0.00  0.00    +0.000 NA
BRANCH   7  12
ATOM     12  S   UNL     1       4.331  -2.147   0.700  0.00  0.00    +0.000 S 
BRANCH  12  13
ATOM     13  C   UNL     1       5.653  -0.874   0.901  0.00  0.00    +0.000 C 
BRANCH  13  15
ATOM     14  C   UNL     1       6.212   0.067  -1.550  0.00  0.00    +0.000 C 
ATOM     15  C   UNL     1       5.970  -0.343  -0.465  0.00  0.00    +0.000 C 
ENDBRANCH  13  15
ENDBRANCH  12  13
ENDBRANCH   7  12
ENDBRANCH   1   9
BRANCH   4  16
ATOM     16  C   UNL     1      -4.744   1.065   0.439  0.00  0.00    +0.000 C 
ATOM     17  C   UNL     1      -5.372   0.877  -0.932  0.00  0.00    +0.000 C 
ATOM     18  C   UNL     1      -4.942   2.487   0.924  0.00  0.00    +0.000 C 
ATOM     19  C   UNL     1      -5.376   0.124   1.422  0.00  0.00    +0.000 C 
ENDBRANCH   4  16
TORSDOF 5
