REMARK  Name = 
REMARK  1 active torsions:
REMARK  status: ('A' for Active; 'I' for Inactive)
REMARK    1  A    between atoms: C_5  and  C_6
REMARK                            x       y       z     vdW  Elec       q    Type
REMARK                         _______ _______ _______ _____ _____    ______ ____
ROOT
ATOM      1  C   UNL     1      -0.780  -0.961   1.604  0.00  0.00    +0.000 C 
ATOM      2  N   UNL     1      -0.408  -2.105   0.733  0.00  0.00    +0.000 NA
ATOM      3  C   UNL     1       0.394  -2.329  -0.128  0.00  0.00    +0.000 C 
ATOM      4  N   UNL     1       0.597  -3.536  -0.869  0.00  0.00    +0.000 NA
ATOM      5  O   UNL     1       1.191  -1.274  -0.400  0.00  0.00    +0.000 OA
ATOM      6  C   UNL     1       0.542   0.124  -0.314  0.00  0.00    +0.000 C 
ATOM      7  C   UNL     1       1.968   0.845  -0.205  0.00  0.00    +0.000 A 
ATOM      8  C   UNL     1       2.532   1.744  -1.069  0.00  0.00    +0.000 A 
ATOM      9  C   UNL     1       3.794   2.219  -0.762  0.00  0.00    +0.000 A 
ATOM     10  C   UNL     1       4.428   1.788   0.371  0.00  0.00    +0.000 A 
ATOM     11  C   UNL     1       3.797   0.859   1.226  0.00  0.00    +0.000 A 
ATOM     12  C   UNL     1       2.548   0.387   0.925  0.00  0.00    +0.000 A 
ATOM     13  C   UNL     1       1.728  -0.571   1.699  0.00  0.00    +0.000 C 
ATOM     14  C   UNL     1       0.390   0.218   1.373  0.00  0.00    +0.000 C 
ENDROOT
BRANCH   1  19
ATOM     15  C   UNL     1      -5.075   1.350  -1.711  0.00  0.00    +0.000 C 
ATOM     16  C   UNL     1      -3.960   0.755  -0.879  0.00  0.00    +0.000 A 
ATOM     17  C   UNL     1      -4.115   0.596   0.477  0.00  0.00    +0.000 A 
ATOM     18  C   UNL     1      -3.092   0.047   1.261  0.00  0.00    +0.000 A 
ATOM     19  C   UNL     1      -1.908  -0.343   0.674  0.00  0.00    +0.000 A 
ATOM     20  C   UNL     1      -1.792  -0.175  -0.642  0.00  0.00    +0.000 A 
ATOM     21  C   UNL     1      -2.781   0.363  -1.442  0.00  0.00    +0.000 A 
ENDBRANCH   1  19
TORSDOF 1
