REMARK  Name = 
REMARK  2 active torsions:
REMARK  status: ('A' for Active; 'I' for Inactive)
REMARK    1  A    between atoms: C_5  and  C_6
REMARK    2  A    between atoms: C_11  and  N_12
REMARK                            x       y       z     vdW  Elec       q    Type
REMARK                         _______ _______ _______ _____ _____    ______ ____
ROOT
ATOM      1  C   UNL     1       0.464  -0.863   1.049  0.00  0.00    +0.000 C 
ATOM      2  C   UNL     1       0.067   0.674   0.804  0.00  0.00    +0.000 C 
ATOM      3  C   UNL     1       1.283   1.353   1.611  0.00  0.00    +0.000 C 
ATOM      4  C   UNL     1       2.488   1.471   0.735  0.00  0.00    +0.000 C 
ATOM      5  C   UNL     1       2.636  -0.133   0.455  0.00  0.00    +0.000 C 
ATOM      6  C   UNL     1       1.764  -0.195  -0.912  0.00  0.00    +0.000 C 
ATOM      7  C   UNL     1       0.616   0.931  -0.770  0.00  0.00    +0.000 C 
ENDROOT
BRANCH   7   8
ATOM      8  N   UNL     1      -0.523   0.143  -1.470  0.00  0.00    +0.000 N 
ATOM      9  C   UNL     1      -0.487   0.033  -2.907  0.00  0.00    +0.000 C 
ATOM     10  C   UNL     1      -1.562  -0.443  -0.745  0.00  0.00    +0.000 A 
ATOM     11  N   UNL     1      -1.628  -1.806  -0.855  0.00  0.00    +0.000 NA
ATOM     12  C   UNL     1      -2.587  -2.476  -0.197  0.00  0.00    +0.000 A 
ATOM     13  N   UNL     1      -3.491  -1.845   0.571  0.00  0.00    +0.000 NA
ATOM     14  C   UNL     1      -3.457  -0.509   0.701  0.00  0.00    +0.000 A 
ATOM     15  N   UNL     1      -4.199   0.389   1.374  0.00  0.00    +0.000 NA
ATOM     16  C   UNL     1      -3.723   1.613   1.151  0.00  0.00    +0.000 A 
ATOM     17  C   UNL     1      -2.628   1.542   0.303  0.00  0.00    +0.000 A 
ATOM     18  C   UNL     1      -2.478   0.198   0.033  0.00  0.00    +0.000 A 
ENDBRANCH   7   8
BRANCH   5  19
ATOM     19  C   UNL     1       4.077  -0.004  -0.303  0.00  0.00    +0.000 C 
ATOM     20  C   UNL     1       4.452  -1.428  -0.687  0.00  0.00    +0.000 C 
ATOM     21  C   UNL     1       4.967   0.511   0.807  0.00  0.00    +0.000 C 
ATOM     22  O   UNL     1       3.949   0.843  -1.351  0.00  0.00    +0.000 OA
ENDBRANCH   5  19
TORSDOF 2
