REMARK  Name = 
REMARK  2 active torsions:
REMARK  status: ('A' for Active; 'I' for Inactive)
REMARK    1  A    between atoms: N_11  and  C_12
REMARK    2  A    between atoms: C_12  and  C_13
REMARK                            x       y       z     vdW  Elec       q    Type
REMARK                         _______ _______ _______ _____ _____    ______ ____
ROOT
ATOM      1  O   UNL     1       2.239  -2.472   0.636  0.00  0.00    +0.000 OA
ATOM      2  C   UNL     1       1.163  -1.837   0.540  0.00  0.00    +0.000 A 
ATOM      3  N   UNL     1       0.183  -2.054   1.439  0.00  0.00    +0.000 NA
ATOM      4  C   UNL     1      -1.014  -1.384   1.375  0.00  0.00    +0.000 A 
ATOM      5  S   UNL     1      -2.452  -1.386   2.302  0.00  0.00    +0.000 S 
ATOM      6  C   UNL     1      -3.342  -0.228   1.436  0.00  0.00    +0.000 A 
ATOM      7  C   UNL     1      -2.482   0.137   0.431  0.00  0.00    +0.000 A 
ATOM      8  C   UNL     1      -1.278  -0.462   0.401  0.00  0.00    +0.000 A 
ATOM      9  C   UNL     1      -0.232  -0.260  -0.522  0.00  0.00    +0.000 A 
ATOM     10  O   UNL     1      -0.385   0.584  -1.471  0.00  0.00    +0.000 OA
ATOM     11  N   UNL     1       0.915  -0.937  -0.418  0.00  0.00    +0.000 N 
ATOM     12  C   UNL     1      -3.092   1.194  -0.490  0.00  0.00    +0.000 C 
ATOM     13  C   UNL     1      -4.417   0.576  -0.936  0.00  0.00    +0.000 C 
ATOM     14  C   UNL     1      -5.388   0.469   0.204  0.00  0.00    +0.000 C 
ATOM     15  C   UNL     1      -4.716   0.396   1.545  0.00  0.00    +0.000 C 
ENDROOT
BRANCH  11  16
ATOM     16  C   UNL     1       1.955  -0.690  -1.394  0.00  0.00    +0.000 C 
BRANCH  16  17
ATOM     17  C   UNL     1       2.866   0.405  -0.956  0.00  0.00    +0.000 A 
ATOM     18  C   UNL     1       3.963   0.078  -0.221  0.00  0.00    +0.000 A 
ATOM     19  C   UNL     1       4.826   1.068   0.200  0.00  0.00    +0.000 A 
ATOM     20  C   UNL     1       4.588   2.382  -0.117  0.00  0.00    +0.000 A 
ATOM     21  C   UNL     1       3.478   2.702  -0.859  0.00  0.00    +0.000 A 
ATOM     22  C   UNL     1       2.621   1.719  -1.277  0.00  0.00    +0.000 A 
ENDBRANCH  16  17
ENDBRANCH  11  16
TORSDOF 2
