REMARK  Name = 
REMARK  2 active torsions:
REMARK  status: ('A' for Active; 'I' for Inactive)
REMARK    1  A    between atoms: N_6  and  N_7
REMARK    2  A    between atoms: N_7  and  C_8
REMARK                            x       y       z     vdW  Elec       q    Type
REMARK                         _______ _______ _______ _____ _____    ______ ____
ROOT
ATOM      1 CL   UNL     1      -2.595   2.999   1.415  0.00  0.00    +0.000 Cl
ATOM      2  C   UNL     1      -1.696   1.625   0.829  0.00  0.00    +0.000 A 
ATOM      3  N   UNL     1      -0.372   1.486   0.971  0.00  0.00    +0.000 NA
ATOM      4  N   UNL     1       0.277   0.429   0.514  0.00  0.00    +0.000 NA
ATOM      5  C   UNL     1      -0.358  -0.577  -0.125  0.00  0.00    +0.000 A 
ATOM      6  N   UNL     1       0.279  -1.720  -0.631  0.00  0.00    +0.000 NA
ATOM      7  C   UNL     1      -1.736  -0.479  -0.297  0.00  0.00    +0.000 A 
ATOM      8  C   UNL     1      -2.457  -1.468  -0.941  0.00  0.00    +0.000 A 
ATOM      9  C   UNL     1      -3.822  -1.364  -1.107  0.00  0.00    +0.000 A 
ATOM     10  C   UNL     1      -4.515  -0.269  -0.637  0.00  0.00    +0.000 A 
ATOM     11  C   UNL     1      -3.783   0.720   0.008  0.00  0.00    +0.000 A 
ATOM     12  C   UNL     1      -2.417   0.621   0.178  0.00  0.00    +0.000 A 
ENDROOT
BRANCH   6  13
ATOM     13  N   UNL     1       1.622  -2.008  -0.565  0.00  0.00    +0.000 NA
BRANCH  13  14
ATOM     14  C   UNL     1       2.657  -1.055  -0.379  0.00  0.00    +0.000 C 
ATOM     15  C   UNL     1       3.032  -0.642   0.816  0.00  0.00    +0.000 C 
ATOM     16  C   UNL     1       4.088   0.336   1.086  0.00  0.00    +0.000 C 
ATOM     17  C   UNL     1       4.748   0.898  -0.126  0.00  0.00    +0.000 C 
ATOM     18  C   UNL     1       3.691   0.954  -1.235  0.00  0.00    +0.000 C 
ATOM     19  C   UNL     1       3.357  -0.488  -1.561  0.00  0.00    +0.000 C 
ENDBRANCH  13  14
ENDBRANCH   6  13
TORSDOF 2
