REMARK  Name = 
REMARK  2 active torsions:
REMARK  status: ('A' for Active; 'I' for Inactive)
REMARK    1  A    between atoms: C_5  and  C_6
REMARK    2  A    between atoms: C_6  and  C_7
REMARK                            x       y       z     vdW  Elec       q    Type
REMARK                         _______ _______ _______ _____ _____    ______ ____
ROOT
ATOM      1  C   UNL     1      -0.202   1.024   0.058  0.00  0.00    +0.000 C 
ATOM      2  C   UNL     1      -0.064   1.800   1.368  0.00  0.00    +0.000 C 
ATOM      3  C   UNL     1       0.662   3.054   0.858  0.00  0.00    +0.000 C 
ATOM      4  C   UNL     1      -0.244   3.423  -0.321  0.00  0.00    +0.000 C 
ATOM      5  C   UNL     1      -0.437   2.107  -0.997  0.00  0.00    +0.000 C 
ENDROOT
BRANCH   1  10
ATOM      6  O   UNL     1       4.744  -1.583  -0.456  0.00  0.00    +0.000 OA
ATOM      7  C   UNL     1       3.545  -0.920  -0.380  0.00  0.00    +0.000 A 
ATOM      8  C   UNL     1       2.740  -1.169   0.713  0.00  0.00    +0.000 A 
ATOM      9  C   UNL     1       1.532  -0.518   0.816  0.00  0.00    +0.000 A 
ATOM     10  C   UNL     1       1.129   0.378  -0.168  0.00  0.00    +0.000 A 
ATOM     11  C   UNL     1       1.905   0.640  -1.253  0.00  0.00    +0.000 A 
ATOM     12  C   UNL     1       3.120  -0.021  -1.347  0.00  0.00    +0.000 A 
ENDBRANCH   1  10
BRANCH   1  13
ATOM     13  C   UNL     1      -1.289   0.043   0.079  0.00  0.00    +0.000 A 
ATOM     14  C   UNL     1      -2.298   0.059  -0.882  0.00  0.00    +0.000 A 
ATOM     15  C   UNL     1      -3.317  -0.883  -0.842  0.00  0.00    +0.000 A 
ATOM     16  C   UNL     1      -3.376  -1.858   0.131  0.00  0.00    +0.000 A 
ATOM     17  O   UNL     1      -4.424  -2.775   0.119  0.00  0.00    +0.000 OA
ATOM     18  C   UNL     1      -2.375  -1.870   1.081  0.00  0.00    +0.000 A 
ATOM     19  C   UNL     1      -1.352  -0.931   1.048  0.00  0.00    +0.000 A 
ENDBRANCH   1  13
TORSDOF 2
