REMARK  Name = 
REMARK  2 active torsions:
REMARK  status: ('A' for Active; 'I' for Inactive)
REMARK    1  A    between atoms: C_7  and  C_8
REMARK    2  A    between atoms: C_11  and  C_12
REMARK                            x       y       z     vdW  Elec       q    Type
REMARK                         _______ _______ _______ _____ _____    ______ ____
ROOT
ATOM      1  C   UNL     1      -5.376   0.523   0.981  0.00  0.00    +0.000 C 
ATOM      2  C   UNL     1      -4.039   0.469   0.386  0.00  0.00    +0.000 A 
ATOM      3  N   UNL     1      -3.837   0.768  -0.893  0.00  0.00    +0.000 NA
ATOM      4  C   UNL     1      -2.573   0.713  -1.439  0.00  0.00    +0.000 A 
ATOM      5  S   UNL     1      -1.931   1.007  -2.994  0.00  0.00    +0.000 S 
ATOM      6  C   UNL     1      -0.300   0.671  -2.685  0.00  0.00    +0.000 A 
ATOM      7  C   UNL     1      -0.287   0.329  -1.349  0.00  0.00    +0.000 A 
ATOM      8  C   UNL     1      -1.471   0.353  -0.710  0.00  0.00    +0.000 A 
ATOM      9  C   UNL     1      -1.743   0.045   0.639  0.00  0.00    +0.000 A 
ATOM     10  O   UNL     1      -0.834  -0.305   1.436  0.00  0.00    +0.000 OA
ATOM     11  N   UNL     1      -2.989   0.112   1.131  0.00  0.00    +0.000 N 
ATOM     12  N   UNL     1      -3.168  -0.218   2.511  0.00  0.00    +0.000 NA
ENDROOT
BRANCH   7  13
ATOM     13  C   UNL     1       1.027  -0.014  -0.720  0.00  0.00    +0.000 A 
ATOM     14  C   UNL     1       1.460   0.589   0.432  0.00  0.00    +0.000 A 
ATOM     15  C   UNL     1       2.666   0.289   1.027  0.00  0.00    +0.000 A 
ATOM     16  C   UNL     1       3.490  -0.651   0.465  0.00  0.00    +0.000 A 
ATOM     17  C   UNL     1       3.074  -1.271  -0.695  0.00  0.00    +0.000 A 
ATOM     18  C   UNL     1       1.855  -0.959  -1.285  0.00  0.00    +0.000 A 
BRANCH  16  19
ATOM     19  C   UNL     1       4.790  -0.972   1.111  0.00  0.00    +0.000 C 
ATOM     20  C   UNL     1       5.592   0.280   1.395  0.00  0.00    +0.000 C 
ATOM     21  C   UNL     1       4.593  -1.758   2.401  0.00  0.00    +0.000 C 
ENDBRANCH  16  19
ENDBRANCH   7  13
TORSDOF 2
