REMARK  Name = 
REMARK  2 active torsions:
REMARK  status: ('A' for Active; 'I' for Inactive)
REMARK    1  A    between atoms: C_12  and  C_13
REMARK    2  A    between atoms: C_16  and  N_17
REMARK                            x       y       z     vdW  Elec       q    Type
REMARK                         _______ _______ _______ _____ _____    ______ ____
ROOT
ATOM      1  C   UNL     1      -0.122  -1.122  -2.480  0.00  0.00    +0.000 C 
ATOM      2  C   UNL     1      -0.926  -1.544  -1.604  0.00  0.00    +0.000 C 
ATOM      3  N   UNL     1      -2.244  -2.063  -1.716  0.00  0.00    +0.000 NA
ATOM      4  N   UNL     1      -3.268  -1.799  -0.790  0.00  0.00    +0.000 NA
ATOM      5  C   UNL     1      -2.928  -1.035   0.198  0.00  0.00    +0.000 C 
ATOM      6  C   UNL     1      -4.020  -0.762   1.169  0.00  0.00    +0.000 C 
ATOM      7  C   UNL     1      -3.862   0.607   1.804  0.00  0.00    +0.000 C 
ATOM      8  C   UNL     1      -3.442   1.554   0.710  0.00  0.00    +0.000 C 
ATOM      9  C   UNL     1      -1.976   1.913   0.757  0.00  0.00    +0.000 C 
ATOM     10  C   UNL     1      -1.092   0.724   0.747  0.00  0.00    +0.000 C 
ATOM     11  N   UNL     1      -1.624  -0.492   0.355  0.00  0.00    +0.000 N 
ATOM     12  C   UNL     1      -0.549  -1.568  -0.028  0.00  0.00    +0.000 C 
ENDROOT
BRANCH  12  13
ATOM     13  C   UNL     1       0.783  -0.747  -0.009  0.00  0.00    +0.000 A 
ATOM     14  C   UNL     1       1.676  -0.795  -1.029  0.00  0.00    +0.000 A 
ATOM     15  C   UNL     1       2.869  -0.069  -0.975  0.00  0.00    +0.000 A 
ATOM     16  C   UNL     1       3.155   0.703   0.109  0.00  0.00    +0.000 A 
ATOM     17  C   UNL     1       2.258   0.763   1.155  0.00  0.00    +0.000 A 
ATOM     18  C   UNL     1       1.058   0.021   1.081  0.00  0.00    +0.000 A 
BRANCH  16  19
ATOM     19  N   UNL     1       4.378   1.466   0.199  0.00  0.00    +0.000 N 
ATOM     20  O   UNL     1       4.612   2.154   1.188  0.00  0.00    +0.000 OA
ATOM     21  O   UNL     1       5.264   1.403  -0.840  0.00  0.00    +0.000 OA
ENDBRANCH  16  19
ENDBRANCH  12  13
TORSDOF 2
