REMARK  Name = 
REMARK  3 active torsions:
REMARK  status: ('A' for Active; 'I' for Inactive)
REMARK    1  A    between atoms: C_7  and  N_8
REMARK    2  A    between atoms: C_9  and  C_11
REMARK    3  A    between atoms: C_15  and  N_16
REMARK                            x       y       z     vdW  Elec       q    Type
REMARK                         _______ _______ _______ _____ _____    ______ ____
ROOT
ATOM      1  N   UNL     1      -1.010  -0.642   0.426  0.00  0.00    +0.000 NA
ATOM      2  C   UNL     1      -0.029   0.373   0.436  0.00  0.00    +0.000 C 
ATOM      3  O   UNL     1      -0.333   1.581   0.101  0.00  0.00    +0.000 OA
ENDROOT
BRANCH   1  10
ATOM      4  C   UNL     1      -5.647  -2.148  -0.294  0.00  0.00    +0.000 C 
ATOM      5  C   UNL     1      -4.639  -1.064  -0.304  0.00  0.00    +0.000 A 
ATOM      6  C   UNL     1      -4.973   0.224  -0.673  0.00  0.00    +0.000 A 
ATOM      7  C   UNL     1      -3.997   1.221  -0.682  0.00  0.00    +0.000 A 
ATOM      8  C   UNL     1      -4.420   2.577  -1.089  0.00  0.00    +0.000 C 
ATOM      9  C   UNL     1      -2.701   0.944  -0.332  0.00  0.00    +0.000 A 
ATOM     10  C   UNL     1      -2.349  -0.333   0.040  0.00  0.00    +0.000 A 
ATOM     11  C   UNL     1      -3.324  -1.307   0.044  0.00  0.00    +0.000 A 
ENDBRANCH   1  10
BRANCH   2  12
ATOM     12  C   UNL     1       1.335   0.054   0.831  0.00  0.00    +0.000 A 
ATOM     13  C   UNL     1       1.626  -0.367   2.118  0.00  0.00    +0.000 A 
ATOM     14  C   UNL     1       2.917  -0.701   2.488  0.00  0.00    +0.000 A 
ATOM     15  C   UNL     1       3.923  -0.612   1.562  0.00  0.00    +0.000 A 
ATOM     16  C   UNL     1       3.689  -0.194   0.246  0.00  0.00    +0.000 A 
ATOM     17  C   UNL     1       2.398   0.127  -0.072  0.00  0.00    +0.000 A 
ATOM     18  C   UNL     1       2.125   0.570  -1.453  0.00  0.00    +0.000 C 
BRANCH  16  19
ATOM     19  N   UNL     1       4.772  -0.107  -0.673  0.00  0.00    +0.000 N 
ATOM     20  O   UNL     1       4.783   0.748  -1.579  0.00  0.00    +0.000 OA
ATOM     21  O   UNL     1       5.853  -0.943  -0.631  0.00  0.00    +0.000 OA
ENDBRANCH  16  19
ENDBRANCH   2  12
TORSDOF 3
