REMARK  Name = 
REMARK  2 active torsions:
REMARK  status: ('A' for Active; 'I' for Inactive)
REMARK    1  A    between atoms: C_7  and  N_8
REMARK    2  A    between atoms: C_9  and  C_11
REMARK                            x       y       z     vdW  Elec       q    Type
REMARK                         _______ _______ _______ _____ _____    ______ ____
ROOT
ATOM      1  N   UNL     1       0.733   0.307  -0.012  0.00  0.00    +0.000 NA
ATOM      2  C   UNL     1      -0.023  -0.895  -0.017  0.00  0.00    +0.000 C 
ATOM      3  O   UNL     1       0.634  -1.946   0.068  0.00  0.00    +0.000 OA
ENDROOT
BRANCH   2   4
ATOM      4  C   UNL     1      -1.515  -0.892  -0.119  0.00  0.00    +0.000 A 
ATOM      5  C   UNL     1      -2.183  -2.087  -0.118  0.00  0.00    +0.000 A 
ATOM      6  N   UNL     1      -1.613  -3.419  -0.028  0.00  0.00    +0.000 NA
ATOM      7  S   UNL     1      -3.814  -1.626  -0.247  0.00  0.00    +0.000 S 
ATOM      8  C   UNL     1      -3.620   0.066  -0.299  0.00  0.00    +0.000 A 
ATOM      9  C   UNL     1      -2.273   0.237  -0.214  0.00  0.00    +0.000 A 
ATOM     10  C   UNL     1      -1.994   1.747  -0.255  0.00  0.00    +0.000 C 
ATOM     11  C   UNL     1      -3.303   2.403   0.026  0.00  0.00    +0.000 C 
ATOM     12  C   UNL     1      -4.352   1.391  -0.398  0.00  0.00    +0.000 C 
ENDBRANCH   2   4
BRANCH   1  19
ATOM     13  C   UNL     1       2.075   2.780  -0.015  0.00  0.00    +0.000 C 
ATOM     14  C   UNL     1       2.833   1.489   0.086  0.00  0.00    +0.000 A 
ATOM     15  C   UNL     1       4.196   1.537   0.177  0.00  0.00    +0.000 A 
ATOM     16  C   UNL     1       4.932   0.355   0.273  0.00  0.00    +0.000 A 
ATOM     17  C   UNL     1       4.256  -0.858   0.273  0.00  0.00    +0.000 A 
ATOM     18  C   UNL     1       2.879  -0.882   0.180  0.00  0.00    +0.000 A 
ATOM     19  C   UNL     1       2.151   0.294   0.085  0.00  0.00    +0.000 A 
ENDBRANCH   1  19
TORSDOF 2
