REMARK  Name = 
REMARK  3 active torsions:
REMARK  status: ('A' for Active; 'I' for Inactive)
REMARK    1  A    between atoms: N_12  and  C_13
REMARK    2  A    between atoms: C_13  and  C_14
REMARK    3  A    between atoms: C_14  and  C_15
REMARK                            x       y       z     vdW  Elec       q    Type
REMARK                         _______ _______ _______ _____ _____    ______ ____
ROOT
ATOM      1  O   UNL     1      -0.899  -0.681  -1.870  0.00  0.00    +0.000 OA
ATOM      2  C   UNL     1      -1.301  -0.214  -0.775  0.00  0.00    +0.000 A 
ATOM      3  C   UNL     1      -2.652  -0.325  -0.450  0.00  0.00    +0.000 A 
ATOM      4  C   UNL     1      -3.561  -0.932  -1.294  0.00  0.00    +0.000 A 
ATOM      5  C   UNL     1      -4.904  -1.025  -0.936  0.00  0.00    +0.000 A 
ATOM      6  C   UNL     1      -5.258  -0.487   0.280  0.00  0.00    +0.000 A 
ATOM      7  N   UNL     1      -4.368   0.106   1.107  0.00  0.00    +0.000 NA
ATOM      8  C   UNL     1      -3.064   0.196   0.758  0.00  0.00    +0.000 A 
ATOM      9  N   UNL     1      -2.174   0.787   1.579  0.00  0.00    +0.000 NA
ATOM     10  C   UNL     1      -0.887   0.894   1.272  0.00  0.00    +0.000 A 
ATOM     11  S   UNL     1       0.217   1.692   2.419  0.00  0.00    +0.000 S 
ATOM     12  N   UNL     1      -0.468   0.388   0.091  0.00  0.00    +0.000 N 
ENDROOT
BRANCH  12  13
ATOM     13  C   UNL     1       0.928   0.508  -0.234  0.00  0.00    +0.000 C 
BRANCH  13  14
ATOM     14  C   UNL     1       1.655  -0.704   0.283  0.00  0.00    +0.000 C 
BRANCH  14  15
ATOM     15  C   UNL     1       3.104  -0.523  -0.084  0.00  0.00    +0.000 C 
ATOM     16  C   UNL     1       3.965  -0.491   0.929  0.00  0.00    +0.000 C 
ATOM     17  C   UNL     1       5.429  -0.319   0.735  0.00  0.00    +0.000 C 
ATOM     18  C   UNL     1       5.769   0.208  -0.641  0.00  0.00    +0.000 C 
ATOM     19  C   UNL     1       4.976  -0.569  -1.663  0.00  0.00    +0.000 C 
ATOM     20  C   UNL     1       3.493  -0.392  -1.504  0.00  0.00    +0.000 C 
ENDBRANCH  14  15
ENDBRANCH  13  14
ENDBRANCH  12  13
TORSDOF 3
