REMARK  Name = 
REMARK  2 active torsions:
REMARK  status: ('A' for Active; 'I' for Inactive)
REMARK    1  A    between atoms: N_7  and  C_8
REMARK    2  A    between atoms: C_12  and  C_13
REMARK                            x       y       z     vdW  Elec       q    Type
REMARK                         _______ _______ _______ _____ _____    ______ ____
ROOT
ATOM      1  C   UNL     1      -0.431  -0.736  -0.201  0.00  0.00    +0.000 A 
ATOM      2  S   UNL     1       0.540  -2.071  -0.607  0.00  0.00    +0.000 S 
ATOM      3  C   UNL     1       2.074  -1.390  -0.294  0.00  0.00    +0.000 A 
ATOM      4  C   UNL     1       1.772  -0.122   0.124  0.00  0.00    +0.000 A 
ATOM      5  C   UNL     1       0.479   0.223   0.174  0.00  0.00    +0.000 A 
ATOM      6  C   UNL     1       3.012   0.682   0.463  0.00  0.00    +0.000 C 
ATOM      7  C   UNL     1       3.997   0.594  -0.671  0.00  0.00    +0.000 C 
ATOM      8  C   UNL     1       4.398  -0.825  -0.985  0.00  0.00    +0.000 C 
ATOM      9  C   UNL     1       3.511  -1.854  -0.378  0.00  0.00    +0.000 C 
ENDROOT
BRANCH   1  16
ATOM     10  C   UNL     1      -2.019   0.714  -2.358  0.00  0.00    +0.000 C 
ATOM     11  C   UNL     1      -2.546  -0.028  -1.194  0.00  0.00    +0.000 A 
ATOM     12  C   UNL     1      -3.889  -0.167  -0.920  0.00  0.00    +0.000 A 
ATOM     13  C   UNL     1      -4.035  -0.923   0.249  0.00  0.00    +0.000 A 
ATOM     14  C   UNL     1      -2.726  -1.208   0.628  0.00  0.00    +0.000 A 
ATOM     15  C   UNL     1      -2.363  -2.000   1.830  0.00  0.00    +0.000 C 
ATOM     16  N   UNL     1      -1.870  -0.661  -0.251  0.00  0.00    +0.000 N 
ENDBRANCH   1  16
BRANCH   5  17
ATOM     17  C   UNL     1      -0.015   1.553   0.603  0.00  0.00    +0.000 C 
ATOM     18  O   UNL     1      -1.222   1.839   0.638  0.00  0.00    +0.000 OA
ATOM     19  N   UNL     1       0.900   2.563   0.996  0.00  0.00    +0.000 NA
ATOM     20  N   UNL     1       0.434   3.816   1.401  0.00  0.00    +0.000 NA
ENDBRANCH   5  17
TORSDOF 2
