REMARK  Name = 
REMARK  4 active torsions:
REMARK  status: ('A' for Active; 'I' for Inactive)
REMARK    1  A    between atoms: C_2  and  N_3
REMARK    2  A    between atoms: C_2  and  C_15
REMARK    3  A    between atoms: C_4  and  C_6
REMARK    4  A    between atoms: C_9  and  N_10
REMARK                            x       y       z     vdW  Elec       q    Type
REMARK                         _______ _______ _______ _____ _____    ______ ____
ROOT
ATOM      1  N   UNL     1      -0.616   1.247   1.000  0.00  0.00    +0.000 NA
ATOM      2  C   UNL     1      -0.161   0.621  -0.127  0.00  0.00    +0.000 C 
ATOM      3  O   UNL     1      -0.985   0.387  -1.052  0.00  0.00    +0.000 OA
ENDROOT
BRANCH   2   4
ATOM      4  C   UNL     1       1.259   0.210  -0.296  0.00  0.00    +0.000 A 
ATOM      5  C   UNL     1       2.238   0.731   0.526  0.00  0.00    +0.000 A 
ATOM      6  C   UNL     1       3.541   0.335   0.365  0.00  0.00    +0.000 A 
ATOM      7  C   UNL     1       3.966  -0.568  -0.576  0.00  0.00    +0.000 A 
ATOM      8  C   UNL     1       2.961  -1.089  -1.404  0.00  0.00    +0.000 A 
ATOM      9  C   UNL     1       1.649  -0.693  -1.247  0.00  0.00    +0.000 A 
BRANCH   7  10
ATOM     10  N   UNL     1       5.328  -0.961  -0.713  0.00  0.00    +0.000 N 
ATOM     11  O   UNL     1       5.577  -1.807  -1.605  0.00  0.00    +0.000 OA
ATOM     12  O   UNL     1       6.254  -0.412   0.114  0.00  0.00    +0.000 OA
ENDBRANCH   7  10
ENDBRANCH   2   4
BRANCH   1  14
ATOM     13  C   UNL     1      -2.037   2.529  -0.270  0.00  0.00    +0.000 C 
ATOM     14  C   UNL     1      -2.083   1.627   1.072  0.00  0.00    +0.000 C 
BRANCH  14  15
ATOM     15  C   UNL     1      -2.647   0.229   0.360  0.00  0.00    +0.000 C 
ATOM     16  C   UNL     1      -2.673  -0.628   1.679  0.00  0.00    +0.000 C 
ATOM     17  C   UNL     1      -3.963  -1.556   1.376  0.00  0.00    +0.000 C 
ATOM     18  C   UNL     1      -3.868  -1.617  -0.235  0.00  0.00    +0.000 C 
ATOM     19  C   UNL     1      -4.639  -0.525  -0.757  0.00  0.00    +0.000 C 
ATOM     20  C   UNL     1      -4.258   0.664   0.299  0.00  0.00    +0.000 C 
ATOM     21  C   UNL     1      -4.844  -0.200   1.491  0.00  0.00    +0.000 C 
ENDBRANCH  14  15
ENDBRANCH   1  14
TORSDOF 4
