REMARK  Name = 
REMARK  2 active torsions:
REMARK  status: ('A' for Active; 'I' for Inactive)
REMARK    1  A    between atoms: C_2  and  C_3
REMARK    2  A    between atoms: C_13  and  C_14
REMARK                            x       y       z     vdW  Elec       q    Type
REMARK                         _______ _______ _______ _____ _____    ______ ____
ROOT
ATOM      1  C   UNL     1       0.145   1.008  -1.421  0.00  0.00    +0.000 C 
ATOM      2  C   UNL     1      -1.016   1.534  -1.518  0.00  0.00    +0.000 C 
ATOM      3  N   UNL     1      -1.194   2.882  -2.071  0.00  0.00    +0.000 NA
ATOM      4  O   UNL     1      -2.131   0.874  -1.119  0.00  0.00    +0.000 OA
ATOM      5  C   UNL     1      -2.017  -0.411  -0.588  0.00  0.00    +0.000 C 
ATOM      6  C   UNL     1      -0.859  -1.010  -0.457  0.00  0.00    +0.000 C 
ATOM      7  C   UNL     1      -0.817  -2.333   0.091  0.00  0.00    +0.000 C 
ATOM      8  C   UNL     1      -1.994  -3.204  -0.105  0.00  0.00    +0.000 C 
ATOM      9  C   UNL     1      -3.260  -2.525  -0.484  0.00  0.00    +0.000 C 
ATOM     10  C   UNL     1      -3.281  -1.056  -0.183  0.00  0.00    +0.000 C 
ATOM     11  C   UNL     1       0.450  -0.367  -0.845  0.00  0.00    +0.000 C 
ENDROOT
BRANCH  11  12
ATOM     12  C   UNL     1       1.209   0.018   0.424  0.00  0.00    +0.000 A 
ATOM     13  C   UNL     1       1.312   1.387   0.740  0.00  0.00    +0.000 A 
ATOM     14  C   UNL     1       1.886   1.849   1.915  0.00  0.00    +0.000 A 
ATOM     15  C   UNL     1       2.379   0.946   2.816  0.00  0.00    +0.000 A 
ATOM     16  C   UNL     1       2.290  -0.397   2.524  0.00  0.00    +0.000 A 
ATOM     17  C   UNL     1       1.705  -0.827   1.328  0.00  0.00    +0.000 A 
ATOM     18 CL   UNL     1       1.696  -2.494   0.865  0.00  0.00    +0.000 Cl
ENDBRANCH  11  12
BRANCH   1  20
ATOM     19  N   UNL     1       2.210   2.371  -2.237  0.00  0.00    +0.000 NA
ATOM     20  C   UNL     1       1.286   1.756  -1.864  0.00  0.00    +0.000 C 
ENDBRANCH   1  20
TORSDOF 2
