REMARK  Name = 
REMARK  4 active torsions:
REMARK  status: ('A' for Active; 'I' for Inactive)
REMARK    1  A    between atoms: C_2  and  C_3
REMARK    2  A    between atoms: C_3  and  C_4
REMARK    3  A    between atoms: C_4  and  S_5
REMARK    4  A    between atoms: S_5  and  C_6
REMARK                            x       y       z     vdW  Elec       q    Type
REMARK                         _______ _______ _______ _____ _____    ______ ____
ROOT
ATOM      1  C   UNL     1       0.744   1.316  -0.646  0.00  0.00    +0.000 A 
ATOM      2  N   UNL     1      -0.541   1.026  -0.406  0.00  0.00    +0.000 NA
ATOM      3  C   UNL     1      -0.947   0.239   0.607  0.00  0.00    +0.000 A 
ATOM      4  C   UNL     1       0.001  -0.310   1.455  0.00  0.00    +0.000 A 
ATOM      5  N   UNL     1      -0.643  -1.049   2.379  0.00  0.00    +0.000 NA
ATOM      6  C   UNL     1      -1.976  -1.019   2.185  0.00  0.00    +0.000 A 
ATOM      7  C   UNL     1      -3.019  -1.597   2.840  0.00  0.00    +0.000 A 
ATOM      8  C   UNL     1      -4.309  -1.390   2.407  0.00  0.00    +0.000 A 
ATOM      9  C   UNL     1      -4.528  -0.598   1.315  0.00  0.00    +0.000 A 
ATOM     10  C   UNL     1      -3.456  -0.008   0.646  0.00  0.00    +0.000 A 
ATOM     11  C   UNL     1      -2.162  -0.209   1.072  0.00  0.00    +0.000 A 
ATOM     12  C   UNL     1       1.327  -0.009   1.204  0.00  0.00    +0.000 A 
ATOM     13  O   UNL     1       2.216  -0.490   1.954  0.00  0.00    +0.000 OA
ATOM     14  N   UNL     1       1.679   0.792   0.168  0.00  0.00    +0.000 N 
ATOM     15  C   UNL     1       3.068   1.116  -0.107  0.00  0.00    +0.000 C 
ENDROOT
BRANCH   1  16
ATOM     16  S   UNL     1       1.257   2.373  -2.012  0.00  0.00    +0.000 S 
BRANCH  16  17
ATOM     17  C   UNL     1       1.524   1.319  -3.470  0.00  0.00    +0.000 C 
BRANCH  17  18
ATOM     18  C   UNL     1       2.700   0.397  -3.254  0.00  0.00    +0.000 C 
BRANCH  18  20
ATOM     19  C   UNL     1       4.123  -1.403  -4.204  0.00  0.00    +0.000 C 
ATOM     20  C   UNL     1       2.942  -0.495  -4.450  0.00  0.00    +0.000 C 
ENDBRANCH  18  20
ENDBRANCH  17  18
ENDBRANCH  16  17
ENDBRANCH   1  16
TORSDOF 4
