REMARK  Name = 
REMARK  3 active torsions:
REMARK  status: ('A' for Active; 'I' for Inactive)
REMARK    1  A    between atoms: C_5  and  C_6
REMARK    2  A    between atoms: C_11  and  O_12
REMARK    3  A    between atoms: C_14  and  O_15
REMARK                            x       y       z     vdW  Elec       q    Type
REMARK                         _______ _______ _______ _____ _____    ______ ____
ROOT
ATOM      1  C   UNL     1       0.786   0.828   0.416  0.00  0.00    +0.000 A 
ATOM      2  C   UNL     1       0.877   2.162   0.771  0.00  0.00    +0.000 A 
ATOM      3  N   UNL     1      -0.372   2.658   0.796  0.00  0.00    +0.000 NA
ATOM      4  C   UNL     1      -1.275   1.701   0.471  0.00  0.00    +0.000 A 
ATOM      5  C   UNL     1      -2.629   1.672   0.350  0.00  0.00    +0.000 A 
ATOM      6  C   UNL     1      -3.265   0.509  -0.007  0.00  0.00    +0.000 A 
ATOM      7  C   UNL     1      -2.571  -0.651  -0.251  0.00  0.00    +0.000 A 
ATOM      8  C   UNL     1      -1.193  -0.610  -0.125  0.00  0.00    +0.000 A 
ATOM      9  C   UNL     1      -0.540   0.548   0.232  0.00  0.00    +0.000 A 
ENDROOT
BRANCH   1  14
ATOM     10  C   UNL     1       6.393  -1.650   0.239  0.00  0.00    +0.000 C 
ATOM     11  N   UNL     1       5.556  -0.483   0.473  0.00  0.00    +0.000 NA
ATOM     12  C   UNL     1       4.129  -0.681   0.302  0.00  0.00    +0.000 A 
ATOM     13  N   UNL     1       3.179   0.217   0.457  0.00  0.00    +0.000 NA
ATOM     14  C   UNL     1       1.931  -0.115   0.265  0.00  0.00    +0.000 A 
ATOM     15  C   UNL     1       1.693  -1.421  -0.095  0.00  0.00    +0.000 A 
ATOM     16  S   UNL     1       3.264  -2.081  -0.136  0.00  0.00    +0.000 S 
ENDBRANCH   1  14
BRANCH   6  17
ATOM     17  O   UNL     1      -4.650   0.527  -0.118  0.00  0.00    +0.000 OA
ATOM     18  C   UNL     1      -5.420   1.664   0.114  0.00  0.00    +0.000 C 
ENDBRANCH   6  17
BRANCH   7  19
ATOM     19  O   UNL     1      -3.275  -1.789  -0.607  0.00  0.00    +0.000 OA
ATOM     20  C   UNL     1      -2.617  -3.006  -0.869  0.00  0.00    +0.000 C 
ENDBRANCH   7  19
TORSDOF 3
