REMARK  Name = 
REMARK  2 active torsions:
REMARK  status: ('A' for Active; 'I' for Inactive)
REMARK    1  A    between atoms: C_4  and  O_5
REMARK    2  A    between atoms: O_5  and  C_6
REMARK                            x       y       z     vdW  Elec       q    Type
REMARK                         _______ _______ _______ _____ _____    ______ ____
ROOT
ATOM      1  C   UNL     1      -0.544  -0.149   0.248  0.00  0.00    +0.000 A 
ATOM      2  C   UNL     1      -0.164  -0.368   1.557  0.00  0.00    +0.000 A 
ATOM      3  C   UNL     1      -1.076  -0.490   2.576  0.00  0.00    +0.000 A 
ATOM      4  C   UNL     1      -2.426  -0.396   2.315  0.00  0.00    +0.000 A 
ATOM      5  C   UNL     1      -2.818  -0.176   1.008  0.00  0.00    +0.000 A 
ATOM      6  C   UNL     1      -1.903  -0.053  -0.020  0.00  0.00    +0.000 A 
ATOM      7  O   UNL     1      -2.580   0.164  -1.236  0.00  0.00    +0.000 OA
ATOM      8  C   UNL     1      -3.800   0.786  -0.863  0.00  0.00    +0.000 C 
ATOM      9  C   UNL     1      -3.552   2.216  -0.429  0.00  0.00    +0.000 C 
ATOM     10  C   UNL     1      -4.869   0.673  -1.897  0.00  0.00    +0.000 C 
ATOM     11  C   UNL     1      -4.173  -0.022   0.363  0.00  0.00    +0.000 C 
ENDROOT
BRANCH   1  12
ATOM     12  O   UNL     1       0.396  -0.026  -0.782  0.00  0.00    +0.000 OA
BRANCH  12  16
ATOM     13  C   UNL     1       4.595   1.972   0.872  0.00  0.00    +0.000 C 
ATOM     14  C   UNL     1       3.796   0.818   0.366  0.00  0.00    +0.000 A 
ATOM     15  C   UNL     1       2.461   0.956   0.031  0.00  0.00    +0.000 A 
ATOM     16  C   UNL     1       1.743  -0.132  -0.435  0.00  0.00    +0.000 A 
ATOM     17  N   UNL     1       2.411  -1.311  -0.540  0.00  0.00    +0.000 NA
ATOM     18  C   UNL     1       3.702  -1.431  -0.212  0.00  0.00    +0.000 A 
ATOM     19  N   UNL     1       4.415  -2.665  -0.318  0.00  0.00    +0.000 NA
ATOM     20  N   UNL     1       4.383  -0.364   0.239  0.00  0.00    +0.000 NA
ENDBRANCH  12  16
ENDBRANCH   1  12
TORSDOF 2
