REMARK  Name = 
REMARK  3 active torsions:
REMARK  status: ('A' for Active; 'I' for Inactive)
REMARK    1  A    between atoms: O_2  and  C_3
REMARK    2  A    between atoms: C_8  and  O_9
REMARK    3  A    between atoms: C_14  and  C_15
REMARK                            x       y       z     vdW  Elec       q    Type
REMARK                         _______ _______ _______ _____ _____    ______ ____
ROOT
ATOM      1  C   UNL     1      -3.333   0.890  -0.491  0.00  0.00    +0.000 A 
ATOM      2  C   UNL     1      -1.954   1.200  -0.551  0.00  0.00    +0.000 A 
ATOM      3  C   UNL     1      -1.027   0.303  -0.108  0.00  0.00    +0.000 A 
ATOM      4  C   UNL     1      -1.421  -0.859   0.379  0.00  0.00    +0.000 A 
ATOM      5  C   UNL     1      -2.772  -1.234   0.470  0.00  0.00    +0.000 A 
ATOM      6  C   UNL     1      -3.725  -0.327   0.021  0.00  0.00    +0.000 A 
ATOM      7  C   UNL     1      -0.454  -1.984   0.924  0.00  0.00    +0.000 C 
ATOM      8  C   UNL     1      -0.513  -2.873  -0.459  0.00  0.00    +0.000 C 
ATOM      9  O   UNL     1       0.906  -1.423   0.753  0.00  0.00    +0.000 OA
ATOM     10  C   UNL     1       1.308  -0.278   0.273  0.00  0.00    +0.000 C 
ATOM     11  C   UNL     1       0.373   0.540  -0.136  0.00  0.00    +0.000 C 
ENDROOT
BRANCH  10  12
ATOM     12  C   UNL     1       2.722   0.075   0.196  0.00  0.00    +0.000 A 
ATOM     13  C   UNL     1       3.138   1.269  -0.304  0.00  0.00    +0.000 A 
ATOM     14  C   UNL     1       4.445   1.661  -0.405  0.00  0.00    +0.000 A 
ATOM     15  C   UNL     1       5.423   0.824   0.015  0.00  0.00    +0.000 A 
ATOM     16  O   UNL     1       6.787   1.108  -0.035  0.00  0.00    +0.000 OA
ATOM     17  C   UNL     1       5.072  -0.402   0.532  0.00  0.00    +0.000 A 
ATOM     18  C   UNL     1       3.724  -0.775   0.622  0.00  0.00    +0.000 A 
ENDBRANCH  10  12
BRANCH   1  20
ATOM     19  C   UNL     1      -3.895   3.075  -1.478  0.00  0.00    +0.000 C 
ATOM     20  O   UNL     1      -4.249   1.815  -0.945  0.00  0.00    +0.000 OA
ENDBRANCH   1  20
BRANCH   6  21
ATOM     21  O   UNL     1      -5.088  -0.683   0.103  0.00  0.00    +0.000 OA
ATOM     22  C   UNL     1      -5.466  -1.922   0.624  0.00  0.00    +0.000 C 
ENDBRANCH   6  21
TORSDOF 3
