REMARK  Name = 
REMARK  3 active torsions:
REMARK  status: ('A' for Active; 'I' for Inactive)
REMARK    1  A    between atoms: C_2  and  N_3
REMARK    2  A    between atoms: C_7  and  C_8
REMARK    3  A    between atoms: N_17  and  C_18
REMARK                            x       y       z     vdW  Elec       q    Type
REMARK                         _______ _______ _______ _____ _____    ______ ____
ROOT
ATOM      1  N   UNL     1      -2.885   0.162  -0.645  0.00  0.00    +0.000 N 
ATOM      2  C   UNL     1      -1.643   0.243  -1.310  0.00  0.00    +0.000 C 
ATOM      3  O   UNL     1      -1.569   0.526  -2.532  0.00  0.00    +0.000 OA
ATOM      4  C   UNL     1      -0.372  -0.005  -0.590  0.00  0.00    +0.000 C 
ATOM      5  C   UNL     1       0.726   0.091  -1.247  0.00  0.00    +0.000 C 
ATOM      6  C   UNL     1      -0.501  -0.327   0.811  0.00  0.00    +0.000 C 
ATOM      7  O   UNL     1       0.538  -0.548   1.487  0.00  0.00    +0.000 OA
ATOM      8  N   UNL     1      -1.796  -0.398   1.452  0.00  0.00    +0.000 N 
ATOM      9  C   UNL     1      -2.993  -0.156   0.734  0.00  0.00    +0.000 C 
ATOM     10  S   UNL     1      -4.431  -0.246   1.495  0.00  0.00    +0.000 S 
ENDROOT
BRANCH   5  11
ATOM     11  C   UNL     1       2.101  -0.076  -0.889  0.00  0.00    +0.000 A 
ATOM     12  C   UNL     1       2.625  -1.058  -0.081  0.00  0.00    +0.000 A 
ATOM     13  C   UNL     1       3.971  -1.130   0.207  0.00  0.00    +0.000 A 
ATOM     14  C   UNL     1       4.876  -0.220  -0.299  0.00  0.00    +0.000 A 
ATOM     15  O   UNL     1       6.220  -0.332   0.018  0.00  0.00    +0.000 OA
ATOM     16  C   UNL     1       4.379   0.775  -1.112  0.00  0.00    +0.000 A 
ATOM     17  C   UNL     1       3.036   0.844  -1.397  0.00  0.00    +0.000 A 
ENDBRANCH   5  11
BRANCH   1  19
ATOM     18  C   UNL     1      -4.461   1.892  -1.315  0.00  0.00    +0.000 C 
ATOM     19  C   UNL     1      -4.127   0.414  -1.391  0.00  0.00    +0.000 C 
ENDBRANCH   1  19
BRANCH   8  20
ATOM     20  C   UNL     1      -1.873  -0.726   2.862  0.00  0.00    +0.000 C 
ATOM     21  C   UNL     1      -1.821   0.496   3.745  0.00  0.00    +0.000 C 
ENDBRANCH   8  20
TORSDOF 3
