REMARK  Name = 
REMARK  3 active torsions:
REMARK  status: ('A' for Active; 'I' for Inactive)
REMARK    1  A    between atoms: C_2  and  C_14
REMARK    2  A    between atoms: N_3  and  C_4
REMARK    3  A    between atoms: C_19  and  N_20
REMARK                            x       y       z     vdW  Elec       q    Type
REMARK                         _______ _______ _______ _____ _____    ______ ____
ROOT
ATOM      1  O   UNL     1      -0.139   1.521  -0.571  0.00  0.00    +0.000 OA
ATOM      2  C   UNL     1       0.660   0.633  -0.033  0.00  0.00    +0.000 C 
ATOM      3  N   UNL     1       0.041  -0.537   0.392  0.00  0.00    +0.000 NA
ENDROOT
BRANCH   3   4
ATOM      4  C   UNL     1      -1.308  -0.926   0.335  0.00  0.00    +0.000 C 
ATOM      5  C   UNL     1      -1.895  -1.094  -1.021  0.00  0.00    +0.000 C 
ATOM      6  C   UNL     1      -2.451   0.238  -1.467  0.00  0.00    +0.000 C 
ATOM      7  C   UNL     1      -3.438   0.760  -0.452  0.00  0.00    +0.000 C 
ATOM      8  C   UNL     1      -4.627  -0.184  -0.336  0.00  0.00    +0.000 C 
ATOM      9  C   UNL     1      -4.063  -1.518   0.148  0.00  0.00    +0.000 C 
ATOM     10  C   UNL     1      -3.099  -2.009  -0.884  0.00  0.00    +0.000 C 
ATOM     11  C   UNL     1      -3.375  -1.338   1.511  0.00  0.00    +0.000 C 
ATOM     12  C   UNL     1      -2.200  -0.386   1.396  0.00  0.00    +0.000 C 
ATOM     13  C   UNL     1      -2.763   0.945   0.886  0.00  0.00    +0.000 C 
ENDBRANCH   3   4
BRANCH   2  14
ATOM     14  C   UNL     1       2.037   1.051   0.026  0.00  0.00    +0.000 A 
ATOM     15  C   UNL     1       2.359   2.426   0.130  0.00  0.00    +0.000 A 
ATOM     16  C   UNL     1       3.669   2.841   0.242  0.00  0.00    +0.000 A 
ATOM     17  C   UNL     1       4.687   1.923   0.254  0.00  0.00    +0.000 A 
ATOM     18  C   UNL     1       4.396   0.570   0.151  0.00  0.00    +0.000 A 
ATOM     19  C   UNL     1       3.067   0.161   0.038  0.00  0.00    +0.000 A 
BRANCH  19  20
ATOM     20  N   UNL     1       2.818  -1.227  -0.099  0.00  0.00    +0.000 N 
ATOM     21  O   UNL     1       1.937  -1.749  -0.752  0.00  0.00    +0.000 OA
ATOM     22  O   UNL     1       3.687  -2.100   0.564  0.00  0.00    +0.000 OA
ENDBRANCH  19  20
ENDBRANCH   2  14
TORSDOF 3
