REMARK  Name = 
REMARK  4 active torsions:
REMARK  status: ('A' for Active; 'I' for Inactive)
REMARK    1  A    between atoms: C_2  and  C_3
REMARK    2  A    between atoms: C_3  and  C_12
REMARK    3  A    between atoms: N_4  and  N_5
REMARK    4  A    between atoms: C_6  and  C_8
REMARK                            x       y       z     vdW  Elec       q    Type
REMARK                         _______ _______ _______ _____ _____    ______ ____
ROOT
ATOM      1  C   UNL     1      -0.657  -0.269  -0.415  0.00  0.00    +0.000 C 
ATOM      2  N   UNL     1       0.262   0.639  -0.602  0.00  0.00    +0.000 NA
ENDROOT
BRANCH   1   3
ATOM      3  C   UNL     1      -2.013   0.222  -0.209  0.00  0.00    +0.000 A 
ATOM      4  C   UNL     1      -2.245   1.592  -0.123  0.00  0.00    +0.000 A 
ATOM      5  C   UNL     1      -3.471   2.111   0.098  0.00  0.00    +0.000 A 
ATOM      6  C   UNL     1      -4.558   1.285   0.250  0.00  0.00    +0.000 A 
ATOM      7  C   UNL     1      -4.370  -0.067   0.171  0.00  0.00    +0.000 A 
ATOM      8  C   UNL     1      -3.091  -0.586  -0.059  0.00  0.00    +0.000 A 
ATOM      9 CL   UNL     1      -2.906  -2.337  -0.195  0.00  0.00    +0.000 Cl
ENDBRANCH   1   3
BRANCH   2  10
ATOM     10  N   UNL     1       1.584   0.225  -0.752  0.00  0.00    +0.000 NA
ATOM     11  C   UNL     1       2.550   0.431   0.269  0.00  0.00    +0.000 C 
ATOM     12  O   UNL     1       2.201   1.000   1.333  0.00  0.00    +0.000 OA
BRANCH  11  13
ATOM     13  C   UNL     1       3.977  -0.008   0.125  0.00  0.00    +0.000 C 
ATOM     14  C   UNL     1       4.362  -0.931   1.244  0.00  0.00    +0.000 C 
ATOM     15  C   UNL     1       4.840   1.254   0.213  0.00  0.00    +0.000 C 
ATOM     16  O   UNL     1       4.093  -0.603  -1.132  0.00  0.00    +0.000 OA
ENDBRANCH  11  13
ENDBRANCH   2  10
BRANCH   1  18
ATOM     17  C   UNL     1      -0.337  -2.310   1.003  0.00  0.00    +0.000 C 
ATOM     18  C   UNL     1      -0.220  -1.649  -0.378  0.00  0.00    +0.000 C 
ENDBRANCH   1  18
TORSDOF 4
