REMARK  Name = 
REMARK  4 active torsions:
REMARK  status: ('A' for Active; 'I' for Inactive)
REMARK    1  A    between atoms: C_2  and  N_5
REMARK    2  A    between atoms: N_5  and  C_6
REMARK    3  A    between atoms: C_9  and  S_10
REMARK    4  A    between atoms: S_10  and  C_11
REMARK                            x       y       z     vdW  Elec       q    Type
REMARK                         _______ _______ _______ _____ _____    ______ ____
ROOT
ATOM      1  C   UNL     1      -2.428  -1.124   0.431  0.00  0.00    +0.000 A 
ATOM      2  C   UNL     1      -1.486  -0.125   0.303  0.00  0.00    +0.000 A 
ATOM      3  C   UNL     1      -0.129  -0.364   0.359  0.00  0.00    +0.000 A 
ATOM      4  C   UNL     1       0.317  -1.668   0.553  0.00  0.00    +0.000 A 
ATOM      5  C   UNL     1      -0.592  -2.666   0.681  0.00  0.00    +0.000 A 
ATOM      6  C   UNL     1      -1.951  -2.405   0.622  0.00  0.00    +0.000 A 
ENDROOT
BRANCH   1   7
ATOM      7  N   UNL     1      -3.818  -0.935   0.382  0.00  0.00    +0.000 NA
BRANCH   7   9
ATOM      8  C   UNL     1      -5.953   0.207   0.184  0.00  0.00    +0.000 C 
ATOM      9  C   UNL     1      -4.447   0.357   0.187  0.00  0.00    +0.000 C 
ATOM     10  C   UNL     1      -4.109   1.304   1.334  0.00  0.00    +0.000 C 
ATOM     11  C   UNL     1      -4.037   0.974  -1.135  0.00  0.00    +0.000 C 
ENDBRANCH   7   9
ENDBRANCH   1   7
BRANCH   4  12
ATOM     12  S   UNL     1       2.086  -1.926   0.618  0.00  0.00    +0.000 S 
BRANCH  12  13
ATOM     13  C   UNL     1       2.968  -0.396   0.413  0.00  0.00    +0.000 A 
ATOM     14  C   UNL     1       4.336  -0.277   0.418  0.00  0.00    +0.000 A 
ATOM     15  C   UNL     1       4.993   0.912   0.258  0.00  0.00    +0.000 A 
ATOM     16  C   UNL     1       4.260   2.050   0.084  0.00  0.00    +0.000 A 
ATOM     17  N   UNL     1       4.849   3.337  -0.091  0.00  0.00    +0.000 NA
ATOM     18  C   UNL     1       2.901   1.985   0.071  0.00  0.00    +0.000 A 
ATOM     19  C   UNL     1       2.240   0.760   0.236  0.00  0.00    +0.000 A 
ENDBRANCH  12  13
ENDBRANCH   4  12
TORSDOF 4
