REMARK  Name = 
REMARK  4 active torsions:
REMARK  status: ('A' for Active; 'I' for Inactive)
REMARK    1  A    between atoms: C_2  and  C_14
REMARK    2  A    between atoms: N_3  and  C_4
REMARK    3  A    between atoms: C_4  and  N_6
REMARK    4  A    between atoms: N_6  and  C_7
REMARK                            x       y       z     vdW  Elec       q    Type
REMARK                         _______ _______ _______ _____ _____    ______ ____
ROOT
ATOM      1  C   UNL     1      -0.405   0.029  -0.100  0.00  0.00    +0.000 C 
ATOM      2  S   UNL     1      -0.775  -1.303  -0.960  0.00  0.00    +0.000 S 
ENDROOT
BRANCH   1   5
ATOM      3  O   UNL     1       1.638  -1.009  -1.614  0.00  0.00    +0.000 OA
ATOM      4  C   UNL     1       1.937   0.011  -0.960  0.00  0.00    +0.000 C 
ATOM      5  N   UNL     1       0.900   0.581  -0.160  0.00  0.00    +0.000 NA
BRANCH   4   6
ATOM      6  C   UNL     1       3.300   0.600  -1.014  0.00  0.00    +0.000 C 
ATOM      7  C   UNL     1       4.134  -0.247  -1.948  0.00  0.00    +0.000 C 
ATOM      8  C   UNL     1       5.500   0.402  -2.108  0.00  0.00    +0.000 C 
ATOM      9  C   UNL     1       5.913   1.135  -0.843  0.00  0.00    +0.000 C 
ATOM     10  C   UNL     1       5.388   0.396   0.352  0.00  0.00    +0.000 C 
ATOM     11  C   UNL     1       3.891   0.478   0.375  0.00  0.00    +0.000 C 
ENDBRANCH   4   6
ENDBRANCH   1   5
BRANCH   1  12
ATOM     12  N   UNL     1      -1.409   0.619   0.704  0.00  0.00    +0.000 NA
BRANCH  12  13
ATOM     13  C   UNL     1      -2.728   0.111   0.801  0.00  0.00    +0.000 A 
ATOM     14  C   UNL     1      -3.158  -1.004   0.125  0.00  0.00    +0.000 A 
ATOM     15  C   UNL     1      -4.453  -1.445   0.264  0.00  0.00    +0.000 A 
ATOM     16  C   UNL     1      -5.338  -0.769   1.088  0.00  0.00    +0.000 A 
ATOM     17  C   UNL     1      -4.918   0.357   1.777  0.00  0.00    +0.000 A 
ATOM     18  O   UNL     1      -5.799   1.042   2.607  0.00  0.00    +0.000 OA
ATOM     19  C   UNL     1      -3.618   0.768   1.614  0.00  0.00    +0.000 A 
ENDBRANCH  12  13
ENDBRANCH   1  12
TORSDOF 4
