REMARK  Name = 
REMARK  4 active torsions:
REMARK  status: ('A' for Active; 'I' for Inactive)
REMARK    1  A    between atoms: O_2  and  C_3
REMARK    2  A    between atoms: C_6  and  C_7
REMARK    3  A    between atoms: C_12  and  C_13
REMARK    4  A    between atoms: C_16  and  O_17
REMARK                            x       y       z     vdW  Elec       q    Type
REMARK                         _______ _______ _______ _____ _____    ______ ____
ROOT
ATOM      1  C   UNL     1      -0.621  -1.750  -0.451  0.00  0.00    +0.000 A 
ATOM      2  N   UNL     1      -0.927  -3.041  -0.690  0.00  0.00    +0.000 NA
ATOM      3  C   UNL     1       0.231  -3.710  -0.853  0.00  0.00    +0.000 A 
ATOM      4  N   UNL     1       0.351  -5.113  -1.126  0.00  0.00    +0.000 NA
ATOM      5  O   UNL     1       1.234  -2.884  -0.724  0.00  0.00    +0.000 OA
ATOM      6  C   UNL     1       0.757  -1.680  -0.479  0.00  0.00    +0.000 A 
ENDROOT
BRANCH   1  10
ATOM      7  C   UNL     1      -3.324   1.498   0.276  0.00  0.00    +0.000 A 
ATOM      8  C   UNL     1      -2.428   1.092   1.236  0.00  0.00    +0.000 A 
ATOM      9  C   UNL     1      -1.550   0.034   0.994  0.00  0.00    +0.000 A 
ATOM     10  C   UNL     1      -1.552  -0.637  -0.210  0.00  0.00    +0.000 A 
ATOM     11  C   UNL     1      -2.451  -0.231  -1.174  0.00  0.00    +0.000 A 
ATOM     12  C   UNL     1      -3.324   0.826  -0.925  0.00  0.00    +0.000 A 
BRANCH   7  14
ATOM     13  C   UNL     1      -5.130   3.045  -0.351  0.00  0.00    +0.000 C 
ATOM     14  O   UNL     1      -4.180   2.555   0.558  0.00  0.00    +0.000 OA
ENDBRANCH   7  14
ENDBRANCH   1  10
BRANCH   6  15
ATOM     15  C   UNL     1       1.565  -0.480  -0.273  0.00  0.00    +0.000 A 
ATOM     16  C   UNL     1       2.367  -0.085  -1.316  0.00  0.00    +0.000 A 
ATOM     17  C   UNL     1       3.174   1.020  -1.259  0.00  0.00    +0.000 A 
ATOM     18  C   UNL     1       3.158   1.748  -0.085  0.00  0.00    +0.000 A 
ATOM     19  C   UNL     1       2.359   1.363   0.969  0.00  0.00    +0.000 A 
ATOM     20  C   UNL     1       1.552   0.248   0.897  0.00  0.00    +0.000 A 
BRANCH  18  21
ATOM     21  O   UNL     1       3.958   2.894   0.051  0.00  0.00    +0.000 OA
ATOM     22  C   UNL     1       4.778   3.287  -1.034  0.00  0.00    +0.000 C 
ENDBRANCH  18  21
ENDBRANCH   6  15
TORSDOF 4
