REMARK  Name = 
REMARK  3 active torsions:
REMARK  status: ('A' for Active; 'I' for Inactive)
REMARK    1  A    between atoms: C_2  and  O_3
REMARK    2  A    between atoms: O_3  and  C_4
REMARK    3  A    between atoms: C_9  and  C_10
REMARK                            x       y       z     vdW  Elec       q    Type
REMARK                         _______ _______ _______ _____ _____    ______ ____
ROOT
ATOM      1  C   UNL     1      -3.741  -0.632   1.026  0.00  0.00    +0.000 A 
ATOM      2  C   UNL     1      -2.976  -1.342   1.923  0.00  0.00    +0.000 A 
ATOM      3  C   UNL     1      -1.625  -1.389   1.921  0.00  0.00    +0.000 A 
ATOM      4  C   UNL     1      -0.899  -0.676   0.950  0.00  0.00    +0.000 A 
ATOM      5  N   UNL     1       0.406  -0.643   0.845  0.00  0.00    +0.000 NA
ATOM      6  C   UNL     1       0.965   0.066  -0.114  0.00  0.00    +0.000 A 
ATOM      7  S   UNL     1      -0.384   0.726  -0.918  0.00  0.00    +0.000 S 
ATOM      8  C   UNL     1      -1.630   0.036   0.047  0.00  0.00    +0.000 A 
ATOM      9  C   UNL     1      -3.029   0.074   0.064  0.00  0.00    +0.000 A 
ENDROOT
BRANCH   6  10
ATOM     10  C   UNL     1       2.404   0.189  -0.342  0.00  0.00    +0.000 A 
ATOM     11  C   UNL     1       2.851   0.981  -1.405  0.00  0.00    +0.000 A 
ATOM     12  C   UNL     1       4.200   1.111  -1.639  0.00  0.00    +0.000 A 
ATOM     13  C   UNL     1       5.158   0.486  -0.862  0.00  0.00    +0.000 A 
ATOM     14  N   UNL     1       6.557   0.623  -1.108  0.00  0.00    +0.000 NA
ATOM     15  C   UNL     1       4.690  -0.290   0.179  0.00  0.00    +0.000 A 
ATOM     16  C   UNL     1       3.341  -0.425   0.421  0.00  0.00    +0.000 A 
ENDBRANCH   6  10
BRANCH   1  17
ATOM     17  O   UNL     1      -5.107  -0.619   1.072  0.00  0.00    +0.000 OA
BRANCH  17  19
ATOM     18  C   UNL     1      -5.371   1.584   0.261  0.00  0.00    +0.000 C 
ATOM     19  C   UNL     1      -5.811   0.141   0.107  0.00  0.00    +0.000 C 
ENDBRANCH  17  19
ENDBRANCH   1  17
TORSDOF 3
