REMARK  Name = 
REMARK  4 active torsions:
REMARK  status: ('A' for Active; 'I' for Inactive)
REMARK    1  A    between atoms: N_4  and  C_5
REMARK    2  A    between atoms: C_7  and  C_8
REMARK    3  A    between atoms: C_8  and  C_9
REMARK    4  A    between atoms: C_17  and  C_18
REMARK                            x       y       z     vdW  Elec       q    Type
REMARK                         _______ _______ _______ _____ _____    ______ ____
ROOT
ATOM      1  C   UNL     1       2.107   0.368  -0.167  0.00  0.00    +0.000 A 
ATOM      2  S   UNL     1       1.245   1.735  -0.848  0.00  0.00    +0.000 S 
ATOM      3  C   UNL     1      -0.349   1.209  -0.628  0.00  0.00    +0.000 A 
ATOM      4  C   UNL     1      -0.187  -0.005  -0.037  0.00  0.00    +0.000 A 
ATOM      5  C   UNL     1      -1.446  -0.814   0.326  0.00  0.00    +0.000 C 
ATOM      6  C   UNL     1       1.084  -0.439   0.201  0.00  0.00    +0.000 A 
ENDROOT
BRANCH   1  10
ATOM      7  C   UNL     1       5.907   0.753  -0.270  0.00  0.00    +0.000 C 
ATOM      8  C   UNL     1       4.651  -0.039   0.086  0.00  0.00    +0.000 C 
ATOM      9  O   UNL     1       4.770  -1.139   0.621  0.00  0.00    +0.000 OA
ATOM     10  N   UNL     1       3.462   0.464  -0.184  0.00  0.00    +0.000 NA
ENDBRANCH   1  10
BRANCH   6  11
ATOM     11  C   UNL     1       1.284  -1.758   0.844  0.00  0.00    +0.000 C 
ATOM     12  N   UNL     1       0.192  -2.588   1.222  0.00  0.00    +0.000 NA
ATOM     13  O   UNL     1       2.400  -2.184   1.075  0.00  0.00    +0.000 OA
ENDBRANCH   6  11
BRANCH   3  14
ATOM     14  C   UNL     1      -1.613   1.927  -1.004  0.00  0.00    +0.000 C 
BRANCH  14  15
ATOM     15  C   UNL     1      -2.774   1.143  -0.639  0.00  0.00    +0.000 A 
ATOM     16  C   UNL     1      -3.330   1.314   0.611  0.00  0.00    +0.000 A 
ATOM     17  C   UNL     1      -4.447   0.604   0.997  0.00  0.00    +0.000 A 
ATOM     18  C   UNL     1      -5.058  -0.303   0.163  0.00  0.00    +0.000 A 
ATOM     19  C   UNL     1      -4.507  -0.478  -1.089  0.00  0.00    +0.000 A 
ATOM     20  C   UNL     1      -3.391   0.230  -1.477  0.00  0.00    +0.000 A 
ENDBRANCH  14  15
ENDBRANCH   3  14
TORSDOF 4
