REMARK  Name = 
REMARK  3 active torsions:
REMARK  status: ('A' for Active; 'I' for Inactive)
REMARK    1  A    between atoms: C_4  and  N_5
REMARK    2  A    between atoms: N_5  and  N_6
REMARK    3  A    between atoms: C_7  and  C_9
REMARK                            x       y       z     vdW  Elec       q    Type
REMARK                         _______ _______ _______ _____ _____    ______ ____
ROOT
ATOM      1  N   UNL     1      -1.008  -0.637  -0.980  0.00  0.00    +0.000 NA
ENDROOT
BRANCH   1   5
ATOM      2  C   UNL     1      -3.388   3.085   0.903  0.00  0.00    +0.000 C 
ATOM      3  C   UNL     1      -3.549   1.734  -0.026  0.00  0.00    +0.000 C 
ATOM      4  C   UNL     1      -2.071   1.143   0.446  0.00  0.00    +0.000 C 
ATOM      5  C   UNL     1      -2.097  -0.182  -0.213  0.00  0.00    +0.000 C 
ATOM      6  C   UNL     1      -3.172  -0.925  -0.062  0.00  0.00    +0.000 C 
ATOM      7  C   UNL     1      -4.346  -0.529   0.716  0.00  0.00    +0.000 C 
ATOM      8  C   UNL     1      -4.382  -1.401   1.977  0.00  0.00    +0.000 C 
ATOM      9  C   UNL     1      -5.578  -0.833  -0.119  0.00  0.00    +0.000 C 
ATOM     10  C   UNL     1      -4.339   0.904   1.177  0.00  0.00    +0.000 C 
ENDBRANCH   1   5
BRANCH   1  11
ATOM     11  N   UNL     1       0.282  -0.344  -0.533  0.00  0.00    +0.000 NA
ATOM     12  C   UNL     1       1.452  -0.745  -1.232  0.00  0.00    +0.000 C 
ATOM     13  O   UNL     1       1.300  -1.391  -2.297  0.00  0.00    +0.000 OA
BRANCH  12  14
ATOM     14  C   UNL     1       2.769  -0.405  -0.708  0.00  0.00    +0.000 A 
ATOM     15  C   UNL     1       3.929  -0.783  -1.361  0.00  0.00    +0.000 A 
ATOM     16  C   UNL     1       5.179  -0.459  -0.863  0.00  0.00    +0.000 A 
ATOM     17  C   UNL     1       5.335   0.254   0.306  0.00  0.00    +0.000 A 
ATOM     18  F   UNL     1       6.570   0.573   0.795  0.00  0.00    +0.000 F 
ATOM     19  C   UNL     1       4.180   0.633   0.959  0.00  0.00    +0.000 A 
ATOM     20  C   UNL     1       2.935   0.308   0.460  0.00  0.00    +0.000 A 
ENDBRANCH  12  14
ENDBRANCH   1  11
TORSDOF 3
