REMARK  Name = 
REMARK  3 active torsions:
REMARK  status: ('A' for Active; 'I' for Inactive)
REMARK    1  A    between atoms: C_5  and  N_6
REMARK    2  A    between atoms: C_7  and  C_9
REMARK    3  A    between atoms: C_12  and  N_13
REMARK                            x       y       z     vdW  Elec       q    Type
REMARK                         _______ _______ _______ _____ _____    ______ ____
ROOT
ATOM      1  N   UNL     1      -0.677  -0.647  -0.442  0.00  0.00    +0.000 NA
ATOM      2  C   UNL     1      -0.066   0.368   0.308  0.00  0.00    +0.000 C 
ATOM      3  O   UNL     1      -0.749   1.133   1.018  0.00  0.00    +0.000 OA
ENDROOT
BRANCH   1   8
ATOM      4  C   UNL     1      -6.283  -1.489  -0.419  0.00  0.00    +0.000 C 
ATOM      5  C   UNL     1      -4.830  -1.230  -0.392  0.00  0.00    +0.000 A 
ATOM      6  C   UNL     1      -4.265  -0.208   0.369  0.00  0.00    +0.000 A 
ATOM      7  C   UNL     1      -2.910  -0.028   0.345  0.00  0.00    +0.000 A 
ATOM      8  C   UNL     1      -2.095  -0.832  -0.413  0.00  0.00    +0.000 A 
ATOM      9  C   UNL     1      -2.640  -1.847  -1.171  0.00  0.00    +0.000 A 
ATOM     10  C   UNL     1      -1.776  -2.729  -2.000  0.00  0.00    +0.000 C 
ATOM     11  C   UNL     1      -4.003  -2.027  -1.146  0.00  0.00    +0.000 A 
ENDBRANCH   1   8
BRANCH   2  12
ATOM     12  C   UNL     1       1.391   0.586   0.302  0.00  0.00    +0.000 A 
ATOM     13  C   UNL     1       2.319  -0.126  -0.396  0.00  0.00    +0.000 A 
ATOM     14  C   UNL     1       3.595   0.219  -0.276  0.00  0.00    +0.000 A 
ATOM     15  C   UNL     1       3.901   1.270   0.542  0.00  0.00    +0.000 A 
ATOM     16  S   UNL     1       2.355   1.732   1.113  0.00  0.00    +0.000 S 
BRANCH  15  17
ATOM     17  N   UNL     1       5.189   1.818   0.826  0.00  0.00    +0.000 N 
ATOM     18  O   UNL     1       5.272   2.778   1.598  0.00  0.00    +0.000 OA
ATOM     19  O   UNL     1       6.271   1.258   0.232  0.00  0.00    +0.000 OA
ENDBRANCH  15  17
ENDBRANCH   2  12
TORSDOF 3
