REMARK  Name = 
REMARK  3 active torsions:
REMARK  status: ('A' for Active; 'I' for Inactive)
REMARK    1  A    between atoms: C_2  and  C_12
REMARK    2  A    between atoms: N_3  and  N_4
REMARK    3  A    between atoms: C_5  and  C_6
REMARK                            x       y       z     vdW  Elec       q    Type
REMARK                         _______ _______ _______ _____ _____    ______ ____
ROOT
ATOM      1  O   UNL     1       0.455   0.753  -1.090  0.00  0.00    +0.000 OA
ATOM      2  C   UNL     1       0.731  -0.069  -0.184  0.00  0.00    +0.000 C 
ATOM      3  N   UNL     1      -0.378  -0.729   0.430  0.00  0.00    +0.000 NA
ENDROOT
BRANCH   2   4
ATOM      4  C   UNL     1       2.111  -0.343   0.227  0.00  0.00    +0.000 A 
ATOM      5  N   UNL     1       2.548  -1.189   1.172  0.00  0.00    +0.000 NA
ATOM      6  N   UNL     1       3.853  -1.178   1.271  0.00  0.00    +0.000 NA
ATOM      7  C   UNL     1       4.296  -0.293   0.358  0.00  0.00    +0.000 A 
ATOM      8  C   UNL     1       3.225   0.252  -0.318  0.00  0.00    +0.000 A 
ATOM      9  C   UNL     1       3.369   1.264  -1.393  0.00  0.00    +0.000 C 
ATOM     10  C   UNL     1       4.797   1.640  -1.608  0.00  0.00    +0.000 C 
ATOM     11  C   UNL     1       5.734   0.449  -1.428  0.00  0.00    +0.000 C 
ATOM     12  C   UNL     1       5.693   0.106   0.048  0.00  0.00    +0.000 C 
ENDBRANCH   2   4
BRANCH   3  13
ATOM     13  N   UNL     1      -1.708  -0.472   0.042  0.00  0.00    +0.000 NA
ATOM     14  C   UNL     1      -2.626  -0.127   0.852  0.00  0.00    +0.000 C 
BRANCH  14  15
ATOM     15  C   UNL     1      -4.006   0.145   0.491  0.00  0.00    +0.000 A 
ATOM     16  C   UNL     1      -4.856   0.510   1.536  0.00  0.00    +0.000 A 
ATOM     17  C   UNL     1      -6.184   0.793   1.319  0.00  0.00    +0.000 A 
ATOM     18  C   UNL     1      -6.676   0.713   0.051  0.00  0.00    +0.000 A 
ATOM     19  C   UNL     1      -5.858   0.352  -1.014  0.00  0.00    +0.000 A 
ATOM     20  C   UNL     1      -4.521   0.073  -0.762  0.00  0.00    +0.000 A 
ENDBRANCH  14  15
ENDBRANCH   3  13
TORSDOF 3
