REMARK  Name = 
REMARK  4 active torsions:
REMARK  status: ('A' for Active; 'I' for Inactive)
REMARK    1  A    between atoms: C_2  and  C_4
REMARK    2  A    between atoms: C_7  and  N_8
REMARK    3  A    between atoms: N_8  and  N_9
REMARK    4  A    between atoms: C_10  and  C_12
REMARK                            x       y       z     vdW  Elec       q    Type
REMARK                         _______ _______ _______ _____ _____    ______ ____
ROOT
ATOM      1  C   UNL     1       3.630   0.543  -0.071  0.00  0.00    +0.000 A 
ATOM      2  C   UNL     1       2.450   1.246   0.075  0.00  0.00    +0.000 A 
ATOM      3  C   UNL     1       1.240   0.621   0.236  0.00  0.00    +0.000 A 
ATOM      4  C   UNL     1       1.135  -0.749   0.261  0.00  0.00    +0.000 A 
ATOM      5  C   UNL     1       2.304  -1.477   0.117  0.00  0.00    +0.000 A 
ATOM      6  C   UNL     1       3.511  -0.842  -0.044  0.00  0.00    +0.000 A 
ENDROOT
BRANCH   1   8
ATOM      7  C   UNL     1       5.321   1.298  -1.712  0.00  0.00    +0.000 C 
ATOM      8  C   UNL     1       4.960   1.176  -0.249  0.00  0.00    +0.000 C 
ATOM      9  C   UNL     1       5.977   0.253   0.427  0.00  0.00    +0.000 C 
ENDBRANCH   1   8
BRANCH   4  10
ATOM     10  N   UNL     1      -0.124  -1.419   0.425  0.00  0.00    +0.000 NA
BRANCH  10  11
ATOM     11  N   UNL     1      -1.252  -0.581   0.540  0.00  0.00    +0.000 NA
ATOM     12  C   UNL     1      -2.546  -1.035   0.165  0.00  0.00    +0.000 C 
ATOM     13  O   UNL     1      -2.640  -2.199  -0.269  0.00  0.00    +0.000 OA
BRANCH  12  14
ATOM     14  C   UNL     1      -3.744  -0.164   0.282  0.00  0.00    +0.000 A 
ATOM     15  C   UNL     1      -3.799   1.117   0.740  0.00  0.00    +0.000 A 
ATOM     16  C   UNL     1      -4.993   1.716   0.763  0.00  0.00    +0.000 A 
ATOM     17  C   UNL     1      -6.066   0.993   0.322  0.00  0.00    +0.000 A 
ATOM     18  S   UNL     1      -5.364  -0.497  -0.106  0.00  0.00    +0.000 S 
ENDBRANCH  12  14
ENDBRANCH  10  11
ENDBRANCH   4  10
TORSDOF 4
