REMARK  Name = 
REMARK  6 active torsions:
REMARK  status: ('A' for Active; 'I' for Inactive)
REMARK    1  A    between atoms: C_2  and  C_3
REMARK    2  A    between atoms: CA_4  and  C_5
REMARK    3  A    between atoms: C_8  and  C_9
REMARK    4  A    between atoms: C_9  and  O_11
REMARK    5  A    between atoms: O_11  and  C_12
REMARK    6  A    between atoms: C_12  and  C_13
REMARK                            x       y       z     vdW  Elec       q    Type
REMARK                         _______ _______ _______ _____ _____    ______ ____
ROOT
ATOM      1  C   UNL     1       3.233  -0.291  -0.330  0.00  0.00    +0.000 A 
ATOM      2  CA  UNL     1       2.816  -1.603  -0.343  0.00  0.00    +0.000 A 
ATOM      3  N   UNL     1       1.508  -1.576  -0.015  0.00  0.00    +0.000 NA
ATOM      4  C   UNL     1       1.087  -0.327   0.198  0.00  0.00    +0.000 A 
ATOM      5  C   UNL     1       2.161   0.501   0.006  0.00  0.00    +0.000 A 
ATOM      6  C   UNL     1       2.172   1.964   0.132  0.00  0.00    +0.000 C 
ENDROOT
BRANCH   1   8
ATOM      7  C   UNL     1       4.998   1.451  -0.056  0.00  0.00    +0.000 C 
ATOM      8  C   UNL     1       4.617   0.114  -0.630  0.00  0.00    +0.000 C 
ENDBRANCH   1   8
BRANCH   2   9
ATOM      9  C   UNL     1       3.639  -2.792  -0.671  0.00  0.00    +0.000 C 
ATOM     10  O   UNL     1       3.111  -3.943  -0.664  0.00  0.00    +0.000 OA
ENDBRANCH   2   9
BRANCH   4  11
ATOM     11  C   UNL     1      -0.259   0.040   0.612  0.00  0.00    +0.000 C 
ATOM     12  O   UNL     1      -1.137  -0.828   0.854  0.00  0.00    +0.000 OA
BRANCH  11  13
ATOM     13  O   UNL     1      -0.663   1.363   0.765  0.00  0.00    +0.000 OA
BRANCH  13  14
ATOM     14  C   UNL     1      -1.940   1.655   1.178  0.00  0.00    +0.000 C 
BRANCH  14  15
ATOM     15  C   UNL     1      -3.060   1.156   0.392  0.00  0.00    +0.000 A 
ATOM     16  C   UNL     1      -4.331   1.381   0.931  0.00  0.00    +0.000 A 
ATOM     17  C   UNL     1      -5.469   0.947   0.309  0.00  0.00    +0.000 A 
ATOM     18  C   UNL     1      -5.374   0.264  -0.902  0.00  0.00    +0.000 A 
ATOM     19  C   UNL     1      -4.120   0.046  -1.424  0.00  0.00    +0.000 A 
ATOM     20  C   UNL     1      -2.990   0.481  -0.792  0.00  0.00    +0.000 A 
ENDBRANCH  14  15
ENDBRANCH  13  14
ENDBRANCH  11  13
ENDBRANCH   4  11
TORSDOF 6
