REMARK  Name = 
REMARK  2 active torsions:
REMARK  status: ('A' for Active; 'I' for Inactive)
REMARK    1  A    between atoms: C_2  and  N_4
REMARK    2  A    between atoms: C_6  and  C_7
REMARK                            x       y       z     vdW  Elec       q    Type
REMARK                         _______ _______ _______ _____ _____    ______ ____
ROOT
ATOM      1  N   UNL     1      -1.507  -0.174  -0.896  0.00  0.00    +0.000 N 
ATOM      2  C   UNL     1      -0.280  -0.686  -1.183  0.00  0.00    +0.000 A 
ATOM      3  C   UNL     1       0.611  -0.266  -0.220  0.00  0.00    +0.000 A 
ATOM      4  C   UNL     1      -0.123   0.512   0.651  0.00  0.00    +0.000 A 
ATOM      5  N   UNL     1       0.199   1.177   1.759  0.00  0.00    +0.000 NA
ATOM      6  C   UNL     1      -0.729   1.886   2.454  0.00  0.00    +0.000 A 
ATOM      7  N   UNL     1      -1.992   1.936   2.044  0.00  0.00    +0.000 NA
ATOM      8  C   UNL     1      -2.400   1.292   0.934  0.00  0.00    +0.000 A 
ATOM      9  N   UNL     1      -3.752   1.350   0.501  0.00  0.00    +0.000 NA
ATOM     10  C   UNL     1      -1.442   0.567   0.226  0.00  0.00    +0.000 A 
ENDROOT
BRANCH   3  11
ATOM     11  C   UNL     1       2.026  -0.606  -0.182  0.00  0.00    +0.000 A 
ATOM     12  C   UNL     1       2.521  -1.873  -0.395  0.00  0.00    +0.000 A 
ATOM     13  C   UNL     1       3.874  -2.123  -0.344  0.00  0.00    +0.000 A 
ATOM     14  C   UNL     1       4.767  -1.125  -0.080  0.00  0.00    +0.000 A 
ATOM     15  C   UNL     1       4.301   0.153   0.138  0.00  0.00    +0.000 A 
ATOM     16  C   UNL     1       2.945   0.386   0.083  0.00  0.00    +0.000 A 
ENDBRANCH   3  11
BRANCH   1  18
ATOM     17  C   UNL     1      -3.772  -1.114  -0.849  0.00  0.00    +0.000 C 
ATOM     18  C   UNL     1      -2.744  -0.354  -1.637  0.00  0.00    +0.000 C 
ATOM     19  C   UNL     1      -2.502  -0.939  -3.004  0.00  0.00    +0.000 C 
ENDBRANCH   1  18
TORSDOF 2
