REMARK  Name = 
REMARK  4 active torsions:
REMARK  status: ('A' for Active; 'I' for Inactive)
REMARK    1  A    between atoms: C_2  and  C_3
REMARK    2  A    between atoms: C_9  and  N_10
REMARK    3  A    between atoms: C_11  and  C_13
REMARK    4  A    between atoms: C_16  and  N_17
REMARK                            x       y       z     vdW  Elec       q    Type
REMARK                         _______ _______ _______ _____ _____    ______ ____
ROOT
ATOM      1  N   UNL     1      -1.261   0.831  -0.215  0.00  0.00    +0.000 NA
ATOM      2  C   UNL     1      -0.476  -0.255   0.243  0.00  0.00    +0.000 C 
ATOM      3  O   UNL     1      -1.080  -1.222   0.783  0.00  0.00    +0.000 OA
ENDROOT
BRANCH   1  10
ATOM      4  C   UNL     1      -3.446   0.439  -1.142  0.00  0.00    +0.000 A 
ATOM      5  C   UNL     1      -4.846   0.486  -1.078  0.00  0.00    +0.000 A 
ATOM      6  C   UNL     1      -5.465   1.006   0.033  0.00  0.00    +0.000 A 
ATOM      7  C   UNL     1      -4.699   1.471   1.063  0.00  0.00    +0.000 A 
ATOM      8  C   UNL     1      -3.318   1.420   0.991  0.00  0.00    +0.000 A 
ATOM      9  C   UNL     1      -2.552   1.943   2.148  0.00  0.00    +0.000 C 
ATOM     10  C   UNL     1      -2.670   0.904  -0.109  0.00  0.00    +0.000 A 
BRANCH   4  12
ATOM     11  C   UNL     1      -2.309  -1.516  -2.186  0.00  0.00    +0.000 C 
ATOM     12  C   UNL     1      -2.837  -0.124  -2.353  0.00  0.00    +0.000 C 
ENDBRANCH   4  12
ENDBRANCH   1  10
BRANCH   2  13
ATOM     13  C   UNL     1       0.990  -0.280   0.107  0.00  0.00    +0.000 A 
ATOM     14  C   UNL     1       1.687   0.799  -0.391  0.00  0.00    +0.000 A 
ATOM     15  C   UNL     1       3.051   0.820  -0.537  0.00  0.00    +0.000 A 
ATOM     16  C   UNL     1       3.766  -0.300  -0.165  0.00  0.00    +0.000 A 
ATOM     17  C   UNL     1       3.097  -1.413   0.344  0.00  0.00    +0.000 A 
ATOM     18  C   UNL     1       3.870  -2.620   0.745  0.00  0.00    +0.000 C 
ATOM     19  C   UNL     1       1.724  -1.389   0.472  0.00  0.00    +0.000 A 
BRANCH  16  20
ATOM     20  N   UNL     1       5.184  -0.292  -0.308  0.00  0.00    +0.000 N 
ATOM     21  O   UNL     1       5.791   0.795  -0.257  0.00  0.00    +0.000 OA
ATOM     22  O   UNL     1       5.800  -1.504  -0.497  0.00  0.00    +0.000 OA
ENDBRANCH  16  20
ENDBRANCH   2  13
TORSDOF 4
