REMARK  Name = 
REMARK  3 active torsions:
REMARK  status: ('A' for Active; 'I' for Inactive)
REMARK    1  A    between atoms: C_5  and  N_6
REMARK    2  A    between atoms: N_6  and  C_7
REMARK    3  A    between atoms: C_9  and  C_10
REMARK                            x       y       z     vdW  Elec       q    Type
REMARK                         _______ _______ _______ _____ _____    ______ ____
ROOT
ATOM      1  C   UNL     1       0.517  -0.720   0.029  0.00  0.00    +0.000 A 
ATOM      2  C   UNL     1      -0.792  -0.986   0.171  0.00  0.00    +0.000 A 
ATOM      3  C   UNL     1      -1.647   0.023   0.366  0.00  0.00    +0.000 A 
ATOM      4  C   UNL     1      -1.089   1.288   0.411  0.00  0.00    +0.000 A 
ATOM      5  S   UNL     1       0.560   0.997   0.169  0.00  0.00    +0.000 S 
ENDROOT
BRANCH   3   6
ATOM      6  C   UNL     1      -3.154  -0.194   0.499  0.00  0.00    +0.000 C 
ATOM      7  C   UNL     1      -3.404  -0.869   1.823  0.00  0.00    +0.000 C 
ATOM      8  C   UNL     1      -3.702  -0.960  -0.678  0.00  0.00    +0.000 C 
ATOM      9  C   UNL     1      -5.092  -0.373  -0.859  0.00  0.00    +0.000 C 
ATOM     10  C   UNL     1      -5.130   0.799   0.053  0.00  0.00    +0.000 C 
ATOM     11  O   UNL     1      -6.175   1.424   0.401  0.00  0.00    +0.000 OA
ATOM     12  O   UNL     1      -3.797   1.053   0.430  0.00  0.00    +0.000 OA
ENDBRANCH   3   6
BRANCH   1  13
ATOM     13  N   UNL     1       1.668  -1.588  -0.186  0.00  0.00    +0.000 NA
BRANCH  13  18
ATOM     14  C   UNL     1       6.582   1.293  -0.884  0.00  0.00    +0.000 C 
ATOM     15  C   UNL     1       5.310   0.514  -0.673  0.00  0.00    +0.000 A 
ATOM     16  C   UNL     1       4.462   0.230  -1.728  0.00  0.00    +0.000 A 
ATOM     17  C   UNL     1       3.285  -0.467  -1.585  0.00  0.00    +0.000 A 
ATOM     18  C   UNL     1       2.930  -0.900  -0.330  0.00  0.00    +0.000 A 
ATOM     19  C   UNL     1       3.736  -0.636   0.727  0.00  0.00    +0.000 A 
ATOM     20  C   UNL     1       4.932   0.071   0.576  0.00  0.00    +0.000 A 
ENDBRANCH  13  18
ENDBRANCH   1  13
TORSDOF 3
