REMARK  Name = 
REMARK  4 active torsions:
REMARK  status: ('A' for Active; 'I' for Inactive)
REMARK    1  A    between atoms: C_5  and  N_6
REMARK    2  A    between atoms: C_7  and  C_9
REMARK    3  A    between atoms: C_11  and  C_12
REMARK    4  A    between atoms: C_19  and  N_20
REMARK                            x       y       z     vdW  Elec       q    Type
REMARK                         _______ _______ _______ _____ _____    ______ ____
ROOT
ATOM      1  N   UNL     1       0.290  -1.981  -0.283  0.00  0.00    +0.000 NA
ATOM      2  C   UNL     1      -0.860  -1.634   0.440  0.00  0.00    +0.000 C 
ATOM      3  O   UNL     1      -0.884  -0.587   0.989  0.00  0.00    +0.000 OA
ENDROOT
BRANCH   1   8
ATOM      4  C   UNL     1       4.944   1.259  -0.816  0.00  0.00    +0.000 C 
ATOM      5  C   UNL     1       3.695   0.453  -0.640  0.00  0.00    +0.000 A 
ATOM      6  C   UNL     1       3.668  -0.773  -1.266  0.00  0.00    +0.000 A 
ATOM      7  C   UNL     1       2.560  -1.547  -1.140  0.00  0.00    +0.000 A 
ATOM      8  C   UNL     1       1.472  -1.128  -0.403  0.00  0.00    +0.000 A 
ATOM      9  C   UNL     1       1.526   0.095   0.207  0.00  0.00    +0.000 A 
ATOM     10  C   UNL     1       2.628   0.915   0.109  0.00  0.00    +0.000 A 
BRANCH  10  11
ATOM     11  N   UNL     1       2.712   2.188   0.731  0.00  0.00    +0.000 N 
ATOM     12  O   UNL     1       3.824   2.625   1.128  0.00  0.00    +0.000 OA
ATOM     13  O   UNL     1       1.598   2.968   0.915  0.00  0.00    +0.000 OA
ENDBRANCH  10  11
ENDBRANCH   1   8
BRANCH   2  14
ATOM     14  C   UNL     1      -1.948  -2.757   0.378  0.00  0.00    +0.000 C 
ATOM     15  C   UNL     1      -3.216  -2.074   1.336  0.00  0.00    +0.000 C 
ATOM     16  C   UNL     1      -3.349  -2.137  -0.372  0.00  0.00    +0.000 C 
BRANCH  16  17
ATOM     17  C   UNL     1      -3.106  -0.664  -0.791  0.00  0.00    +0.000 A 
ATOM     18  C   UNL     1      -4.149   0.128  -0.386  0.00  0.00    +0.000 A 
ATOM     19  C   UNL     1      -4.161   1.517  -0.652  0.00  0.00    +0.000 A 
ATOM     20  C   UNL     1      -3.072   2.010  -1.335  0.00  0.00    +0.000 A 
ATOM     21  C   UNL     1      -2.033   1.219  -1.738  0.00  0.00    +0.000 A 
ATOM     22  C   UNL     1      -2.139  -0.095  -1.423  0.00  0.00    +0.000 A 
ENDBRANCH  16  17
ENDBRANCH   2  14
TORSDOF 4
