REMARK  Name = 
REMARK  7 active torsions:
REMARK  status: ('A' for Active; 'I' for Inactive)
REMARK    1  A    between atoms: C_2  and  C_3
REMARK    2  A    between atoms: C_3  and  C_4
REMARK    3  A    between atoms: N_6  and  C_7
REMARK    4  A    between atoms: C_7  and  N_9
REMARK    5  A    between atoms: N_9  and  C_10
REMARK    6  A    between atoms: C_13  and  C_14
REMARK    7  A    between atoms: C_14  and  O_16
REMARK                            x       y       z     vdW  Elec       q    Type
REMARK                         _______ _______ _______ _____ _____    ______ ____
ROOT
ATOM      1  C   UNL     1      -0.315   0.009   0.124  0.00  0.00    +0.000 A 
ATOM      2  C   UNL     1      -1.170   0.086  -0.963  0.00  0.00    +0.000 A 
ATOM      3  C   UNL     1      -2.543   0.120  -0.835  0.00  0.00    +0.000 A 
ATOM      4  C   UNL     1      -3.118   0.079   0.415  0.00  0.00    +0.000 A 
ATOM      5  C   UNL     1      -2.266   0.003   1.500  0.00  0.00    +0.000 A 
ATOM      6  C   UNL     1      -0.894  -0.032   1.377  0.00  0.00    +0.000 A 
ENDROOT
BRANCH   4   7
ATOM      7  C   UNL     1      -4.561   0.113   0.601  0.00  0.00    +0.000 C 
ATOM      8  O   UNL     1      -5.099   0.076   1.711  0.00  0.00    +0.000 OA
BRANCH   7   9
ATOM      9  O   UNL     1      -5.362   0.189  -0.526  0.00  0.00    +0.000 OA
ATOM     10  C   UNL     1      -6.767   0.223  -0.364  0.00  0.00    +0.000 C 
ENDBRANCH   7   9
ENDBRANCH   4   7
BRANCH   1  11
ATOM     11  N   UNL     1       1.074  -0.021  -0.092  0.00  0.00    +0.000 NA
BRANCH  11  12
ATOM     12  C   UNL     1       1.980  -0.099   0.993  0.00  0.00    +0.000 C 
ATOM     13  S   UNL     1       1.397  -0.154   2.521  0.00  0.00    +0.000 S 
BRANCH  12  16
ATOM     14  C   UNL     1       4.032  -0.092  -0.438  0.00  0.00    +0.000 C 
ATOM     15  O   UNL     1       3.332  -0.022  -1.478  0.00  0.00    +0.000 OA
ATOM     16  N   UNL     1       3.394  -0.132   0.808  0.00  0.00    +0.000 NA
BRANCH  14  17
ATOM     17  C   UNL     1       5.523  -0.129  -0.593  0.00  0.00    +0.000 C 
BRANCH  17  19
ATOM     18  C   UNL     1       5.442   1.187  -2.728  0.00  0.00    +0.000 C 
ATOM     19  C   UNL     1       5.923  -0.073  -2.032  0.00  0.00    +0.000 C 
ENDBRANCH  17  19
ENDBRANCH  14  17
ENDBRANCH  12  16
ENDBRANCH  11  12
ENDBRANCH   1  11
TORSDOF 7
