REMARK  Name = 
REMARK  1 active torsions:
REMARK  status: ('A' for Active; 'I' for Inactive)
REMARK    1  A    between atoms: C_7  and  C_8
REMARK                            x       y       z     vdW  Elec       q    Type
REMARK                         _______ _______ _______ _____ _____    ______ ____
ROOT
ATOM      1  O   UNL     1      -0.366  -1.003  -2.719  0.00  0.00    +0.000 OA
ATOM      2  C   UNL     1       0.726  -0.661  -1.894  0.00  0.00    +0.000 A 
ATOM      3  C   UNL     1       1.964  -0.548  -2.487  0.00  0.00    +0.000 A 
ATOM      4  C   UNL     1       3.047  -0.216  -1.706  0.00  0.00    +0.000 A 
ATOM      5  C   UNL     1       2.882   0.002  -0.330  0.00  0.00    +0.000 A 
ATOM      6  C   UNL     1       1.649  -0.110   0.265  0.00  0.00    +0.000 A 
ATOM      7  C   UNL     1       0.571  -0.446  -0.544  0.00  0.00    +0.000 A 
ATOM      8  C   UNL     1       1.471   0.121   1.735  0.00  0.00    +0.000 C 
ATOM      9  C   UNL     1       2.631   0.823   2.335  0.00  0.00    +0.000 C 
ATOM     10  C   UNL     1       3.909   0.093   1.950  0.00  0.00    +0.000 C 
ATOM     11  C   UNL     1       4.098   0.365   0.480  0.00  0.00    +0.000 C 
ENDROOT
BRANCH   7  12
ATOM     12  C   UNL     1      -0.726  -0.566   0.069  0.00  0.00    +0.000 A 
ATOM     13  C   UNL     1      -1.116  -1.793   0.563  0.00  0.00    +0.000 A 
ATOM     14  O   UNL     1      -0.287  -2.921   0.483  0.00  0.00    +0.000 OA
ATOM     15  C   UNL     1      -2.365  -1.861   1.141  0.00  0.00    +0.000 A 
ATOM     16  C   UNL     1      -3.191  -0.739   1.222  0.00  0.00    +0.000 A 
ATOM     17  C   UNL     1      -2.788   0.483   0.724  0.00  0.00    +0.000 A 
ATOM     18  C   UNL     1      -1.536   0.549   0.144  0.00  0.00    +0.000 A 
ATOM     19  C   UNL     1      -1.139   1.886  -0.381  0.00  0.00    +0.000 C 
ATOM     20  C   UNL     1      -2.236   2.510  -1.202  0.00  0.00    +0.000 C 
ATOM     21  C   UNL     1      -3.592   2.310  -0.620  0.00  0.00    +0.000 C 
ATOM     22  C   UNL     1      -3.605   1.722   0.769  0.00  0.00    +0.000 C 
ENDBRANCH   7  12
TORSDOF 1
