REMARK  Name = 
REMARK  1 active torsions:
REMARK  status: ('A' for Active; 'I' for Inactive)
REMARK    1  A    between atoms: C_2  and  C_5
REMARK                            x       y       z     vdW  Elec       q    Type
REMARK                         _______ _______ _______ _____ _____    ______ ____
ROOT
ATOM      1  C   UNL     1       2.732  -0.479  -0.275  0.00  0.00    +0.000 C 
ATOM      2  C   UNL     1       2.283  -1.559   0.611  0.00  0.00    +0.000 C 
ATOM      3  C   UNL     1       0.922  -1.453   1.172  0.00  0.00    +0.000 C 
ATOM      4  C   UNL     1      -0.066  -0.712   0.360  0.00  0.00    +0.000 C 
ATOM      5  C   UNL     1       0.531   0.636  -0.054  0.00  0.00    +0.000 C 
ATOM      6  C   UNL     1       1.698   0.326  -0.947  0.00  0.00    +0.000 C 
ATOM      7  N   UNL     1      -0.484  -1.374  -0.844  0.00  0.00    +0.000 NA
ATOM      8  C   UNL     1      -1.520  -0.783  -1.615  0.00  0.00    +0.000 C 
ATOM      9  O   UNL     1      -1.638  -0.947  -2.851  0.00  0.00    +0.000 OA
ATOM     10  C   UNL     1      -2.499   0.063  -0.905  0.00  0.00    +0.000 A 
ATOM     11  C   UNL     1      -3.524   0.664  -1.587  0.00  0.00    +0.000 A 
ATOM     12  C   UNL     1      -4.432   1.451  -0.916  0.00  0.00    +0.000 A 
ATOM     13  C   UNL     1      -4.276   1.612   0.442  0.00  0.00    +0.000 A 
ATOM     14  C   UNL     1      -3.243   1.005   1.123  0.00  0.00    +0.000 A 
ATOM     15  C   UNL     1      -2.330   0.214   0.455  0.00  0.00    +0.000 A 
ATOM     16  N   UNL     1      -1.253  -0.422   1.140  0.00  0.00    +0.000 NA
ENDROOT
BRANCH   1  18
ATOM     17  C   UNL     1       3.734   0.921   1.506  0.00  0.00    +0.000 C 
ATOM     18  C   UNL     1       3.951   0.266   0.165  0.00  0.00    +0.000 C 
ATOM     19  C   UNL     1       5.106  -0.734   0.222  0.00  0.00    +0.000 C 
ATOM     20  C   UNL     1       4.307   1.306  -0.876  0.00  0.00    +0.000 C 
ENDBRANCH   1  18
TORSDOF 1
