REMARK  Name = 
REMARK  5 active torsions:
REMARK  status: ('A' for Active; 'I' for Inactive)
REMARK    1  A    between atoms: C_2  and  O_12
REMARK    2  A    between atoms: N_3  and  C_4
REMARK    3  A    between atoms: C_9  and  C_10
REMARK    4  A    between atoms: O_12  and  C_13
REMARK    5  A    between atoms: C_13  and  C_14
REMARK                            x       y       z     vdW  Elec       q    Type
REMARK                         _______ _______ _______ _____ _____    ______ ____
ROOT
ATOM      1  O   UNL     1      -0.873   0.613   0.355  0.00  0.00    +0.000 OA
ATOM      2  C   UNL     1      -0.248  -0.188  -0.332  0.00  0.00    +0.000 C 
ATOM      3  N   UNL     1      -0.933  -1.104  -1.041  0.00  0.00    +0.000 NA
ENDROOT
BRANCH   3   4
ATOM      4  C   UNL     1      -2.454  -1.295  -1.084  0.00  0.00    +0.000 C 
ATOM      5  C   UNL     1      -2.611  -1.943   0.391  0.00  0.00    +0.000 C 
ATOM      6  C   UNL     1      -4.142  -1.944   0.522  0.00  0.00    +0.000 C 
ATOM      7  C   UNL     1      -4.905  -1.331  -0.533  0.00  0.00    +0.000 C 
ATOM      8  C   UNL     1      -4.519  -0.144  -1.271  0.00  0.00    +0.000 C 
ATOM      9  C   UNL     1      -2.981   0.280  -0.809  0.00  0.00    +0.000 C 
BRANCH   9  10
ATOM     10  C   UNL     1      -3.415   0.272   0.745  0.00  0.00    +0.000 C 
ATOM     11  O   UNL     1      -3.841   1.556   0.992  0.00  0.00    +0.000 OA
ENDBRANCH   9  10
ENDBRANCH   3   4
BRANCH   2  12
ATOM     12  O   UNL     1       1.131  -0.142  -0.369  0.00  0.00    +0.000 OA
BRANCH  12  13
ATOM     13  C   UNL     1       1.794   0.849   0.399  0.00  0.00    +0.000 C 
BRANCH  13  14
ATOM     14  C   UNL     1       3.245   0.776   0.305  0.00  0.00    +0.000 A 
ATOM     15  C   UNL     1       3.948  -0.204  -0.386  0.00  0.00    +0.000 A 
ATOM     16  C   UNL     1       5.324  -0.234  -0.431  0.00  0.00    +0.000 A 
ATOM     17  C   UNL     1       6.085   0.730   0.220  0.00  0.00    +0.000 A 
ATOM     18  C   UNL     1       5.387   1.727   0.924  0.00  0.00    +0.000 A 
ATOM     19  C   UNL     1       4.009   1.726   0.949  0.00  0.00    +0.000 A 
ENDBRANCH  13  14
ENDBRANCH  12  13
ENDBRANCH   2  12
TORSDOF 5
