REMARK  Name = 
REMARK  3 active torsions:
REMARK  status: ('A' for Active; 'I' for Inactive)
REMARK    1  A    between atoms: O_2  and  C_3
REMARK    2  A    between atoms: C_8  and  C_9
REMARK    3  A    between atoms: C_9  and  C_11
REMARK                            x       y       z     vdW  Elec       q    Type
REMARK                         _______ _______ _______ _____ _____    ______ ____
ROOT
ATOM      1  C   UNL     1       0.647  -0.091   1.245  0.00  0.00    +0.000 A 
ATOM      2  C   UNL     1       1.311   0.203   2.437  0.00  0.00    +0.000 A 
ATOM      3  N   UNL     1       0.785   0.729   3.670  0.00  0.00    +0.000 NA
ATOM      4  S   UNL     1       2.929  -0.204   2.120  0.00  0.00    +0.000 S 
ATOM      5  C   UNL     1       2.762  -0.734   0.516  0.00  0.00    +0.000 A 
ATOM      6  C   UNL     1       1.421  -0.575   0.263  0.00  0.00    +0.000 A 
ATOM      7  C   UNL     1       0.903  -0.922  -1.100  0.00  0.00    +0.000 C 
ATOM      8  C   UNL     1       1.598  -0.068  -2.121  0.00  0.00    +0.000 C 
ATOM      9  C   UNL     1       2.936  -0.637  -2.533  0.00  0.00    +0.000 C 
ATOM     10  C   UNL     1       4.031  -0.316  -1.541  0.00  0.00    +0.000 C 
ATOM     11  C   UNL     1       3.893  -1.236  -0.326  0.00  0.00    +0.000 C 
ENDROOT
BRANCH   1  12
ATOM     12  C   UNL     1      -0.783   0.170   1.148  0.00  0.00    +0.000 C 
ATOM     13  O   UNL     1      -1.358   0.736   2.150  0.00  0.00    +0.000 OA
BRANCH  12  19
ATOM     14  C   UNL     1      -2.520   0.853  -0.395  0.00  0.00    +0.000 A 
ATOM     15  C   UNL     1      -3.401   0.597  -1.416  0.00  0.00    +0.000 A 
ATOM     16  C   UNL     1      -3.439  -0.625  -2.031  0.00  0.00    +0.000 A 
ATOM     17  C   UNL     1      -2.563  -1.586  -1.591  0.00  0.00    +0.000 A 
ATOM     18  C   UNL     1      -1.667  -1.363  -0.571  0.00  0.00    +0.000 A 
ATOM     19  C   UNL     1      -1.632  -0.140   0.042  0.00  0.00    +0.000 A 
BRANCH  14  21
ATOM     20  C   UNL     1      -3.368   3.116  -0.192  0.00  0.00    +0.000 C 
ATOM     21  O   UNL     1      -2.487   2.094   0.225  0.00  0.00    +0.000 OA
ENDBRANCH  14  21
ENDBRANCH  12  19
ENDBRANCH   1  12
TORSDOF 3
