REMARK  Name = 
REMARK  3 active torsions:
REMARK  status: ('A' for Active; 'I' for Inactive)
REMARK    1  A    between atoms: C_2  and  N_3
REMARK    2  A    between atoms: C_6  and  C_7
REMARK    3  A    between atoms: C_13  and  O_14
REMARK                            x       y       z     vdW  Elec       q    Type
REMARK                         _______ _______ _______ _____ _____    ______ ____
ROOT
ATOM      1  C   UNL     1       0.104  -1.060  -0.131  0.00  0.00    +0.000 A 
ATOM      2  C   UNL     1       0.348  -2.420  -0.183  0.00  0.00    +0.000 A 
ATOM      3  N   UNL     1      -0.821  -3.080  -0.251  0.00  0.00    +0.000 NA
ATOM      4  C   UNL     1      -1.844  -2.205  -0.246  0.00  0.00    +0.000 A 
ATOM      5  C   UNL     1      -3.197  -2.373  -0.298  0.00  0.00    +0.000 A 
ATOM      6  C   UNL     1      -4.044  -1.279  -0.277  0.00  0.00    +0.000 A 
ATOM      7  C   UNL     1      -3.496  -0.002  -0.202  0.00  0.00    +0.000 A 
ATOM      8  C   UNL     1      -2.126   0.151  -0.150  0.00  0.00    +0.000 A 
ATOM      9  C   UNL     1      -1.269  -0.957  -0.171  0.00  0.00    +0.000 A 
ENDROOT
BRANCH   1  13
ATOM     10  N   UNL     1       4.642   0.750   0.099  0.00  0.00    +0.000 NA
ATOM     11  C   UNL     1       3.202   0.856   0.056  0.00  0.00    +0.000 A 
ATOM     12  N   UNL     1       2.375  -0.167  -0.017  0.00  0.00    +0.000 NA
ATOM     13  C   UNL     1       1.092   0.049  -0.049  0.00  0.00    +0.000 A 
ATOM     14  C   UNL     1       0.676   1.357  -0.005  0.00  0.00    +0.000 A 
ATOM     15  S   UNL     1       2.158   2.199   0.082  0.00  0.00    +0.000 S 
BRANCH  10  17
ATOM     16  C   UNL     1       5.105   2.781   1.407  0.00  0.00    +0.000 C 
ATOM     17  C   UNL     1       5.417   1.970   0.179  0.00  0.00    +0.000 C 
ENDBRANCH  10  17
ENDBRANCH   1  13
BRANCH   7  18
ATOM     18  O   UNL     1      -4.387   1.057  -0.184  0.00  0.00    +0.000 OA
ATOM     19  C   UNL     1      -3.935   2.374  -0.111  0.00  0.00    +0.000 C 
ENDBRANCH   7  18
TORSDOF 3
