REMARK  Name = 
REMARK  0 active torsions:
REMARK  status: ('A' for Active; 'I' for Inactive)
REMARK                            x       y       z     vdW  Elec       q    Type
REMARK                         _______ _______ _______ _____ _____    ______ ____
ROOT
ATOM      1  C   UNL     1      -2.897  -2.100  -0.332  0.00  0.00    +0.000 C 
ATOM      2  C   UNL     1      -2.667  -0.664  -0.290  0.00  0.00    +0.000 C 
ATOM      3  C   UNL     1      -2.048  -0.043  -1.527  0.00  0.00    +0.000 C 
ATOM      4  C   UNL     1      -0.661  -0.620  -1.615  0.00  0.00    +0.000 C 
ATOM      5  C   UNL     1       0.109  -0.198  -0.383  0.00  0.00    +0.000 C 
ATOM      6  C   UNL     1      -0.530   0.012   0.732  0.00  0.00    +0.000 C 
ATOM      7  C   UNL     1       0.196   0.423   1.952  0.00  0.00    +0.000 C 
ATOM      8  C   UNL     1       1.615   0.587   1.866  0.00  0.00    +0.000 C 
ATOM      9  C   UNL     1       2.276   0.331   0.569  0.00  0.00    +0.000 A 
ATOM     10  C   UNL     1       3.671   0.491   0.497  0.00  0.00    +0.000 A 
ATOM     11  C   UNL     1       4.370   0.275  -0.663  0.00  0.00    +0.000 A 
ATOM     12  O   UNL     1       5.761   0.432  -0.745  0.00  0.00    +0.000 OA
ATOM     13  C   UNL     1       3.634  -0.107  -1.759  0.00  0.00    +0.000 A 
ATOM     14  C   UNL     1       2.241  -0.274  -1.714  0.00  0.00    +0.000 A 
ATOM     15  C   UNL     1       1.568  -0.051  -0.538  0.00  0.00    +0.000 A 
ATOM     16  C   UNL     1      -2.013  -0.120   0.883  0.00  0.00    +0.000 C 
ATOM     17  C   UNL     1      -2.854   0.173   1.853  0.00  0.00    +0.000 C 
ATOM     18  C   UNL     1      -4.221  -0.144   1.440  0.00  0.00    +0.000 C 
ATOM     19  C   UNL     1      -4.100   0.122  -0.204  0.00  0.00    +0.000 C 
ATOM     20  O   UNL     1      -3.450   1.476  -0.022  0.00  0.00    +0.000 OA
ENDROOT
TORSDOF 0
