REMARK  Name = 
REMARK  4 active torsions:
REMARK  status: ('A' for Active; 'I' for Inactive)
REMARK    1  A    between atoms: C_2  and  C_3
REMARK    2  A    between atoms: C_3  and  C_4
REMARK    3  A    between atoms: C_4  and  C_5
REMARK    4  A    between atoms: S_9  and  C_10
REMARK                            x       y       z     vdW  Elec       q    Type
REMARK                         _______ _______ _______ _____ _____    ______ ____
ROOT
ATOM      1  C   UNL     1       2.331  -0.848   0.634  0.00  0.00    +0.000 C 
ATOM      2  C   UNL     1       1.829  -2.379   0.371  0.00  0.00    +0.000 C 
ATOM      3  C   UNL     1       1.133  -2.492  -0.904  0.00  0.00    +0.000 C 
ATOM      4  C   UNL     1      -0.369  -2.340  -0.578  0.00  0.00    +0.000 C 
ATOM      5  S   UNL     1      -0.311  -0.873   0.487  0.00  0.00    +0.000 S 
ATOM      6  C   UNL     1       1.141  -0.077  -0.189  0.00  0.00    +0.000 C 
ENDROOT
BRANCH   5   7
ATOM      7  C   UNL     1      -1.739   0.078   0.131  0.00  0.00    +0.000 A 
ATOM      8  C   UNL     1      -2.883  -0.165   0.855  0.00  0.00    +0.000 A 
ATOM      9  C   UNL     1      -4.016   0.581   0.580  0.00  0.00    +0.000 A 
ATOM     10  O   UNL     1      -5.169   0.343   1.303  0.00  0.00    +0.000 OA
ATOM     11  C   UNL     1      -4.002   1.544  -0.391  0.00  0.00    +0.000 A 
ATOM     12  C   UNL     1      -2.842   1.777  -1.112  0.00  0.00    +0.000 A 
ATOM     13  C   UNL     1      -1.697   1.028  -0.839  0.00  0.00    +0.000 A 
ATOM     14  O   UNL     1      -0.513   1.219  -1.528  0.00  0.00    +0.000 OA
ENDBRANCH   5   7
BRANCH   1  15
ATOM     15  C   UNL     1       3.346  -0.862  -0.674  0.00  0.00    +0.000 C 
BRANCH  15  16
ATOM     16  C   UNL     1       3.925   0.537  -0.589  0.00  0.00    +0.000 C 
BRANCH  16  18
ATOM     17  C   UNL     1       5.183   2.183   0.688  0.00  0.00    +0.000 C 
ATOM     18  C   UNL     1       4.654   0.745   0.736  0.00  0.00    +0.000 C 
ENDBRANCH  16  18
ENDBRANCH  15  16
ENDBRANCH   1  15
TORSDOF 4
