REMARK  Name = 
REMARK  3 active torsions:
REMARK  status: ('A' for Active; 'I' for Inactive)
REMARK    1  A    between atoms: C_2  and  C_4
REMARK    2  A    between atoms: C_7  and  C_8
REMARK    3  A    between atoms: N_9  and  C_10
REMARK                            x       y       z     vdW  Elec       q    Type
REMARK                         _______ _______ _______ _____ _____    ______ ____
ROOT
ATOM      1  C   UNL     1       0.698   0.230   0.906  0.00  0.00    +0.000 C 
ATOM      2  N   UNL     1      -0.192  -0.162   0.070  0.00  0.00    +0.000 NA
ENDROOT
BRANCH   2   3
ATOM      3  C   UNL     1      -1.594  -0.090   0.345  0.00  0.00    +0.000 A 
ATOM      4  C   UNL     1      -2.112   0.199   1.564  0.00  0.00    +0.000 A 
ATOM      5  C   UNL     1      -3.471   0.253   1.760  0.00  0.00    +0.000 A 
ATOM      6  C   UNL     1      -4.323   0.014   0.726  0.00  0.00    +0.000 A 
ATOM      7  N   UNL     1      -5.677  -0.001   0.634  0.00  0.00    +0.000 NA
ATOM      8  C   UNL     1      -6.009  -0.297  -0.632  0.00  0.00    +0.000 A 
ATOM      9  O   UNL     1      -7.173  -0.400  -1.096  0.00  0.00    +0.000 OA
ATOM     10  N   UNL     1      -4.872  -0.466  -1.328  0.00  0.00    +0.000 NA
ATOM     11  C   UNL     1      -3.816  -0.282  -0.519  0.00  0.00    +0.000 A 
ATOM     12  C   UNL     1      -2.453  -0.332  -0.702  0.00  0.00    +0.000 A 
ENDBRANCH   2   3
BRANCH   1  16
ATOM     13  C   UNL     1       4.873  -0.026  -0.007  0.00  0.00    +0.000 A 
ATOM     14  C   UNL     1       3.931  -0.452  -0.917  0.00  0.00    +0.000 A 
ATOM     15  C   UNL     1       2.584  -0.373  -0.630  0.00  0.00    +0.000 A 
ATOM     16  C   UNL     1       2.109   0.128   0.562  0.00  0.00    +0.000 A 
ATOM     17  C   UNL     1       3.054   0.554   1.472  0.00  0.00    +0.000 A 
ATOM     18  C   UNL     1       4.417   0.478   1.190  0.00  0.00    +0.000 A 
BRANCH  13  20
ATOM     19  C   UNL     1       6.583   0.426  -1.709  0.00  0.00    +0.000 C 
ATOM     20  C   UNL     1       6.332  -0.100  -0.292  0.00  0.00    +0.000 C 
ATOM     21  C   UNL     1       7.112   0.698   0.700  0.00  0.00    +0.000 C 
ENDBRANCH  13  20
ENDBRANCH   1  16
TORSDOF 3
