REMARK  Name = 
REMARK  3 active torsions:
REMARK  status: ('A' for Active; 'I' for Inactive)
REMARK    1  A    between atoms: O_2  and  C_3
REMARK    2  A    between atoms: C_5  and  N_6
REMARK    3  A    between atoms: C_13  and  C_14
REMARK                            x       y       z     vdW  Elec       q    Type
REMARK                         _______ _______ _______ _____ _____    ______ ____
ROOT
ATOM      1  C   UNL     1      -1.441   1.850  -0.982  0.00  0.00    +0.000 A 
ATOM      2  C   UNL     1      -2.601   1.233  -0.514  0.00  0.00    +0.000 A 
ATOM      3  C   UNL     1      -2.575   0.041   0.171  0.00  0.00    +0.000 A 
ATOM      4  C   UNL     1      -1.351  -0.554   0.395  0.00  0.00    +0.000 A 
ATOM      5  N   UNL     1      -1.016  -1.712   1.030  0.00  0.00    +0.000 NA
ATOM      6  C   UNL     1       0.329  -1.869   0.990  0.00  0.00    +0.000 A 
ATOM      7  C   UNL     1       1.158  -2.975   1.548  0.00  0.00    +0.000 C 
ATOM      8  C   UNL     1       0.845  -0.788   0.318  0.00  0.00    +0.000 A 
ATOM      9  C   UNL     1      -0.200   0.056  -0.068  0.00  0.00    +0.000 A 
ATOM     10  C   UNL     1      -0.226   1.254  -0.755  0.00  0.00    +0.000 A 
ENDROOT
BRANCH   8  11
ATOM     11  C   UNL     1       2.233  -0.480   0.006  0.00  0.00    +0.000 A 
ATOM     12  C   UNL     1       2.896  -1.014  -1.065  0.00  0.00    +0.000 A 
ATOM     13  C   UNL     1       4.208  -0.683  -1.294  0.00  0.00    +0.000 A 
ATOM     14  C   UNL     1       4.900   0.184  -0.473  0.00  0.00    +0.000 A 
ATOM     15  C   UNL     1       4.202   0.704   0.595  0.00  0.00    +0.000 A 
ATOM     16  C   UNL     1       2.892   0.384   0.839  0.00  0.00    +0.000 A 
ENDBRANCH   8  11
BRANCH   3  17
ATOM     17  N   UNL     1      -3.767  -0.589   0.652  0.00  0.00    +0.000 N 
ATOM     18  O   UNL     1      -3.737  -1.268   1.700  0.00  0.00    +0.000 OA
ATOM     19  O   UNL     1      -4.961  -0.466  -0.010  0.00  0.00    +0.000 OA
ENDBRANCH   3  17
BRANCH   1  21
ATOM     20  C   UNL     1      -0.306   3.640  -2.126  0.00  0.00    +0.000 C 
ATOM     21  O   UNL     1      -1.481   3.049  -1.671  0.00  0.00    +0.000 OA
ENDBRANCH   1  21
TORSDOF 3
