REMARK  Name = 
REMARK  1 active torsions:
REMARK  status: ('A' for Active; 'I' for Inactive)
REMARK    1  A    between atoms: C_8  and  C_9
REMARK                            x       y       z     vdW  Elec       q    Type
REMARK                         _______ _______ _______ _____ _____    ______ ____
ROOT
ATOM      1  C   UNL     1       5.673  -0.694  -0.310  0.00  0.00    +0.000 C 
ATOM      2  C   UNL     1       4.214  -0.430  -0.126  0.00  0.00    +0.000 A 
ATOM      3  C   UNL     1       3.281  -1.049  -0.932  0.00  0.00    +0.000 A 
ATOM      4  C   UNL     1       1.931  -0.797  -0.754  0.00  0.00    +0.000 A 
ATOM      5  O   UNL     1       1.010  -1.361  -1.495  0.00  0.00    +0.000 OA
ATOM      6  C   UNL     1      -0.277  -1.124  -1.329  0.00  0.00    +0.000 A 
ATOM      7  O   UNL     1      -1.157  -1.668  -2.042  0.00  0.00    +0.000 OA
ATOM      8  C   UNL     1      -0.719  -0.256  -0.351  0.00  0.00    +0.000 A 
ATOM      9  C   UNL     1       0.240   0.343   0.434  0.00  0.00    +0.000 A 
ATOM     10  C   UNL     1      -0.163   1.292   1.509  0.00  0.00    +0.000 C 
ATOM     11  C   UNL     1       1.567   0.077   0.237  0.00  0.00    +0.000 A 
ATOM     12  C   UNL     1       2.518   0.703   1.052  0.00  0.00    +0.000 A 
ATOM     13  C   UNL     1       3.858   0.450   0.872  0.00  0.00    +0.000 A 
ATOM     14 CL   UNL     1       5.081   1.227   1.890  0.00  0.00    +0.000 Cl
ENDROOT
BRANCH   8  15
ATOM     15  C   UNL     1      -2.126   0.043  -0.120  0.00  0.00    +0.000 A 
ATOM     16  C   UNL     1      -2.960  -0.775   0.610  0.00  0.00    +0.000 A 
ATOM     17  C   UNL     1      -4.295  -0.447   0.804  0.00  0.00    +0.000 A 
ATOM     18  C   UNL     1      -4.835   0.714   0.272  0.00  0.00    +0.000 A 
ATOM     19  O   UNL     1      -6.179   1.028   0.478  0.00  0.00    +0.000 OA
ATOM     20  C   UNL     1      -3.994   1.528  -0.457  0.00  0.00    +0.000 A 
ATOM     21  C   UNL     1      -2.668   1.195  -0.646  0.00  0.00    +0.000 A 
ENDBRANCH   8  15
TORSDOF 1
