REMARK  Name = 
REMARK  2 active torsions:
REMARK  status: ('A' for Active; 'I' for Inactive)
REMARK    1  A    between atoms: N_2  and  C_4
REMARK    2  A    between atoms: C_7  and  C_8
REMARK                            x       y       z     vdW  Elec       q    Type
REMARK                         _______ _______ _______ _____ _____    ______ ____
ROOT
ATOM      1  C   UNL     1      -0.391   0.026   0.160  0.00  0.00    +0.000 A 
ATOM      2  N   UNL     1      -1.282   0.222  -0.852  0.00  0.00    +0.000 NA
ATOM      3  C   UNL     1      -2.541   0.004  -0.411  0.00  0.00    +0.000 A 
ATOM      4  C   UNL     1      -3.788   0.048  -0.988  0.00  0.00    +0.000 A 
ATOM      5  C   UNL     1      -4.957  -0.238  -0.298  0.00  0.00    +0.000 A 
ATOM      6  N   UNL     1      -6.220  -0.172  -0.968  0.00  0.00    +0.000 NA
ATOM      7  C   UNL     1      -4.856  -0.580   1.030  0.00  0.00    +0.000 A 
ATOM      8  C   UNL     1      -3.622  -0.632   1.639  0.00  0.00    +0.000 A 
ATOM      9  C   UNL     1      -2.459  -0.341   0.920  0.00  0.00    +0.000 A 
ATOM     10  N   UNL     1      -1.160  -0.314   1.217  0.00  0.00    +0.000 N 
ATOM     11  C   UNL     1      -0.615  -0.623   2.546  0.00  0.00    +0.000 C 
ENDROOT
BRANCH   1  15
ATOM     12  C   UNL     1       3.832   0.320   0.024  0.00  0.00    +0.000 A 
ATOM     13  C   UNL     1       3.083   0.550  -1.108  0.00  0.00    +0.000 A 
ATOM     14  C   UNL     1       1.682   0.458  -1.061  0.00  0.00    +0.000 A 
ATOM     15  C   UNL     1       1.045   0.138   0.108  0.00  0.00    +0.000 A 
ATOM     16  C   UNL     1       1.801  -0.086   1.222  0.00  0.00    +0.000 A 
ATOM     17  C   UNL     1       3.169  -0.006   1.216  0.00  0.00    +0.000 A 
BRANCH  12  19
ATOM     18  C   UNL     1       6.073  -0.828  -0.131  0.00  0.00    +0.000 C 
ATOM     19  N   UNL     1       5.264   0.387   0.005  0.00  0.00    +0.000 N 
ATOM     20  C   UNL     1       5.941   1.669   0.120  0.00  0.00    +0.000 C 
ENDBRANCH  12  19
ENDBRANCH   1  15
TORSDOF 2
