REMARK  Name = 
REMARK  2 active torsions:
REMARK  status: ('A' for Active; 'I' for Inactive)
REMARK    1  A    between atoms: C_6  and  C_8
REMARK    2  A    between atoms: C_15  and  C_16
REMARK                            x       y       z     vdW  Elec       q    Type
REMARK                         _______ _______ _______ _____ _____    ______ ____
ROOT
ATOM      1  C   UNL     1      -3.701   0.619   2.389  0.00  0.00    +0.000 C 
ATOM      2  C   UNL     1      -2.633   0.409   1.330  0.00  0.00    +0.000 A 
ATOM      3  N   UNL     1      -1.382   0.293   1.630  0.00  0.00    +0.000 NA
ATOM      4  C   UNL     1      -0.487   0.112   0.682  0.00  0.00    +0.000 A 
ATOM      5  N   UNL     1       0.950  -0.040   0.803  0.00  0.00    +0.000 NA
ATOM      6  C   UNL     1       1.742  -0.228  -0.364  0.00  0.00    +0.000 C 
ATOM      7  O   UNL     1       1.127  -0.252  -1.460  0.00  0.00    +0.000 OA
ATOM      8  S   UNL     1      -1.459   0.101  -0.732  0.00  0.00    +0.000 S 
ATOM      9  C   UNL     1      -2.984   0.336   0.008  0.00  0.00    +0.000 A 
ENDROOT
BRANCH   6  10
ATOM     10  C   UNL     1       3.200  -0.387  -0.299  0.00  0.00    +0.000 A 
ATOM     11  C   UNL     1       3.886  -0.362   0.897  0.00  0.00    +0.000 A 
ATOM     12  C   UNL     1       5.256  -0.508   0.996  0.00  0.00    +0.000 A 
ATOM     13  C   UNL     1       6.001  -0.690  -0.151  0.00  0.00    +0.000 A 
ATOM     14  C   UNL     1       5.326  -0.717  -1.366  0.00  0.00    +0.000 A 
ATOM     15  C   UNL     1       3.955  -0.569  -1.438  0.00  0.00    +0.000 A 
ENDBRANCH   6  10
BRANCH   9  16
ATOM     16  C   UNL     1      -4.348   0.437  -0.600  0.00  0.00    +0.000 C 
ATOM     17  C   UNL     1      -5.188  -0.672  -0.030  0.00  0.00    +0.000 C 
ATOM     18  C   UNL     1      -5.010   1.759  -0.189  0.00  0.00    +0.000 C 
ATOM     19  C   UNL     1      -4.251   0.359  -2.107  0.00  0.00    +0.000 C 
ENDBRANCH   9  16
TORSDOF 2
