REMARK  Name = 
REMARK  4 active torsions:
REMARK  status: ('A' for Active; 'I' for Inactive)
REMARK    1  A    between atoms: C_2  and  N_3
REMARK    2  A    between atoms: C_2  and  C_16
REMARK    3  A    between atoms: N_3  and  N_4
REMARK    4  A    between atoms: C_5  and  C_7
REMARK                            x       y       z     vdW  Elec       q    Type
REMARK                         _______ _______ _______ _____ _____    ______ ____
ROOT
ATOM      1  N   UNL     1      -0.683  -0.108  -1.225  0.00  0.00    +0.000 NA
ATOM      2  C   UNL     1      -0.061  -0.965  -0.316  0.00  0.00    +0.000 C 
ATOM      3  O   UNL     1      -0.722  -1.855   0.272  0.00  0.00    +0.000 OA
ENDROOT
BRANCH   2   4
ATOM      4  C   UNL     1       1.390  -0.866  -0.008  0.00  0.00    +0.000 A 
ATOM      5  C   UNL     1       2.289   0.016  -0.517  0.00  0.00    +0.000 A 
ATOM      6  C   UNL     1       3.557  -0.060  -0.103  0.00  0.00    +0.000 A 
ATOM      7  C   UNL     1       3.850  -1.038   0.817  0.00  0.00    +0.000 A 
ATOM      8  S   UNL     1       2.343  -1.797   1.054  0.00  0.00    +0.000 S 
ATOM      9  C   UNL     1       5.271  -1.139   1.295  0.00  0.00    +0.000 C 
ATOM     10  C   UNL     1       5.785   0.218   1.725  0.00  0.00    +0.000 C 
ATOM     11  C   UNL     1       5.305   1.318   0.817  0.00  0.00    +0.000 C 
ATOM     12  C   UNL     1       4.766   0.784  -0.493  0.00  0.00    +0.000 C 
ENDBRANCH   2   4
BRANCH   1  13
ATOM     13  N   UNL     1      -2.063  -0.247  -1.477  0.00  0.00    +0.000 NA
BRANCH  13  15
ATOM     14  C   UNL     1      -2.733   2.027  -1.802  0.00  0.00    +0.000 C 
ATOM     15  C   UNL     1      -2.966   0.840  -1.252  0.00  0.00    +0.000 C 
BRANCH  15  16
ATOM     16  C   UNL     1      -4.147   0.649  -0.415  0.00  0.00    +0.000 A 
ATOM     17  C   UNL     1      -4.485  -0.530   0.205  0.00  0.00    +0.000 A 
ATOM     18  C   UNL     1      -5.652  -0.294   0.888  0.00  0.00    +0.000 A 
ATOM     19  C   UNL     1      -5.984   1.026   0.657  0.00  0.00    +0.000 A 
ATOM     20  O   UNL     1      -5.060   1.543  -0.122  0.00  0.00    +0.000 OA
ENDBRANCH  15  16
ENDBRANCH  13  15
ENDBRANCH   1  13
TORSDOF 4
