REMARK  Name = 
REMARK  4 active torsions:
REMARK  status: ('A' for Active; 'I' for Inactive)
REMARK    1  A    between atoms: C_2  and  N_3
REMARK    2  A    between atoms: C_2  and  C_12
REMARK    3  A    between atoms: N_3  and  N_4
REMARK    4  A    between atoms: C_5  and  C_7
REMARK                            x       y       z     vdW  Elec       q    Type
REMARK                         _______ _______ _______ _____ _____    ______ ____
ROOT
ATOM      1  C   UNL     1      -1.020  -2.975   0.680  0.00  0.00    +0.000 C 
ATOM      2  C   UNL     1      -0.831  -1.726   0.185  0.00  0.00    +0.000 C 
ENDROOT
BRANCH   2   3
ATOM      3  C   UNL     1      -2.028  -1.002  -0.188  0.00  0.00    +0.000 A 
ATOM      4  C   UNL     1      -3.205  -1.830  -0.558  0.00  0.00    +0.000 A 
ATOM      5  C   UNL     1      -4.278  -1.067  -0.893  0.00  0.00    +0.000 A 
ATOM      6  C   UNL     1      -4.455   0.236  -0.949  0.00  0.00    +0.000 A 
ATOM      7  C   UNL     1      -5.669   0.936  -1.327  0.00  0.00    +0.000 C 
ATOM      8  C   UNL     1      -3.297   1.074  -0.580  0.00  0.00    +0.000 A 
ATOM      9  C   UNL     1      -3.460   2.490  -0.627  0.00  0.00    +0.000 C 
ATOM     10  C   UNL     1      -2.265   0.282  -0.259  0.00  0.00    +0.000 A 
ENDBRANCH   2   3
BRANCH   2  11
ATOM     11  N   UNL     1       0.394  -1.258   0.004  0.00  0.00    +0.000 NA
BRANCH  11  12
ATOM     12  N   UNL     1       1.540  -0.734  -0.085  0.00  0.00    +0.000 NA
ATOM     13  C   UNL     1       2.283   0.262   0.548  0.00  0.00    +0.000 C 
ATOM     14  O   UNL     1       1.765   0.888   1.488  0.00  0.00    +0.000 OA
BRANCH  13  15
ATOM     15  C   UNL     1       3.663   0.595   0.140  0.00  0.00    +0.000 A 
ATOM     16  C   UNL     1       4.403   0.071  -0.884  0.00  0.00    +0.000 A 
ATOM     17  C   UNL     1       5.641   0.535  -1.051  0.00  0.00    +0.000 A 
ATOM     18  C   UNL     1       6.082   1.497  -0.192  0.00  0.00    +0.000 A 
ATOM     19  S   UNL     1       4.737   1.725   0.832  0.00  0.00    +0.000 S 
ENDBRANCH  13  15
ENDBRANCH  11  12
ENDBRANCH   2  11
TORSDOF 4
