REMARK  Name = 
REMARK  1 active torsions:
REMARK  status: ('A' for Active; 'I' for Inactive)
REMARK    1  A    between atoms: C_4  and  C_5
REMARK                            x       y       z     vdW  Elec       q    Type
REMARK                         _______ _______ _______ _____ _____    ______ ____
ROOT
ATOM      1  O   UNL     1       0.722  -1.972   1.536  0.00  0.00    +0.000 OA
ATOM      2  C   UNL     1       0.291  -1.107   0.722  0.00  0.00    +0.000 C 
ATOM      3  N   UNL     1      -1.097  -0.849   0.570  0.00  0.00    +0.000 NA
ATOM      4  C   UNL     1      -1.489   0.684   0.435  0.00  0.00    +0.000 C 
ATOM      5  N   UNL     1      -0.801   0.770  -1.027  0.00  0.00    +0.000 NA
ATOM      6  C   UNL     1       0.614   0.573  -0.942  0.00  0.00    +0.000 A 
ATOM      7  S   UNL     1       1.940   1.304  -1.769  0.00  0.00    +0.000 S 
ATOM      8  C   UNL     1       3.224   0.454  -1.041  0.00  0.00    +0.000 A 
ATOM      9  C   UNL     1       2.571  -0.383  -0.166  0.00  0.00    +0.000 A 
ATOM     10  C   UNL     1       1.236  -0.319  -0.118  0.00  0.00    +0.000 A 
ATOM     11  C   UNL     1       3.536  -1.262   0.618  0.00  0.00    +0.000 C 
ATOM     12  C   UNL     1       4.437  -0.234   1.306  0.00  0.00    +0.000 C 
ATOM     13  C   UNL     1       5.326   0.407   0.273  0.00  0.00    +0.000 C 
ATOM     14  C   UNL     1       4.715   0.398  -1.110  0.00  0.00    +0.000 C 
ENDROOT
BRANCH   4  15
ATOM     15  C   UNL     1      -2.977   0.405  -0.133  0.00  0.00    +0.000 A 
ATOM     16  C   UNL     1      -3.918   1.192   0.475  0.00  0.00    +0.000 A 
ATOM     17  C   UNL     1      -5.234   1.008   0.036  0.00  0.00    +0.000 A 
ATOM     18  C   UNL     1      -5.477   0.069  -0.954  0.00  0.00    +0.000 A 
ATOM     19  C   UNL     1      -4.450  -0.657  -1.485  0.00  0.00    +0.000 A 
ATOM     20  N   UNL     1      -3.167  -0.481  -1.060  0.00  0.00    +0.000 NA
ENDBRANCH   4  15
TORSDOF 1
