REMARK  Name = 
REMARK  4 active torsions:
REMARK  status: ('A' for Active; 'I' for Inactive)
REMARK    1  A    between atoms: O_2  and  C_3
REMARK    2  A    between atoms: C_5  and  N_6
REMARK    3  A    between atoms: C_11  and  N_12
REMARK    4  A    between atoms: C_16  and  C_17
REMARK                            x       y       z     vdW  Elec       q    Type
REMARK                         _______ _______ _______ _____ _____    ______ ____
ROOT
ATOM      1  C   UNL     1       0.853   0.891   0.352  0.00  0.00    +0.000 A 
ATOM      2  C   UNL     1       2.196   0.944   0.494  0.00  0.00    +0.000 A 
ATOM      3  C   UNL     1       2.994  -0.178   0.410  0.00  0.00    +0.000 A 
ATOM      4  C   UNL     1       2.400  -1.382   0.175  0.00  0.00    +0.000 A 
ATOM      5  C   UNL     1       1.033  -1.457   0.027  0.00  0.00    +0.000 A 
ATOM      6  C   UNL     1       0.246  -0.332   0.113  0.00  0.00    +0.000 A 
ENDROOT
BRANCH   6   7
ATOM      7  N   UNL     1      -1.163  -0.426  -0.042  0.00  0.00    +0.000 N 
ATOM      8  C   UNL     1      -1.850  -0.909  -1.113  0.00  0.00    +0.000 A 
ATOM      9  C   UNL     1      -1.250  -1.446  -2.363  0.00  0.00    +0.000 C 
ATOM     10  C   UNL     1      -3.204  -0.827  -0.867  0.00  0.00    +0.000 A 
ATOM     11  C   UNL     1      -3.372  -0.282   0.383  0.00  0.00    +0.000 A 
ATOM     12  C   UNL     1      -2.096  -0.053   0.850  0.00  0.00    +0.000 A 
ATOM     13  C   UNL     1      -1.773   0.541   2.190  0.00  0.00    +0.000 C 
BRANCH  11  14
ATOM     14  C   UNL     1      -4.634   0.020   1.127  0.00  0.00    +0.000 C 
ATOM     15  O   UNL     1      -5.738  -0.339   0.355  0.00  0.00    +0.000 OA
ENDBRANCH  11  14
ENDBRANCH   6   7
BRANCH   3  16
ATOM     16  N   UNL     1       4.392  -0.020   0.573  0.00  0.00    +0.000 N 
ATOM     17  O   UNL     1       4.904   1.081   0.785  0.00  0.00    +0.000 OA
ATOM     18  O   UNL     1       5.213  -1.117   0.495  0.00  0.00    +0.000 OA
ENDBRANCH   3  16
BRANCH   1  20
ATOM     19  C   UNL     1       0.758   3.256   0.688  0.00  0.00    +0.000 C 
ATOM     20  O   UNL     1       0.090   2.036   0.443  0.00  0.00    +0.000 OA
ENDBRANCH   1  20
TORSDOF 4
