REMARK  Name = 
REMARK  4 active torsions:
REMARK  status: ('A' for Active; 'I' for Inactive)
REMARK    1  A    between atoms: C_2  and  C_4
REMARK    2  A    between atoms: C_6  and  C_7
REMARK    3  A    between atoms: C_12  and  S_13
REMARK    4  A    between atoms: S_13  and  C_14
REMARK                            x       y       z     vdW  Elec       q    Type
REMARK                         _______ _______ _______ _____ _____    ______ ____
ROOT
ATOM      1  C   UNL     1       0.508   0.553   1.514  0.00  0.00    +0.000 A 
ATOM      2  S   UNL     1       2.014   1.299   1.215  0.00  0.00    +0.000 S 
ATOM      3  C   UNL     1       2.560   0.358  -0.089  0.00  0.00    +0.000 A 
ATOM      4  C   UNL     1       1.548  -0.510  -0.251  0.00  0.00    +0.000 A 
ATOM      5  C   UNL     1       0.483  -0.434   0.559  0.00  0.00    +0.000 A 
ENDROOT
BRANCH   3   6
ATOM      6  C   UNL     1       3.813   0.373  -0.913  0.00  0.00    +0.000 C 
ATOM      7  C   UNL     1       5.021   0.620   0.008  0.00  0.00    +0.000 C 
ATOM      8  C   UNL     1       3.765   1.416  -1.988  0.00  0.00    +0.000 C 
ATOM      9  C   UNL     1       4.081  -1.011  -1.501  0.00  0.00    +0.000 C 
ENDBRANCH   3   6
BRANCH   1  11
ATOM     10  C   UNL     1      -0.199   2.016   3.430  0.00  0.00    +0.000 C 
ATOM     11  C   UNL     1      -0.516   0.883   2.534  0.00  0.00    +0.000 C 
ATOM     12  O   UNL     1      -1.586   0.281   2.673  0.00  0.00    +0.000 OA
ENDBRANCH   1  11
BRANCH   5  13
ATOM     13  S   UNL     1      -0.888  -1.598   0.357  0.00  0.00    +0.000 S 
BRANCH  13  14
ATOM     14  C   UNL     1      -2.202  -0.966  -0.603  0.00  0.00    +0.000 A 
ATOM     15  C   UNL     1      -3.309  -0.432   0.007  0.00  0.00    +0.000 A 
ATOM     16  C   UNL     1      -4.370   0.080  -0.713  0.00  0.00    +0.000 A 
ATOM     17  C   UNL     1      -4.317   0.055  -2.074  0.00  0.00    +0.000 A 
ATOM     18  C   UNL     1      -3.205  -0.479  -2.718  0.00  0.00    +0.000 A 
ATOM     19  C   UNL     1      -2.160  -0.985  -1.971  0.00  0.00    +0.000 A 
ATOM     20  N   UNL     1      -1.039  -1.518  -2.639  0.00  0.00    +0.000 NA
ENDBRANCH  13  14
ENDBRANCH   5  13
TORSDOF 4
