REMARK  Name = 
REMARK  4 active torsions:
REMARK  status: ('A' for Active; 'I' for Inactive)
REMARK    1  A    between atoms: C_2  and  C_5
REMARK    2  A    between atoms: C_7  and  C_8
REMARK    3  A    between atoms: N_10  and  N_11
REMARK    4  A    between atoms: C_12  and  C_13
REMARK                            x       y       z     vdW  Elec       q    Type
REMARK                         _______ _______ _______ _____ _____    ______ ____
ROOT
ATOM      1  C   UNL     1       0.437  -0.397   0.984  0.00  0.00    +0.000 C 
ATOM      2  O   UNL     1       0.246   0.057   2.168  0.00  0.00    +0.000 OA
ATOM      3  N   UNL     1      -0.626  -0.707   0.245  0.00  0.00    +0.000 NA
ENDROOT
BRANCH   1   6
ATOM      4  C   UNL     1       3.990  -0.280   0.091  0.00  0.00    +0.000 A 
ATOM      5  C   UNL     1       2.937   0.181   0.861  0.00  0.00    +0.000 A 
ATOM      6  C   UNL     1       1.836  -0.540   0.490  0.00  0.00    +0.000 A 
ATOM      7  N   UNL     1       2.203  -1.391  -0.452  0.00  0.00    +0.000 NA
ATOM      8  N   UNL     1       3.490  -1.257  -0.712  0.00  0.00    +0.000 NA
BRANCH   4  10
ATOM      9  C   UNL     1       5.401   1.490  -0.846  0.00  0.00    +0.000 C 
ATOM     10  C   UNL     1       5.389   0.241   0.068  0.00  0.00    +0.000 C 
ATOM     11  C   UNL     1       6.301  -0.788  -0.532  0.00  0.00    +0.000 C 
ATOM     12  C   UNL     1       5.821   0.671   1.444  0.00  0.00    +0.000 C 
ENDBRANCH   4  10
ENDBRANCH   1   6
BRANCH   3  13
ATOM     13  N   UNL     1      -1.905  -0.850  -0.045  0.00  0.00    +0.000 NA
ATOM     14  C   UNL     1      -2.749   0.062  -0.147  0.00  0.00    +0.000 C 
BRANCH  14  15
ATOM     15  C   UNL     1      -4.111   0.285  -0.430  0.00  0.00    +0.000 A 
ATOM     16  C   UNL     1      -4.987  -0.691  -0.868  0.00  0.00    +0.000 A 
ATOM     17  C   UNL     1      -6.283  -0.391  -1.136  0.00  0.00    +0.000 A 
ATOM     18  C   UNL     1      -6.817   0.872  -0.999  0.00  0.00    +0.000 A 
ATOM     19  C   UNL     1      -5.934   1.864  -0.555  0.00  0.00    +0.000 A 
ATOM     20  C   UNL     1      -4.637   1.569  -0.280  0.00  0.00    +0.000 A 
ENDBRANCH  14  15
ENDBRANCH   3  13
TORSDOF 4
