REMARK  Name = 
REMARK  3 active torsions:
REMARK  status: ('A' for Active; 'I' for Inactive)
REMARK    1  A    between atoms: O_2  and  C_3
REMARK    2  A    between atoms: C_7  and  C_8
REMARK    3  A    between atoms: N_12  and  C_13
REMARK                            x       y       z     vdW  Elec       q    Type
REMARK                         _______ _______ _______ _____ _____    ______ ____
ROOT
ATOM      1  C   UNL     1       0.350  -0.121  -0.233  0.00  0.00    +0.000 C 
ATOM      2  C   UNL     1      -0.062  -0.523  -1.412  0.00  0.00    +0.000 C 
ATOM      3  S   UNL     1      -1.809  -0.527  -1.759  0.00  0.00    +0.000 S 
ATOM      4  C   UNL     1      -2.601   0.067  -0.287  0.00  0.00    +0.000 C 
ATOM      5  N   UNL     1      -3.994   0.174  -0.263  0.00  0.00    +0.000 NA
ATOM      6  N   UNL     1      -1.896   0.387   0.724  0.00  0.00    +0.000 NA
ATOM      7  N   UNL     1      -0.516   0.312   0.786  0.00  0.00    +0.000 NA
ENDROOT
BRANCH   1  12
ATOM      8  C   UNL     1       4.045  -0.570  -0.749  0.00  0.00    +0.000 A 
ATOM      9  C   UNL     1       4.547  -0.161   0.468  0.00  0.00    +0.000 A 
ATOM     10  C   UNL     1       3.677   0.251   1.428  0.00  0.00    +0.000 A 
ATOM     11  C   UNL     1       2.306   0.270   1.216  0.00  0.00    +0.000 A 
ATOM     12  C   UNL     1       1.791  -0.136   0.004  0.00  0.00    +0.000 A 
ATOM     13  C   UNL     1       2.685  -0.553  -0.964  0.00  0.00    +0.000 A 
BRANCH   8  15
ATOM     14  C   UNL     1       6.329  -1.000  -1.485  0.00  0.00    +0.000 C 
ATOM     15  O   UNL     1       4.946  -0.987  -1.716  0.00  0.00    +0.000 OA
ENDBRANCH   8  15
ENDBRANCH   1  12
BRANCH   5  16
ATOM     16  C   UNL     1      -4.745   0.658   0.885  0.00  0.00    +0.000 C 
ATOM     17  C   UNL     1      -4.317   2.078   1.217  0.00  0.00    +0.000 C 
ATOM     18  C   UNL     1      -4.530  -0.285   2.039  0.00  0.00    +0.000 C 
ATOM     19  C   UNL     1      -6.208   0.670   0.462  0.00  0.00    +0.000 C 
ENDBRANCH   5  16
TORSDOF 3
