REMARK  Name = 
REMARK  0 active torsions:
REMARK  status: ('A' for Active; 'I' for Inactive)
REMARK                            x       y       z     vdW  Elec       q    Type
REMARK                         _______ _______ _______ _____ _____    ______ ____
ROOT
ATOM      1  C   UNL     1      -2.594   0.417  -1.821  0.00  0.00    +0.000 C 
ATOM      2  C   UNL     1      -2.368  -0.283  -0.512  0.00  0.00    +0.000 C 
ATOM      3  C   UNL     1      -1.860  -1.669  -0.647  0.00  0.00    +0.000 C 
ATOM      4  C   UNL     1      -0.372  -1.535  -0.880  0.00  0.00    +0.000 C 
ATOM      5  C   UNL     1       0.269  -0.443  -0.084  0.00  0.00    +0.000 C 
ATOM      6  C   UNL     1      -0.393   0.475   0.602  0.00  0.00    +0.000 C 
ATOM      7  C   UNL     1       0.298   1.517   1.361  0.00  0.00    +0.000 C 
ATOM      8  C   UNL     1       1.759   1.503   1.331  0.00  0.00    +0.000 C 
ATOM      9  C   UNL     1       2.436   0.473   0.562  0.00  0.00    +0.000 A 
ATOM     10  C   UNL     1       3.838   0.472   0.542  0.00  0.00    +0.000 A 
ATOM     11  C   UNL     1       4.541  -0.477  -0.168  0.00  0.00    +0.000 A 
ATOM     12  O   UNL     1       5.927  -0.429  -0.151  0.00  0.00    +0.000 OA
ATOM     13  C   UNL     1       3.823  -1.430  -0.860  0.00  0.00    +0.000 A 
ATOM     14  C   UNL     1       2.437  -1.444  -0.852  0.00  0.00    +0.000 A 
ATOM     15  C   UNL     1       1.731  -0.473  -0.126  0.00  0.00    +0.000 A 
ATOM     16  C   UNL     1      -1.834   0.369   0.546  0.00  0.00    +0.000 C 
ATOM     17  C   UNL     1      -2.573   0.984   1.894  0.00  0.00    +0.000 C 
ATOM     18  C   UNL     1      -2.579   1.858   0.456  0.00  0.00    +0.000 C 
ATOM     19  C   UNL     1      -4.064   1.260  -0.074  0.00  0.00    +0.000 C 
ATOM     20  C   UNL     1      -3.837  -0.346   0.239  0.00  0.00    +0.000 C 
ATOM     21  O   UNL     1      -4.586  -0.798  -1.027  0.00  0.00    +0.000 OA
ENDROOT
TORSDOF 0
