REMARK  Name = 
REMARK  4 active torsions:
REMARK  status: ('A' for Active; 'I' for Inactive)
REMARK    1  A    between atoms: O_2  and  C_3
REMARK    2  A    between atoms: C_3  and  C_5
REMARK    3  A    between atoms: C_5  and  C_6
REMARK    4  A    between atoms: C_13  and  C_14
REMARK                            x       y       z     vdW  Elec       q    Type
REMARK                         _______ _______ _______ _____ _____    ______ ____
ROOT
ATOM      1  C   UNL     1      -1.738  -0.712   0.431  0.00  0.00    +0.000 C 
ATOM      2  C   UNL     1      -2.070  -1.143  -0.879  0.00  0.00    +0.000 C 
ATOM      3  C   UNL     1      -1.078  -2.274  -1.474  0.00  0.00    +0.000 C 
ATOM      4  C   UNL     1      -1.033  -3.264  -0.240  0.00  0.00    +0.000 C 
ATOM      5  C   UNL     1      -0.511  -2.826   1.179  0.00  0.00    +0.000 C 
ATOM      6  C   UNL     1      -1.571  -1.640   1.468  0.00  0.00    +0.000 C 
ATOM      7  C   UNL     1       0.773  -1.886   0.836  0.00  0.00    +0.000 C 
ATOM      8  C   UNL     1       0.493  -0.840  -0.073  0.00  0.00    +0.000 C 
ATOM      9  C   UNL     1       0.311  -1.466  -1.348  0.00  0.00    +0.000 C 
ATOM     10  C   UNL     1      -0.512   0.217   0.353  0.00  0.00    +0.000 C 
ENDROOT
BRANCH   8  11
ATOM     11  C   UNL     1       1.742  -0.019  -0.167  0.00  0.00    +0.000 A 
ATOM     12  C   UNL     1       2.215   0.654   0.965  0.00  0.00    +0.000 A 
ATOM     13  C   UNL     1       3.352   1.421   0.892  0.00  0.00    +0.000 A 
ATOM     14  C   UNL     1       4.036   1.534  -0.296  0.00  0.00    +0.000 A 
ATOM     15  N   UNL     1       5.203   2.332  -0.360  0.00  0.00    +0.000 NA
ATOM     16  C   UNL     1       3.589   0.879  -1.426  0.00  0.00    +0.000 A 
ATOM     17  C   UNL     1       2.462   0.132  -1.313  0.00  0.00    +0.000 A 
ENDBRANCH   8  11
BRANCH   1  18
ATOM     18  C   UNL     1      -2.842   0.228   0.891  0.00  0.00    +0.000 C 
BRANCH  18  19
ATOM     19  C   UNL     1      -2.900   1.383  -0.045  0.00  0.00    +0.000 C 
ATOM     20  O   UNL     1      -2.128   1.444  -1.032  0.00  0.00    +0.000 OA
BRANCH  19  22
ATOM     21  C   UNL     1      -3.960   3.491  -0.594  0.00  0.00    +0.000 C 
ATOM     22  O   UNL     1      -3.831   2.358   0.236  0.00  0.00    +0.000 OA
ENDBRANCH  19  22
ENDBRANCH  18  19
ENDBRANCH   1  18
TORSDOF 4
