REMARK  Name = 
REMARK  3 active torsions:
REMARK  status: ('A' for Active; 'I' for Inactive)
REMARK    1  A    between atoms: C_8  and  N_9
REMARK    2  A    between atoms: C_10  and  C_12
REMARK    3  A    between atoms: C_17  and  N_18
REMARK                            x       y       z     vdW  Elec       q    Type
REMARK                         _______ _______ _______ _____ _____    ______ ____
ROOT
ATOM      1  N   UNL     1       1.234  -0.449   0.434  0.00  0.00    +0.000 NA
ATOM      2  C   UNL     1       0.149   0.268  -0.104  0.00  0.00    +0.000 C 
ATOM      3  O   UNL     1       0.337   1.265  -0.836  0.00  0.00    +0.000 OA
ENDROOT
BRANCH   1  11
ATOM      4  C   UNL     1       3.283  -1.970   1.575  0.00  0.00    +0.000 C 
ATOM      5  C   UNL     1       3.638  -0.807   0.719  0.00  0.00    +0.000 A 
ATOM      6  C   UNL     1       4.955  -0.456   0.471  0.00  0.00    +0.000 A 
ATOM      7  C   UNL     1       5.285   0.625  -0.324  0.00  0.00    +0.000 A 
ATOM      8  F   UNL     1       6.565   0.992  -0.584  0.00  0.00    +0.000 F 
ATOM      9  C   UNL     1       4.246   1.350  -0.868  0.00  0.00    +0.000 A 
ATOM     10  C   UNL     1       2.933   0.999  -0.620  0.00  0.00    +0.000 A 
ATOM     11  C   UNL     1       2.603  -0.081   0.174  0.00  0.00    +0.000 A 
ENDBRANCH   1  11
BRANCH   2  12
ATOM     12  C   UNL     1      -1.203  -0.185   0.218  0.00  0.00    +0.000 A 
ATOM     13  C   UNL     1      -1.440  -1.285   1.009  0.00  0.00    +0.000 A 
ATOM     14  C   UNL     1      -2.720  -1.699   1.303  0.00  0.00    +0.000 A 
ATOM     15  C   UNL     1      -3.801  -1.007   0.802  0.00  0.00    +0.000 A 
ATOM     16  C   UNL     1      -5.213  -1.387   1.070  0.00  0.00    +0.000 C 
ATOM     17  C   UNL     1      -3.560   0.096   0.008  0.00  0.00    +0.000 A 
ATOM     18  C   UNL     1      -2.287   0.499  -0.278  0.00  0.00    +0.000 A 
BRANCH  17  19
ATOM     19  N   UNL     1      -4.668   0.836  -0.527  0.00  0.00    +0.000 N 
ATOM     20  O   UNL     1      -5.715   0.214  -0.793  0.00  0.00    +0.000 OA
ATOM     21  O   UNL     1      -4.621   2.182  -0.755  0.00  0.00    +0.000 OA
ENDBRANCH  17  19
ENDBRANCH   2  12
TORSDOF 3
