REMARK  Name = 
REMARK  2 active torsions:
REMARK  status: ('A' for Active; 'I' for Inactive)
REMARK    1  A    between atoms: N_13  and  C_14
REMARK    2  A    between atoms: C_14  and  C_15
REMARK                            x       y       z     vdW  Elec       q    Type
REMARK                         _______ _______ _______ _____ _____    ______ ____
ROOT
ATOM      1  O   UNL     1      -0.651  -1.512  -2.659  0.00  0.00    +0.000 OA
ATOM      2  C   UNL     1       0.107  -0.901  -1.830  0.00  0.00    +0.000 C 
ATOM      3  N   UNL     1       1.464  -1.248  -1.566  0.00  0.00    +0.000 NA
ATOM      4  C   UNL     1       2.009  -0.351  -0.586  0.00  0.00    +0.000 C 
ATOM      5  C   UNL     1       3.253   0.360  -1.075  0.00  0.00    +0.000 C 
ATOM      6  C   UNL     1       4.507  -0.147  -0.404  0.00  0.00    +0.000 C 
ATOM      7  C   UNL     1       4.759   0.486   0.931  0.00  0.00    +0.000 C 
ATOM      8  C   UNL     1       3.501   0.802   1.692  0.00  0.00    +0.000 C 
ATOM      9  C   UNL     1       2.593  -0.378   1.856  0.00  0.00    +0.000 C 
ATOM     10  C   UNL     1       2.435  -1.201   0.613  0.00  0.00    +0.000 C 
ATOM     11  C   UNL     1       0.916   0.569  -0.251  0.00  0.00    +0.000 C 
ATOM     12  O   UNL     1       1.032   1.510   0.598  0.00  0.00    +0.000 OA
ATOM     13  N   UNL     1      -0.221   0.214  -1.019  0.00  0.00    +0.000 N 
ENDROOT
BRANCH  13  14
ATOM     14  C   UNL     1      -1.498   0.864  -0.992  0.00  0.00    +0.000 C 
BRANCH  14  15
ATOM     15  C   UNL     1      -2.422   0.289   0.007  0.00  0.00    +0.000 A 
ATOM     16  C   UNL     1      -2.076  -0.766   0.825  0.00  0.00    +0.000 A 
ATOM     17  C   UNL     1      -3.003  -1.258   1.749  0.00  0.00    +0.000 A 
ATOM     18  C   UNL     1      -4.243  -0.712   1.855  0.00  0.00    +0.000 A 
ATOM     19  C   UNL     1      -4.597   0.343   1.041  0.00  0.00    +0.000 A 
ATOM     20  C   UNL     1      -3.679   0.844   0.114  0.00  0.00    +0.000 A 
ATOM     21 CL   UNL     1      -4.186   2.193  -0.899  0.00  0.00    +0.000 Cl
ENDBRANCH  14  15
ENDBRANCH  13  14
TORSDOF 2
