REMARK  Name = 
REMARK  4 active torsions:
REMARK  status: ('A' for Active; 'I' for Inactive)
REMARK    1  A    between atoms: C_4  and  N_5
REMARK    2  A    between atoms: N_5  and  N_6
REMARK    3  A    between atoms: N_6  and  C_7
REMARK    4  A    between atoms: C_11  and  N_12
REMARK                            x       y       z     vdW  Elec       q    Type
REMARK                         _______ _______ _______ _____ _____    ______ ____
ROOT
ATOM      1  N   UNL     1       0.523   0.290  -0.123  0.00  0.00    +0.000 NA
ENDROOT
BRANCH   1   5
ATOM      2  C   UNL     1       2.346  -0.242   2.312  0.00  0.00    +0.000 C 
ATOM      3  C   UNL     1       3.617   0.655   1.772  0.00  0.00    +0.000 C 
ATOM      4  C   UNL     1       2.773   1.304   0.537  0.00  0.00    +0.000 C 
ATOM      5  C   UNL     1       1.951   0.293  -0.101  0.00  0.00    +0.000 C 
ATOM      6  C   UNL     1       2.664  -0.668  -0.687  0.00  0.00    +0.000 C 
ATOM      7  C   UNL     1       4.145  -0.389  -0.492  0.00  0.00    +0.000 C 
ATOM      8  C   UNL     1       5.002  -1.385  -1.185  0.00  0.00    +0.000 C 
ATOM      9  C   UNL     1       4.462   1.030  -0.900  0.00  0.00    +0.000 C 
ATOM     10  C   UNL     1       4.309  -0.595   0.988  0.00  0.00    +0.000 C 
ENDBRANCH   1   5
BRANCH   1  11
ATOM     11  N   UNL     1      -0.142  -0.825  -0.643  0.00  0.00    +0.000 NA
BRANCH  11  12
ATOM     12  C   UNL     1      -1.577  -0.797  -0.606  0.00  0.00    +0.000 A 
ATOM     13  C   UNL     1      -2.298  -1.870  -1.105  0.00  0.00    +0.000 A 
ATOM     14  C   UNL     1      -3.672  -1.847  -1.071  0.00  0.00    +0.000 A 
ATOM     15  C   UNL     1      -4.361  -0.765  -0.543  0.00  0.00    +0.000 A 
ATOM     16  C   UNL     1      -3.665   0.309  -0.042  0.00  0.00    +0.000 A 
ATOM     17  C   UNL     1      -2.287   0.254  -0.092  0.00  0.00    +0.000 A 
BRANCH  16  18
ATOM     18  N   UNL     1      -4.342   1.423   0.501  0.00  0.00    +0.000 N 
ATOM     19  O   UNL     1      -3.740   2.405   0.959  0.00  0.00    +0.000 OA
ATOM     20  O   UNL     1      -5.707   1.419   0.522  0.00  0.00    +0.000 OA
ENDBRANCH  16  18
ENDBRANCH  11  12
ENDBRANCH   1  11
TORSDOF 4
