REMARK  Name = 
REMARK  3 active torsions:
REMARK  status: ('A' for Active; 'I' for Inactive)
REMARK    1  A    between atoms: C_5  and  O_6
REMARK    2  A    between atoms: O_6  and  C_7
REMARK    3  A    between atoms: C_13  and  C_14
REMARK                            x       y       z     vdW  Elec       q    Type
REMARK                         _______ _______ _______ _____ _____    ______ ____
ROOT
ATOM      1  C   UNL     1      -0.057   0.404  -0.645  0.00  0.00    +0.000 A 
ATOM      2  C   UNL     1       0.784   0.353  -1.681  0.00  0.00    +0.000 A 
ATOM      3  C   UNL     1       0.208   0.377  -2.930  0.00  0.00    +0.000 A 
ATOM      4  C   UNL     1      -1.172   0.438  -3.133  0.00  0.00    +0.000 A 
ATOM      5 CL   UNL     1      -1.869   0.372  -4.735  0.00  0.00    +0.000 Cl
ATOM      6  C   UNL     1      -2.001   0.493  -1.995  0.00  0.00    +0.000 A 
ATOM      7  C   UNL     1      -1.466   0.473  -0.746  0.00  0.00    +0.000 A 
ENDROOT
BRANCH   7   8
ATOM      8  C   UNL     1      -2.110   0.276   0.552  0.00  0.00    +0.000 C 
ATOM      9  C   UNL     1      -3.031   1.454   0.955  0.00  0.00    +0.000 C 
ATOM     10  C   UNL     1      -3.085   1.210   2.520  0.00  0.00    +0.000 C 
ATOM     11  C   UNL     1      -3.873  -0.115   2.627  0.00  0.00    +0.000 C 
ATOM     12  C   UNL     1      -4.350  -0.501   1.230  0.00  0.00    +0.000 C 
ATOM     13  C   UNL     1      -3.130  -0.940   0.398  0.00  0.00    +0.000 C 
ENDBRANCH   7   8
BRANCH   1  14
ATOM     14  O   UNL     1       0.451   0.400   0.704  0.00  0.00    +0.000 OA
BRANCH  14  19
ATOM     15  N   UNL     1       5.899  -0.493   1.161  0.00  0.00    +0.000 NA
ATOM     16  C   UNL     1       4.478  -0.257   1.087  0.00  0.00    +0.000 A 
ATOM     17  C   UNL     1       3.607  -1.330   0.974  0.00  0.00    +0.000 A 
ATOM     18  C   UNL     1       2.286  -1.111   0.839  0.00  0.00    +0.000 A 
ATOM     19  C   UNL     1       1.799   0.217   0.819  0.00  0.00    +0.000 A 
ATOM     20  N   UNL     1       2.647   1.230   0.929  0.00  0.00    +0.000 NA
ATOM     21  C   UNL     1       3.985   1.032   1.068  0.00  0.00    +0.000 A 
ENDBRANCH  14  19
ENDBRANCH   1  14
TORSDOF 3
