REMARK  Name = 
REMARK  2 active torsions:
REMARK  status: ('A' for Active; 'I' for Inactive)
REMARK    1  A    between atoms: C_2  and  C_3
REMARK    2  A    between atoms: C_3  and  C_4
REMARK                            x       y       z     vdW  Elec       q    Type
REMARK                         _______ _______ _______ _____ _____    ______ ____
ROOT
ATOM      1  C   UNL     1      -1.353  -0.802   0.024  0.00  0.00    +0.000 C 
ATOM      2  C   UNL     1      -1.984   0.546   0.177  0.00  0.00    +0.000 C 
ATOM      3  C   UNL     1      -1.077   1.696  -0.006  0.00  0.00    +0.000 A 
ATOM      4  C   UNL     1      -1.610   2.984  -0.198  0.00  0.00    +0.000 A 
ATOM      5  C   UNL     1      -0.785   4.069  -0.319  0.00  0.00    +0.000 A 
ATOM      6  C   UNL     1       0.586   3.994  -0.265  0.00  0.00    +0.000 A 
ATOM      7  C   UNL     1       1.122   2.740  -0.078  0.00  0.00    +0.000 A 
ATOM      8  C   UNL     1       0.290   1.616   0.047  0.00  0.00    +0.000 A 
ATOM      9  C   UNL     1       0.892   0.289   0.184  0.00  0.00    +0.000 A 
ATOM     10  N   UNL     1       2.245   0.247   0.328  0.00  0.00    +0.000 NA
ATOM     11  C   UNL     1       2.815  -0.949   0.542  0.00  0.00    +0.000 A 
ATOM     12  S   UNL     1       4.446  -1.077   0.725  0.00  0.00    +0.000 S 
ATOM     13  N   UNL     1       2.100  -2.081   0.617  0.00  0.00    +0.000 NA
ATOM     14  C   UNL     1       0.738  -2.031   0.470  0.00  0.00    +0.000 A 
ATOM     15  O   UNL     1       0.155  -3.122   0.555  0.00  0.00    +0.000 OA
ATOM     16  C   UNL     1       0.098  -0.834   0.246  0.00  0.00    +0.000 A 
ENDROOT
BRANCH   1  18
ATOM     17  C   UNL     1      -3.590  -1.572   0.607  0.00  0.00    +0.000 C 
ATOM     18  C   UNL     1      -2.119  -1.738   0.966  0.00  0.00    +0.000 C 
ENDBRANCH   1  18
BRANCH   1  19
ATOM     19  C   UNL     1      -1.684  -1.288  -1.404  0.00  0.00    +0.000 C 
ATOM     20  C   UNL     1      -1.285  -2.688  -1.670  0.00  0.00    +0.000 C 
ENDBRANCH   1  19
TORSDOF 2
