REMARK  Name = 
REMARK  3 active torsions:
REMARK  status: ('A' for Active; 'I' for Inactive)
REMARK    1  A    between atoms: C_2  and  C_4
REMARK    2  A    between atoms: C_6  and  C_7
REMARK    3  A    between atoms: C_12  and  C_13
REMARK                            x       y       z     vdW  Elec       q    Type
REMARK                         _______ _______ _______ _____ _____    ______ ____
ROOT
ATOM      1  C   UNL     1      -0.991   0.796  -0.232  0.00  0.00    +0.000 A 
ATOM      2  C   UNL     1      -2.390   0.718  -0.327  0.00  0.00    +0.000 A 
ATOM      3  C   UNL     1      -3.022  -0.427   0.254  0.00  0.00    +0.000 A 
ATOM      4  C   UNL     1      -2.281  -1.328   0.847  0.00  0.00    +0.000 A 
ATOM      5  C   UNL     1      -0.861  -1.236   0.935  0.00  0.00    +0.000 A 
ATOM      6 CL   UNL     1       0.082  -2.431   1.790  0.00  0.00    +0.000 Cl
ATOM      7  C   UNL     1      -0.214  -0.139   0.359  0.00  0.00    +0.000 A 
ENDROOT
BRANCH   7   8
ATOM      8  C   UNL     1       1.230  -0.156   0.354  0.00  0.00    +0.000 A 
ATOM      9  C   UNL     1       1.984  -1.231   0.722  0.00  0.00    +0.000 A 
ATOM     10  C   UNL     1       3.347  -1.323   0.674  0.00  0.00    +0.000 A 
ATOM     11  C   UNL     1       3.987  -0.179   0.172  0.00  0.00    +0.000 A 
ATOM     12  O   UNL     1       5.405  -0.256   0.067  0.00  0.00    +0.000 OA
ATOM     13  C   UNL     1       3.305   0.928  -0.221  0.00  0.00    +0.000 A 
ATOM     14  C   UNL     1       1.918   0.979  -0.139  0.00  0.00    +0.000 A 
ENDBRANCH   7   8
BRANCH   1  16
ATOM     15  C   UNL     1      -0.933   3.248  -0.223  0.00  0.00    +0.000 C 
ATOM     16  C   UNL     1      -0.268   1.971  -0.892  0.00  0.00    +0.000 C 
ATOM     17  C   UNL     1      -0.943   2.146  -2.358  0.00  0.00    +0.000 C 
ENDBRANCH   1  16
BRANCH   3  18
ATOM     18  C   UNL     1      -4.500  -0.434   0.096  0.00  0.00    +0.000 C 
ATOM     19  O   UNL     1      -4.856  -1.644  -0.547  0.00  0.00    +0.000 OA
ENDBRANCH   3  18
TORSDOF 3
