REMARK  Name = 
REMARK  5 active torsions:
REMARK  status: ('A' for Active; 'I' for Inactive)
REMARK    1  A    between atoms: C_2  and  C_3
REMARK    2  A    between atoms: C_3  and  C_4
REMARK    3  A    between atoms: C_4  and  C_5
REMARK    4  A    between atoms: C_8  and  C_9
REMARK    5  A    between atoms: C_14  and  C_15
REMARK                            x       y       z     vdW  Elec       q    Type
REMARK                         _______ _______ _______ _____ _____    ______ ____
ROOT
ATOM      1  C   UNL     1       2.269   1.684   0.060  0.00  0.00    +0.000 A 
ATOM      2  C   UNL     1       1.950   1.063   1.250  0.00  0.00    +0.000 A 
ATOM      3  C   UNL     1       0.668   0.592   1.525  0.00  0.00    +0.000 A 
ATOM      4  C   UNL     1      -0.311   0.744   0.599  0.00  0.00    +0.000 A 
ATOM      5  C   UNL     1      -0.020   1.359  -0.594  0.00  0.00    +0.000 A 
ATOM      6  C   UNL     1       1.260   1.830  -0.871  0.00  0.00    +0.000 A 
ENDROOT
BRANCH   4   7
ATOM      7  C   UNL     1      -1.718   0.308   0.826  0.00  0.00    +0.000 A 
ATOM      8  C   UNL     1      -2.353   0.828   1.932  0.00  0.00    +0.000 A 
ATOM      9  S   UNL     1      -3.912   0.164   1.838  0.00  0.00    +0.000 S 
ATOM     10  C   UNL     1      -3.731  -0.750   0.416  0.00  0.00    +0.000 A 
ATOM     11  N   UNL     1      -4.726  -1.560  -0.203  0.00  0.00    +0.000 NA
ATOM     12  C   UNL     1      -2.429  -0.510   0.040  0.00  0.00    +0.000 A 
BRANCH  12  13
ATOM     13  C   UNL     1      -1.912  -1.180  -1.177  0.00  0.00    +0.000 C 
ATOM     14  N   UNL     1      -0.590  -1.030  -1.648  0.00  0.00    +0.000 NA
ATOM     15  O   UNL     1      -2.656  -1.942  -1.870  0.00  0.00    +0.000 OA
ENDBRANCH  12  13
ENDBRANCH   4   7
BRANCH   1  16
ATOM     16  C   UNL     1       3.612   2.195  -0.268  0.00  0.00    +0.000 C 
BRANCH  16  17
ATOM     17  C   UNL     1       4.459   1.145  -0.953  0.00  0.00    +0.000 C 
BRANCH  17  19
ATOM     18  C   UNL     1       5.496  -1.067  -0.828  0.00  0.00    +0.000 C 
ATOM     19  C   UNL     1       4.645  -0.074  -0.076  0.00  0.00    +0.000 C 
ENDBRANCH  17  19
ENDBRANCH  16  17
ENDBRANCH   1  16
TORSDOF 5
