REMARK  Name = 
REMARK  3 active torsions:
REMARK  status: ('A' for Active; 'I' for Inactive)
REMARK    1  A    between atoms: C_4  and  C_5
REMARK    2  A    between atoms: C_11  and  N_12
REMARK    3  A    between atoms: C_13  and  C_15
REMARK                            x       y       z     vdW  Elec       q    Type
REMARK                         _______ _______ _______ _____ _____    ______ ____
ROOT
ATOM      1  C   UNL     1       0.114  -1.947   1.747  0.00  0.00    +0.000 C 
ATOM      2  C   UNL     1      -0.880  -1.286   0.845  0.00  0.00    +0.000 A 
ATOM      3  C   UNL     1      -2.185  -1.703   0.845  0.00  0.00    +0.000 A 
ATOM      4  C   UNL     1      -3.119  -1.114   0.026  0.00  0.00    +0.000 A 
ATOM      5  C   UNL     1      -2.701  -0.100  -0.786  0.00  0.00    +0.000 A 
ATOM      6  C   UNL     1      -1.358   0.329  -0.785  0.00  0.00    +0.000 A 
ATOM      7  O   UNL     1      -1.000   1.361  -1.632  0.00  0.00    +0.000 OA
ATOM      8  C   UNL     1      -0.413  -0.242   0.020  0.00  0.00    +0.000 A 
ENDROOT
BRANCH   4   9
ATOM      9  C   UNL     1      -4.539  -1.544   0.004  0.00  0.00    +0.000 C 
ATOM     10  C   UNL     1      -5.165  -1.279  -1.337  0.00  0.00    +0.000 C 
ATOM     11  C   UNL     1      -5.302  -0.886   1.121  0.00  0.00    +0.000 C 
ENDBRANCH   4   9
BRANCH   8  12
ATOM     12  N   UNL     1       0.938   0.051   0.148  0.00  0.00    +0.000 NA
ATOM     13  C   UNL     1       1.778   0.957  -0.439  0.00  0.00    +0.000 C 
ATOM     14  O   UNL     1       1.322   1.736  -1.292  0.00  0.00    +0.000 OA
BRANCH  13  15
ATOM     15  C   UNL     1       3.220   1.064  -0.113  0.00  0.00    +0.000 A 
ATOM     16  C   UNL     1       3.923   0.323   0.778  0.00  0.00    +0.000 A 
ATOM     17  C   UNL     1       5.220   0.583   0.921  0.00  0.00    +0.000 A 
ATOM     18  C   UNL     1       5.756   1.581   0.159  0.00  0.00    +0.000 A 
ATOM     19  S   UNL     1       4.388   2.116  -0.739  0.00  0.00    +0.000 S 
ENDBRANCH  13  15
ENDBRANCH   8  12
TORSDOF 3
