REMARK  Name = 
REMARK  5 active torsions:
REMARK  status: ('A' for Active; 'I' for Inactive)
REMARK    1  A    between atoms: C_2  and  N_3
REMARK    2  A    between atoms: C_2  and  N_10
REMARK    3  A    between atoms: N_3  and  C_4
REMARK    4  A    between atoms: C_4  and  C_5
REMARK    5  A    between atoms: N_10  and  C_11
REMARK                            x       y       z     vdW  Elec       q    Type
REMARK                         _______ _______ _______ _____ _____    ______ ____
ROOT
ATOM      1  N   UNL     1      -0.005   0.257  -1.480  0.00  0.00    +0.000 NA
ENDROOT
BRANCH   1   2
ATOM      2  C   UNL     1      -1.229   0.086  -0.825  0.00  0.00    +0.000 A 
ATOM      3  C   UNL     1      -1.327  -0.670   0.326  0.00  0.00    +0.000 A 
ATOM      4  C   UNL     1      -2.547  -0.848   0.992  0.00  0.00    +0.000 A 
ATOM      5  C   UNL     1      -3.686  -0.261   0.499  0.00  0.00    +0.000 A 
ATOM      6  C   UNL     1      -3.610   0.497  -0.646  0.00  0.00    +0.000 A 
ATOM      7  C   UNL     1      -2.405   0.664  -1.291  0.00  0.00    +0.000 A 
ATOM      8  C   UNL     1      -4.971   0.998  -0.944  0.00  0.00    +0.000 C 
ATOM      9  C   UNL     1      -5.614   1.030   0.426  0.00  0.00    +0.000 C 
ATOM     10  C   UNL     1      -5.084  -0.289   1.007  0.00  0.00    +0.000 C 
ENDBRANCH   1   2
BRANCH   1  12
ATOM     11  S   UNL     1       2.514   0.084  -2.061  0.00  0.00    +0.000 S 
ATOM     12  C   UNL     1       1.232  -0.275  -1.103  0.00  0.00    +0.000 C 
BRANCH  12  13
ATOM     13  N   UNL     1       1.459  -1.087   0.021  0.00  0.00    +0.000 NA
BRANCH  13  14
ATOM     14  C   UNL     1       2.740  -1.634   0.408  0.00  0.00    +0.000 C 
BRANCH  14  15
ATOM     15  C   UNL     1       3.738  -0.575   0.688  0.00  0.00    +0.000 A 
ATOM     16  C   UNL     1       3.927   0.051   1.919  0.00  0.00    +0.000 A 
ATOM     17  C   UNL     1       4.942   0.965   1.753  0.00  0.00    +0.000 A 
ATOM     18  C   UNL     1       5.332   0.868   0.447  0.00  0.00    +0.000 A 
ATOM     19  O   UNL     1       4.595  -0.050  -0.136  0.00  0.00    +0.000 OA
ENDBRANCH  14  15
ENDBRANCH  13  14
ENDBRANCH  12  13
ENDBRANCH   1  12
TORSDOF 5
