REMARK  Name = 
REMARK  5 active torsions:
REMARK  status: ('A' for Active; 'I' for Inactive)
REMARK    1  A    between atoms: O_2  and  C_3
REMARK    2  A    between atoms: C_8  and  N_9
REMARK    3  A    between atoms: C_11  and  C_12
REMARK    4  A    between atoms: C_18  and  C_19
REMARK    5  A    between atoms: C_21  and  C_22
REMARK                            x       y       z     vdW  Elec       q    Type
REMARK                         _______ _______ _______ _____ _____    ______ ____
ROOT
ATOM      1  C   UNL     1      -1.230  -1.089   1.284  0.00  0.00    +0.000 C 
ATOM      2  O   UNL     1      -2.119  -1.595   0.650  0.00  0.00    +0.000 OA
ATOM      3  N   UNL     1       0.017  -1.686   1.380  0.00  0.00    +0.000 N 
ATOM      4  C   UNL     1       0.454  -2.882   0.806  0.00  0.00    +0.000 C 
ATOM      5  C   UNL     1       1.412  -3.452   1.810  0.00  0.00    +0.000 C 
ATOM      6  C   UNL     1       1.490  -2.531   2.984  0.00  0.00    +0.000 C 
ATOM      7  C   UNL     1       1.186  -1.063   2.208  0.00  0.00    +0.000 C 
ENDROOT
BRANCH   1  10
ATOM      8  N   UNL     1      -3.069   0.575   0.374  0.00  0.00    +0.000 N 
ATOM      9  C   UNL     1      -2.995   0.575   1.782  0.00  0.00    +0.000 C 
ATOM     10  C   UNL     1      -1.400   0.302   2.068  0.00  0.00    +0.000 C 
ATOM     11  C   UNL     1      -0.900   1.224   0.776  0.00  0.00    +0.000 C 
ATOM     12  C   UNL     1      -1.813   0.709  -0.261  0.00  0.00    +0.000 C 
ATOM     13  O   UNL     1      -1.500   0.459  -1.438  0.00  0.00    +0.000 OA
BRANCH   8  19
ATOM     14  C   UNL     1      -4.823   1.558  -0.962  0.00  0.00    +0.000 A 
ATOM     15  C   UNL     1      -6.043   1.474  -1.643  0.00  0.00    +0.000 A 
ATOM     16  C   UNL     1      -6.748   0.282  -1.671  0.00  0.00    +0.000 A 
ATOM     17  C   UNL     1      -6.250  -0.818  -1.029  0.00  0.00    +0.000 A 
ATOM     18  C   UNL     1      -5.056  -0.702  -0.374  0.00  0.00    +0.000 A 
ATOM     19  C   UNL     1      -4.309   0.452  -0.309  0.00  0.00    +0.000 A 
BRANCH  14  21
ATOM     20  C   UNL     1      -4.678   3.860  -1.616  0.00  0.00    +0.000 C 
ATOM     21  O   UNL     1      -4.133   2.748  -0.942  0.00  0.00    +0.000 OA
ENDBRANCH  14  21
ENDBRANCH   8  19
ENDBRANCH   1  10
BRANCH   7  22
ATOM     22  C   UNL     1       2.313  -1.175   1.097  0.00  0.00    +0.000 A 
ATOM     23  N   UNL     1       3.117  -0.116   0.983  0.00  0.00    +0.000 NA
ATOM     24  C   UNL     1       4.001  -0.413  -0.013  0.00  0.00    +0.000 A 
ATOM     25  N   UNL     1       3.658  -1.625  -0.416  0.00  0.00    +0.000 NA
ATOM     26  O   UNL     1       2.648  -2.039   0.273  0.00  0.00    +0.000 OA
BRANCH  24  27
ATOM     27  C   UNL     1       5.087   0.396  -0.527  0.00  0.00    +0.000 A 
ATOM     28  C   UNL     1       5.856  -0.072  -1.540  0.00  0.00    +0.000 A 
ATOM     29  C   UNL     1       6.905   0.689  -2.038  0.00  0.00    +0.000 A 
ATOM     30  C   UNL     1       7.164   1.921  -1.501  0.00  0.00    +0.000 A 
ATOM     31  C   UNL     1       6.398   2.398  -0.485  0.00  0.00    +0.000 A 
ATOM     32  C   UNL     1       5.358   1.637   0.004  0.00  0.00    +0.000 A 
ENDBRANCH  24  27
ENDBRANCH   7  22
TORSDOF 5
