REMARK  Name = 
REMARK  3 active torsions:
REMARK  status: ('A' for Active; 'I' for Inactive)
REMARK    1  A    between atoms: C_2  and  N_5
REMARK    2  A    between atoms: C_10  and  C_11
REMARK    3  A    between atoms: C_11  and  C_13
REMARK                            x       y       z     vdW  Elec       q    Type
REMARK                         _______ _______ _______ _____ _____    ______ ____
ROOT
ATOM      1  N   UNL     1      -3.123   1.048   1.329  0.00  0.00    +0.000 NA
ATOM      2  C   UNL     1      -2.082   0.380   0.587  0.00  0.00    +0.000 A 
ATOM      3  N   UNL     1      -2.270  -0.577  -0.279  0.00  0.00    +0.000 NA
ATOM      4  C   UNL     1      -1.245  -1.109  -0.892  0.00  0.00    +0.000 A 
ATOM      5  N   UNL     1      -1.420  -2.177  -1.861  0.00  0.00    +0.000 NA
ATOM      6  C   UNL     1      -0.015  -0.635  -0.597  0.00  0.00    +0.000 A 
ATOM      7  S   UNL     1      -0.389   0.579   0.572  0.00  0.00    +0.000 S 
ENDROOT
BRANCH   1   9
ATOM      8  C   UNL     1      -4.935   0.902  -0.306  0.00  0.00    +0.000 C 
ATOM      9  C   UNL     1      -4.513   0.684   1.153  0.00  0.00    +0.000 C 
ATOM     10  C   UNL     1      -5.319   1.559   2.091  0.00  0.00    +0.000 C 
ATOM     11  C   UNL     1      -4.736  -0.792   1.426  0.00  0.00    +0.000 C 
ENDBRANCH   1   9
BRANCH   6  12
ATOM     12  C   UNL     1       1.283  -1.051  -1.135  0.00  0.00    +0.000 C 
ATOM     13  O   UNL     1       1.369  -1.956  -1.980  0.00  0.00    +0.000 OA
BRANCH  12  14
ATOM     14  C   UNL     1       2.471  -0.390  -0.667  0.00  0.00    +0.000 A 
ATOM     15  C   UNL     1       3.634  -0.327  -1.429  0.00  0.00    +0.000 A 
ATOM     16  C   UNL     1       4.713   0.328  -0.890  0.00  0.00    +0.000 A 
ATOM     17  C   UNL     1       4.721   0.924   0.351  0.00  0.00    +0.000 A 
ATOM     18  F   UNL     1       5.832   1.563   0.833  0.00  0.00    +0.000 F 
ATOM     19  C   UNL     1       3.562   0.848   1.084  0.00  0.00    +0.000 A 
ATOM     20  C   UNL     1       2.462   0.199   0.573  0.00  0.00    +0.000 A 
ENDBRANCH  12  14
ENDBRANCH   6  12
TORSDOF 3
