REMARK  Name = 
REMARK  6 active torsions:
REMARK  status: ('A' for Active; 'I' for Inactive)
REMARK    1  A    between atoms: C_2  and  C_5
REMARK    2  A    between atoms: C_5  and  C_6
REMARK    3  A    between atoms: N_8  and  C_9
REMARK    4  A    between atoms: C_9  and  N_11
REMARK    5  A    between atoms: N_11  and  C_12
REMARK    6  A    between atoms: C_17  and  N_18
REMARK                            x       y       z     vdW  Elec       q    Type
REMARK                         _______ _______ _______ _____ _____    ______ ____
ROOT
ATOM      1  C   UNL     1       0.175   0.029   0.031  0.00  0.00    +0.000 C 
ATOM      2  S   UNL     1       0.668  -1.512   0.093  0.00  0.00    +0.000 S 
ENDROOT
BRANCH   1   5
ATOM      3  C   UNL     1       2.474   0.732  -0.382  0.00  0.00    +0.000 C 
ATOM      4  O   UNL     1       2.828  -0.487  -0.328  0.00  0.00    +0.000 OA
ATOM      5  N   UNL     1       1.111   1.056  -0.203  0.00  0.00    +0.000 NA
BRANCH   3   6
ATOM      6  C   UNL     1       3.481   1.768  -0.628  0.00  0.00    +0.000 C 
BRANCH   6   8
ATOM      7  C   UNL     1       4.880   0.163  -1.934  0.00  0.00    +0.000 C 
ATOM      8  C   UNL     1       4.843   1.134  -0.782  0.00  0.00    +0.000 C 
ATOM      9  C   UNL     1       5.914   2.195  -0.988  0.00  0.00    +0.000 C 
ATOM     10  C   UNL     1       5.120   0.375   0.510  0.00  0.00    +0.000 C 
ENDBRANCH   6   8
ENDBRANCH   3   6
ENDBRANCH   1   5
BRANCH   1  11
ATOM     11  N   UNL     1      -1.188   0.332   0.211  0.00  0.00    +0.000 NA
BRANCH  11  12
ATOM     12  C   UNL     1      -2.119  -0.707   0.446  0.00  0.00    +0.000 A 
ATOM     13  C   UNL     1      -1.784  -2.038   0.516  0.00  0.00    +0.000 A 
ATOM     14  C   UNL     1      -2.743  -3.004   0.748  0.00  0.00    +0.000 A 
ATOM     15  C   UNL     1      -4.071  -2.671   0.919  0.00  0.00    +0.000 A 
ATOM     16  C   UNL     1      -4.388  -1.331   0.846  0.00  0.00    +0.000 A 
ATOM     17  C   UNL     1      -3.442  -0.353   0.614  0.00  0.00    +0.000 A 
BRANCH  17  18
ATOM     18  N   UNL     1      -3.817   1.015   0.548  0.00  0.00    +0.000 N 
ATOM     19  O   UNL     1      -4.824   1.383   1.177  0.00  0.00    +0.000 OA
ATOM     20  O   UNL     1      -3.118   1.921  -0.173  0.00  0.00    +0.000 OA
ENDBRANCH  17  18
ENDBRANCH  11  12
ENDBRANCH   1  11
TORSDOF 6
