REMARK  Name = 
REMARK  2 active torsions:
REMARK  status: ('A' for Active; 'I' for Inactive)
REMARK    1  A    between atoms: O_2  and  C_3
REMARK    2  A    between atoms: C_5  and  C_6
REMARK                            x       y       z     vdW  Elec       q    Type
REMARK                         _______ _______ _______ _____ _____    ______ ____
ROOT
ATOM      1  C   UNL     1       0.112   0.019   0.287  0.00  0.00    +0.000 A 
ATOM      2  C   UNL     1      -0.345   1.316   0.383  0.00  0.00    +0.000 A 
ATOM      3  C   UNL     1      -1.215   1.817  -0.558  0.00  0.00    +0.000 A 
ATOM      4  O   UNL     1      -1.672   2.986  -0.535  0.00  0.00    +0.000 OA
ATOM      5  C   UNL     1      -1.608   0.981  -1.588  0.00  0.00    +0.000 A 
ATOM      6  C   UNL     1      -2.477   1.439  -2.553  0.00  0.00    +0.000 A 
ATOM      7  C   UNL     1      -2.889   0.632  -3.594  0.00  0.00    +0.000 A 
ATOM      8  C   UNL     1      -3.834   1.126  -4.644  0.00  0.00    +0.000 C 
ATOM      9  C   UNL     1      -2.390  -0.657  -3.625  0.00  0.00    +0.000 A 
ATOM     10  C   UNL     1      -1.525  -1.133  -2.677  0.00  0.00    +0.000 A 
ATOM     11  C   UNL     1      -0.974  -2.513  -2.687  0.00  0.00    +0.000 C 
ATOM     12  C   UNL     1      -1.113  -0.316  -1.630  0.00  0.00    +0.000 A 
ATOM     13  O   UNL     1      -0.287  -0.747  -0.712  0.00  0.00    +0.000 OA
ENDROOT
BRANCH   1  16
ATOM     14  C   UNL     1       2.316  -0.126   3.313  0.00  0.00    +0.000 A 
ATOM     15  C   UNL     1       1.441   0.315   2.330  0.00  0.00    +0.000 A 
ATOM     16  C   UNL     1       1.042  -0.507   1.300  0.00  0.00    +0.000 A 
ATOM     17  C   UNL     1       1.542  -1.789   1.273  0.00  0.00    +0.000 A 
ATOM     18  C   UNL     1       2.416  -2.248   2.244  0.00  0.00    +0.000 A 
ATOM     19  C   UNL     1       2.796  -1.402   3.262  0.00  0.00    +0.000 A 
ATOM     20  O   UNL     1       3.685  -1.916   4.222  0.00  0.00    +0.000 OA
BRANCH  14  22
ATOM     21  C   UNL     1       2.256   2.027   4.457  0.00  0.00    +0.000 C 
ATOM     22  O   UNL     1       2.724   0.696   4.356  0.00  0.00    +0.000 OA
ENDBRANCH  14  22
ENDBRANCH   1  16
TORSDOF 2
