REMARK  Name = 
REMARK  2 active torsions:
REMARK  status: ('A' for Active; 'I' for Inactive)
REMARK    1  A    between atoms: C_6  and  N_7
REMARK    2  A    between atoms: C_8  and  C_10
REMARK                            x       y       z     vdW  Elec       q    Type
REMARK                         _______ _______ _______ _____ _____    ______ ____
ROOT
ATOM      1  N   UNL     1       1.123   0.098   0.503  0.00  0.00    +0.000 NA
ATOM      2  C   UNL     1       0.039  -0.449  -0.237  0.00  0.00    +0.000 C 
ATOM      3  O   UNL     1       0.282  -0.798  -1.422  0.00  0.00    +0.000 OA
ENDROOT
BRANCH   2   4
ATOM      4  C   UNL     1      -1.279  -0.590   0.363  0.00  0.00    +0.000 C 
ATOM      5  C   UNL     1      -1.907   0.679   0.828  0.00  0.00    +0.000 C 
ATOM      6  C   UNL     1      -2.964   0.302   1.863  0.00  0.00    +0.000 C 
ATOM      7  C   UNL     1      -3.939  -0.659   1.216  0.00  0.00    +0.000 C 
ATOM      8  C   UNL     1      -4.601   0.086   0.072  0.00  0.00    +0.000 C 
ATOM      9  C   UNL     1      -3.556   0.404  -0.978  0.00  0.00    +0.000 C 
ATOM     10  C   UNL     1      -2.572   1.396  -0.352  0.00  0.00    +0.000 C 
ATOM     11  C   UNL     1      -2.870  -0.831  -1.477  0.00  0.00    +0.000 C 
ATOM     12  C   UNL     1      -2.201  -1.533  -0.315  0.00  0.00    +0.000 C 
ATOM     13  C   UNL     1      -3.294  -1.895   0.691  0.00  0.00    +0.000 C 
ENDBRANCH   2   4
BRANCH   1  19
ATOM     14  N   UNL     1       5.759   1.484   0.935  0.00  0.00    +0.000 NA
ATOM     15  C   UNL     1       4.712   0.932   0.153  0.00  0.00    +0.000 A 
ATOM     16  C   UNL     1       4.895   0.526  -1.150  0.00  0.00    +0.000 A 
ATOM     17  C   UNL     1       3.885  -0.015  -1.926  0.00  0.00    +0.000 A 
ATOM     18  C   UNL     1       2.616  -0.161  -1.377  0.00  0.00    +0.000 A 
ATOM     19  C   UNL     1       2.434   0.244  -0.080  0.00  0.00    +0.000 A 
ATOM     20  C   UNL     1       3.436   0.781   0.694  0.00  0.00    +0.000 A 
ENDBRANCH   1  19
TORSDOF 2
