REMARK  Name = 
REMARK  3 active torsions:
REMARK  status: ('A' for Active; 'I' for Inactive)
REMARK    1  A    between atoms: C_6  and  C_7
REMARK    2  A    between atoms: C_10  and  O_11
REMARK    3  A    between atoms: O_11  and  C_12
REMARK                            x       y       z     vdW  Elec       q    Type
REMARK                         _______ _______ _______ _____ _____    ______ ____
ROOT
ATOM      1  C   UNL     1      -3.159   3.013  -0.782  0.00  0.00    +0.000 C 
ATOM      2  C   UNL     1      -2.623   1.700  -0.304  0.00  0.00    +0.000 A 
ATOM      3  C   UNL     1      -3.486   0.628  -0.363  0.00  0.00    +0.000 A 
ATOM      4  C   UNL     1      -3.027  -0.587   0.068  0.00  0.00    +0.000 A 
ATOM      5  C   UNL     1      -3.920  -1.785   0.027  0.00  0.00    +0.000 C 
ATOM      6  C   UNL     1      -1.710  -0.686   0.545  0.00  0.00    +0.000 A 
ATOM      7  C   UNL     1      -0.873   0.375   0.596  0.00  0.00    +0.000 A 
ATOM      8  N   UNL     1      -1.369   1.572   0.158  0.00  0.00    +0.000 NA
ENDROOT
BRANCH   6   9
ATOM      9  C   UNL     1      -1.262  -1.992   1.015  0.00  0.00    +0.000 C 
ATOM     10  N   UNL     1      -2.164  -3.118   0.887  0.00  0.00    +0.000 NA
ATOM     11  O   UNL     1      -0.162  -2.236   1.523  0.00  0.00    +0.000 OA
ENDBRANCH   6   9
BRANCH   7  12
ATOM     12  O   UNL     1       0.405   0.360   1.036  0.00  0.00    +0.000 OA
BRANCH  12  13
ATOM     13  C   UNL     1       1.569   0.264   0.333  0.00  0.00    +0.000 A 
ATOM     14  C   UNL     1       2.439  -0.769   0.569  0.00  0.00    +0.000 A 
ATOM     15  C   UNL     1       3.630  -0.941  -0.090  0.00  0.00    +0.000 A 
ATOM     16  C   UNL     1       4.010  -0.037  -1.060  0.00  0.00    +0.000 A 
ATOM     17 CL   UNL     1       5.526  -0.256  -1.900  0.00  0.00    +0.000 Cl
ATOM     18  C   UNL     1       3.155   1.007  -1.315  0.00  0.00    +0.000 A 
ATOM     19  C   UNL     1       1.954   1.169  -0.640  0.00  0.00    +0.000 A 
ATOM     20  C   UNL     1       1.069   2.317  -0.954  0.00  0.00    +0.000 C 
ENDBRANCH  12  13
ENDBRANCH   7  12
TORSDOF 3
