REMARK  Name = 
REMARK  2 active torsions:
REMARK  status: ('A' for Active; 'I' for Inactive)
REMARK    1  A    between atoms: N_2  and  C_3
REMARK    2  A    between atoms: C_12  and  C_13
REMARK                            x       y       z     vdW  Elec       q    Type
REMARK                         _______ _______ _______ _____ _____    ______ ____
ROOT
ATOM      1  C   UNL     1      -4.083   0.384  -0.254  0.00  0.00    +0.000 C 
ATOM      2  C   UNL     1      -4.142   0.543   1.056  0.00  0.00    +0.000 C 
ATOM      3  C   UNL     1      -2.817   0.339   1.684  0.00  0.00    +0.000 C 
ATOM      4  C   UNL     1      -1.919   0.026   0.557  0.00  0.00    +0.000 A 
ATOM      5  C   UNL     1      -2.689   0.058  -0.586  0.00  0.00    +0.000 A 
ATOM      6  N   UNL     1      -1.845  -0.232  -1.605  0.00  0.00    +0.000 NA
ATOM      7  C   UNL     1      -0.593  -0.438  -1.130  0.00  0.00    +0.000 A 
ATOM      8  C   UNL     1       0.617  -0.754  -1.714  0.00  0.00    +0.000 A 
ATOM      9  C   UNL     1       1.764  -0.908  -0.964  0.00  0.00    +0.000 A 
ATOM     10  C   UNL     1       1.762  -0.754   0.407  0.00  0.00    +0.000 A 
ATOM     11  C   UNL     1       0.554  -0.438   0.991  0.00  0.00    +0.000 A 
ATOM     12  C   UNL     1      -0.609  -0.281   0.240  0.00  0.00    +0.000 A 
ENDROOT
BRANCH  10  13
ATOM     13  C   UNL     1       3.008  -0.922   1.209  0.00  0.00    +0.000 C 
ATOM     14  C   UNL     1       3.169   0.319   2.043  0.00  0.00    +0.000 C 
ATOM     15  C   UNL     1       3.807   1.455   1.278  0.00  0.00    +0.000 C 
ATOM     16  C   UNL     1       5.081   1.026   0.589  0.00  0.00    +0.000 C 
ATOM     17  C   UNL     1       5.371  -0.442   0.812  0.00  0.00    +0.000 C 
ATOM     18  C   UNL     1       4.169  -1.212   0.320  0.00  0.00    +0.000 C 
ENDBRANCH  10  13
BRANCH   1  20
ATOM     19  O   UNL     1      -5.459   1.733  -1.646  0.00  0.00    +0.000 OA
ATOM     20  N   UNL     1      -5.146   0.497  -1.207  0.00  0.00    +0.000 NA
ENDBRANCH   1  20
TORSDOF 2
