REMARK  Name = 
REMARK  3 active torsions:
REMARK  status: ('A' for Active; 'I' for Inactive)
REMARK    1  A    between atoms: C_2  and  C_5
REMARK    2  A    between atoms: C_8  and  O_9
REMARK    3  A    between atoms: O_9  and  C_10
REMARK                            x       y       z     vdW  Elec       q    Type
REMARK                         _______ _______ _______ _____ _____    ______ ____
ROOT
ATOM      1  C   UNL     1       2.687  -0.084  -0.577  0.00  0.00    +0.000 A 
ATOM      2  C   UNL     1       1.624  -0.286  -1.436  0.00  0.00    +0.000 A 
ATOM      3  C   UNL     1       0.332  -0.213  -0.946  0.00  0.00    +0.000 A 
ATOM      4  C   UNL     1       0.041   0.051   0.356  0.00  0.00    +0.000 A 
ATOM      5  C   UNL     1       1.107   0.260   1.248  0.00  0.00    +0.000 A 
ATOM      6 CL   UNL     1       0.791   0.614   2.945  0.00  0.00    +0.000 Cl
ATOM      7  C   UNL     1       2.387   0.183   0.742  0.00  0.00    +0.000 A 
ENDROOT
BRANCH   1   9
ATOM      8  C   UNL     1       4.207  -1.056  -2.306  0.00  0.00    +0.000 C 
ATOM      9  C   UNL     1       4.069  -0.172  -1.098  0.00  0.00    +0.000 C 
ATOM     10  C   UNL     1       4.629   1.201  -1.448  0.00  0.00    +0.000 C 
ATOM     11  C   UNL     1       5.005  -0.729  -0.024  0.00  0.00    +0.000 C 
ENDBRANCH   1   9
BRANCH   4  12
ATOM     12  O   UNL     1      -1.202   0.137   0.910  0.00  0.00    +0.000 OA
BRANCH  12  13
ATOM     13  C   UNL     1      -2.420  -0.052   0.341  0.00  0.00    +0.000 A 
ATOM     14  N   UNL     1      -2.641  -0.389  -0.926  0.00  0.00    +0.000 NA
ATOM     15  C   UNL     1      -3.883  -0.573  -1.464  0.00  0.00    +0.000 A 
ATOM     16  C   UNL     1      -4.976  -0.405  -0.676  0.00  0.00    +0.000 A 
ATOM     17  C   UNL     1      -4.809  -0.050   0.660  0.00  0.00    +0.000 A 
ATOM     18  C   UNL     1      -3.540   0.126   1.166  0.00  0.00    +0.000 A 
ATOM     19  N   UNL     1      -3.410   0.494   2.532  0.00  0.00    +0.000 NA
ENDBRANCH  12  13
ENDBRANCH   4  12
TORSDOF 3
