REMARK  Name = 
REMARK  2 active torsions:
REMARK  status: ('A' for Active; 'I' for Inactive)
REMARK    1  A    between atoms: C_5  and  C_6
REMARK    2  A    between atoms: N_8  and  N_9
REMARK                            x       y       z     vdW  Elec       q    Type
REMARK                         _______ _______ _______ _____ _____    ______ ____
ROOT
ATOM      1  C   UNL     1       0.902  -0.529  -0.212  0.00  0.00    +0.000 C 
ATOM      2  O   UNL     1       0.169  -1.339   0.383  0.00  0.00    +0.000 OA
ATOM      3  N   UNL     1       0.406   0.123  -1.355  0.00  0.00    +0.000 NA
ENDROOT
BRANCH   3   4
ATOM      4  N   UNL     1      -0.846  -0.047  -1.900  0.00  0.00    +0.000 NA
ATOM      5  C   UNL     1      -1.963   0.134  -1.321  0.00  0.00    +0.000 C 
ATOM      6  C   UNL     1      -3.089  -0.162  -2.272  0.00  0.00    +0.000 C 
ATOM      7  C   UNL     1      -4.419   0.249  -1.698  0.00  0.00    +0.000 C 
ATOM      8  C   UNL     1      -4.759  -0.729  -0.597  0.00  0.00    +0.000 C 
ATOM      9  C   UNL     1      -5.221   0.089   0.598  0.00  0.00    +0.000 C 
ATOM     10  C   UNL     1      -4.015   0.856   1.141  0.00  0.00    +0.000 C 
ATOM     11  C   UNL     1      -2.819  -0.051   1.005  0.00  0.00    +0.000 C 
ATOM     12  C   UNL     1      -1.806   0.567   0.070  0.00  0.00    +0.000 C 
ENDBRANCH   3   4
BRANCH   1  17
ATOM     13  N   UNL     1       6.155   0.491   1.681  0.00  0.00    +0.000 NA
ATOM     14  C   UNL     1       4.846   0.228   1.221  0.00  0.00    +0.000 A 
ATOM     15  C   UNL     1       4.371   0.873   0.100  0.00  0.00    +0.000 A 
ATOM     16  C   UNL     1       3.081   0.624  -0.366  0.00  0.00    +0.000 A 
ATOM     17  C   UNL     1       2.259  -0.266   0.278  0.00  0.00    +0.000 A 
ATOM     18  C   UNL     1       2.736  -0.908   1.396  0.00  0.00    +0.000 A 
ATOM     19  C   UNL     1       4.011  -0.655   1.849  0.00  0.00    +0.000 A 
ENDBRANCH   1  17
TORSDOF 2
